14

 C   -0.0877808312    1.4368480940   -0.0697839520
 N   -0.1514635715   -0.0155402836   -0.1615713627
 C    0.5913487722   -0.6210544239   -0.9528804119
 O    1.5483654715   -0.1777166235   -1.8525159704
 C    1.8919182550   -1.5346606249   -2.2449134189
 C    0.7877079985   -2.0972485589   -1.3076231131
 C    1.2029908357   -2.9920911504   -0.2421456436
 N    1.5533726506   -3.7080536394    0.5941223629
 H    0.6689071199    1.8932636104   -0.7175898545
 H   -1.0690721585    1.8504493498   -0.3243757002
 H    0.1184005418    1.7139894845    0.9688684496
 H    1.7309935710   -1.6953585057   -3.3124522653
 H    2.9152760216   -1.7857696984   -1.9608347097
 H   -0.0695844565   -2.5185264301   -1.8383290202