14

 O   -0.0094017108    0.0085966204    0.5218797636
 C   -0.0159872004    1.1697058710    0.2266244002
 C   -1.2259825196    2.0494577609   -0.0573206374
 C   -0.6744639946    3.5023320807   -0.0676423430
 N    0.7756079812    3.3112442695   -0.1533540457
 C    1.2464613480    2.0462694277    0.0563828233
 O    2.3965649088    1.6830907551    0.0987452191
 C   -1.1887565501    4.3278060916   -1.1565774156
 C   -1.6138322028    5.0177595600   -2.0430994997
 H   -1.6212995447    1.7850242696   -1.0429110697
 H   -2.0209015715    1.8987432985    0.6743175639
 H   -0.9280681466    3.9913786007    0.8832795581
 H    1.4035025886    4.0907642620   -0.2780817905
 H   -1.9901112854    5.6240889822   -2.8303853765