20

 C   -0.0635778929    1.5527760741   -0.0925430657
 C   -0.0705470993    0.0415981059    0.0144329171
 C   -1.2459360460   -0.6465640163   -0.6512622801
 N    1.2838671321   -0.5842640493   -0.1257203090
 C    0.6006029225   -0.6329110574    1.1403440963
 C    1.1526023346   -0.2901887813    2.5351224059
 C   -0.1855594010   -0.7740355258    3.1473315283
 C    0.2756010225   -1.8031957130    2.0849053853
 O    1.6528395023   -1.6883164580    2.6265668987
 H    0.8374105079    1.9686329689    0.3636357716
 H   -0.0848591189    1.8642259313   -1.1431074702
 H   -0.9396199048    1.9857601665    0.4036298014
 H   -1.2554561068   -0.4376616311   -1.7275657171
 H   -1.2065265627   -1.7317939068   -0.5157351200
 H   -2.1972988021   -0.2905047764   -0.2401399403
 H    1.2294212363   -1.4787947154   -0.6087754158
 H    1.8226359397    0.5075429321    2.8525719222
 H   -0.1076205596   -1.1268897771    4.1758698748
 H   -1.0896732147   -0.1917220627    2.9515073997
 H   -0.1016554291   -2.8042559880    1.8730808069