17

 O   -0.3390935362    0.2625260187   -0.9179592862
 C   -0.2259574147    1.3650194310   -0.4261930971
 N   -0.7667322230    1.7857929004    0.7740643493
 C   -0.4972602576    3.1708360551    1.0615305145
 C    0.3633650225    3.5913096261   -0.1130679210
 C    0.5030751876    2.5542109429   -0.9507122730
 C    0.9016720751    4.9616830744   -0.1926282394
 C    2.3667243195    5.1801825071   -0.4220592260
 N    1.3978148030    5.5188690391   -1.4625887579
 H   -1.3826049580    1.1999851433    1.3108444775
 H   -1.4121517816    3.7804381066    1.1121373766
 H    0.0363206541    3.3099956645    2.0134879740
 H    1.0430718130    2.5122481019   -1.8866213711
 H    0.3785978527    5.6919574924    0.4211962652
 H    2.8603564026    6.0285721412    0.0440363066
 H    2.9813986590    4.2920587718   -0.5389229762
 H    1.3805476420    4.7995597837   -2.1816496358