16

 C   -0.2853471101    1.4845419483   -0.0425234385
 N    0.1053020581    0.0892765809   -0.0048469850
 C    1.1946992390   -0.4150761059   -0.8673311359
 C    1.7945673566   -1.1739300463    0.3467936055
 N    2.7863106646   -0.4121250260    1.1044129075
 C    1.8604539421    0.3220191561    1.8328879386
 O    1.9731195285    1.2677142190    2.5651250600
 C    0.6890511702   -0.4976654007    1.2150442278
 H    0.5421844426    2.1878142265    0.1496380449
 H   -0.7120672642    1.7123800006   -1.0249456884
 H   -1.0590686152    1.6638529075    0.7107532342
 H    0.8279955028   -1.0381605968   -1.6908436683
 H    1.8728244161    0.3496403615   -1.2729678030
 H    1.9647514785   -2.2471134578    0.2834058327
 H    3.7147253270   -0.1272977959    0.8176149081
 H   -0.0079622066   -0.9962089608    1.8910786497