9

 O    0.0384810565    0.0585432454   -0.0086274005
 C    0.1802786815    1.2247007798   -0.1880788423
 O    0.7382723313    2.0360607208    0.7509978479
 C    0.8791179337    3.4119290245    0.4148853417
 C    2.1838852511    3.6949937141   -0.1965052330
 N    3.2039949241    3.9252828146   -0.6857810682
 H   -0.1250727689    1.7713436103   -1.1008281029
 H    0.0843189461    3.7410687921   -0.2660730888
 H    0.7818819146    3.9748869983    1.3461097861