20

 C   -0.0685452462    1.3538317232    0.2117104975
 N   -0.0638027581   -0.0776089395    0.4245240905
 C   -1.0488777491   -0.7282781416   -0.0108615363
 O   -1.1202388109   -2.0628448439    0.1480564164
 C   -2.2925839081   -2.6895487531   -0.3918449344
 C   -2.1789392133   -4.1687861999   -0.1588611952
 C   -2.4851870023   -4.7327985560    1.2153249715
 C   -3.4201283571   -4.9874529374    0.0631960474
 O   -4.6451264196   -4.3125976573    0.0004521490
 H    0.8201318465    1.6454494720   -0.3602061652
 H   -0.9587597594    1.7266648487   -0.3223550364
 H   -0.0072758889    1.8710420738    1.1764083104
 H   -1.9080247910   -0.2828718542   -0.5390923363
 H   -3.1927567573   -2.2958638724    0.0919175315
 H   -2.3623543271   -2.4729509154   -1.4665276129
 H   -1.3795767301   -4.6490082597   -0.7145274621
 H   -1.8767897701   -5.5461029501    1.5942181056
 H   -2.8163631271   -4.0225521145    1.9657369342
 H   -3.4331341142   -5.9875596585   -0.3693267511
 H   -5.2168541163   -4.6722389942    0.6864580659