20

 C    0.1060686114    1.3074799625   -0.7108192432
 N   -0.2409936679    0.4411475261    0.4068355204
 C   -1.4373011722   -0.3338887506    0.2554856903
 C   -1.4087339172   -1.7327205095   -0.4797821409
 C   -0.2719268065   -2.0895519300   -1.4191537010
 N   -1.3354022000   -2.3825240140    0.8522110125
 C   -1.8248551397   -1.1668461501    1.5279236793
 C   -1.1575901734   -0.8495667867    2.7910771628
 N   -0.6345530609   -0.6079510357    3.7927641352
 H    1.0041646857    1.8768752054   -0.4554637852
 H    0.2909965311    0.7881690022   -1.6647733783
 H   -0.7053142500    2.0259581644   -0.8746273802
 H    0.5436201297   -0.1285786784    0.7006891956
 H   -2.2312791677    0.3314537801   -0.0920830668
 H   -2.3747208212   -1.8986722838   -0.9818543502
 H    0.6963600232   -1.8293955351   -0.9821904304
 H   -0.2676618500   -3.1673058054   -1.6146469071
 H   -0.3762682747   -1.5752781725   -2.3800040793
 H   -1.8968118672   -3.2162264381    0.9880839523
 H   -2.9105644728   -1.1364447308    1.6973036742