16

 O    0.0989907043    1.4393679563    0.0221542372
 C    0.0549763781    0.0332057235    0.0502699945
 C   -1.3974415216   -0.5085240866    0.0360848316
 C   -2.0682615012   -0.0524739663   -1.1813300035
 N   -2.5374211054    0.3379123383   -2.1633272405
 C   -1.4272449592   -2.0637493160    0.1541908319
 O   -0.6983854823   -2.4800149059    1.2994324734
 C   -2.7961398333   -2.5751512356    0.1598237465
 C   -3.9271498787   -2.9758574191    0.2222863018
 H   -0.2335066477    1.7366746515   -0.8326897089
 H    0.6141002486   -0.4182707732   -0.7832551736
 H    0.5238621865   -0.2853758672    0.9822345037
 H   -1.9298400839   -0.0850240620    0.8958590871
 H   -0.8851931291   -2.4770204690   -0.7050391343
 H   -1.2937290294   -2.4485051177    2.0568011008
 H   -4.9254084058   -3.3388270811    0.2536574923