25

 C   -0.8632520818    1.2298485949    0.0769271145
 C   -0.4766799850   -0.2430669379   -0.0878669039
 C    0.5431346052   -0.5091969979   -1.2228137147
 C    0.0297951942    0.0054879792   -2.5724594870
 O    1.7466920318    0.2171399634   -0.9715540789
 C    0.8550957860   -2.0216189950   -1.3604272908
 C    1.2674102247   -2.7605118476   -0.0854074528
 C    1.6419633400   -4.2163034746   -0.3581069723
 O    2.3838713723   -2.0510846947    0.4772561202
 H    0.0364648966    1.8473235059    0.1448878047
 H   -1.4620661130    1.5939366127   -0.7632181553
 H   -1.4524953584    1.3772274406    0.9874543606
 H   -0.0318706667   -0.5903816448    0.8519573029
 H   -1.3744032889   -0.8539963055   -0.2539757559
 H   -0.0388982009    1.0954730163   -2.5616997992
 H    0.7229435120   -0.2760665035   -3.3705132707
 H   -0.9575546705   -0.4054472341   -2.8065318950
 H    2.2179076281   -0.2683803412   -0.2807037664
 H   -0.0218987975   -2.5366021681   -1.7707320562
 H    1.6620154709   -2.1212622353   -2.0967409798
 H    0.4315319702   -2.7394697394    0.6290538815
 H    1.9474282823   -4.7208118472    0.5660138103
 H    0.7915893608   -4.7682611675   -0.7711960785
 H    2.4725299572   -4.2713778173   -1.0685490258
 H    2.6110859403   -2.4528993111    1.3212187183