17

 O   -0.0832258811    1.4734559057   -0.0781939336
 C    0.0019306916    0.0496277354   -0.0052032137
 C    0.6618310093   -0.4499621979    1.2683810049
 C   -0.1381654767   -1.2667299709    1.9738129944
 C    0.1664545137   -1.9036396044    3.2012971097
 C    0.3902524306   -2.4745403120    4.2387112946
 C   -1.4773633697   -1.4096113409    1.3030666286
 C   -2.2753410362   -0.1266079315    1.2108860101
 C   -1.3984384135   -0.5524657084    0.0605119222
 H    0.8130949003    1.8213544256   -0.1278065050
 H    0.5360680473   -0.3294378825   -0.8919853054
 H    1.6532516350   -0.1360023144    1.5748580179
 H    0.5981004196   -2.9669648684    5.1561419415
 H   -1.9873474901   -2.3648501434    1.3256843267
 H   -3.3468520322   -0.2135274711    1.0662537572
 H   -1.9598339124    0.7178822227    1.8123196240
 H   -1.8708382156   -0.8611259935   -0.8632545442