16

 C    0.0339654054    1.5491120140    0.0256316656
 C   -0.0288276150    0.0525581098    0.0141636389
 C   -1.1739467337   -0.6761575798   -0.0843862006
 O   -2.3949376132   -0.1189248865   -0.1838373497
 C   -1.1846598356   -2.1420122420   -0.0915047716
 O   -2.2853688518   -2.7091907869   -0.1857233403
 C    0.1076617836   -2.7638227075    0.0136357035
 C    1.2306556933   -1.9976457801    0.1105098469
 N    1.1650787164   -0.6419523098    0.1107753056
 H    0.6281860089    1.9340988222   -0.8123784439
 H   -0.9735965307    1.9568823937   -0.0558428825
 H    0.4824632068    1.9267477512    0.9529023570
 H   -2.9755020572   -0.9116600777   -0.2354286544
 H    0.1775482035   -3.8438483009    0.0148899348
 H    2.2256532674   -2.4179920240    0.1916978851
 H    2.0165456619   -0.1096477556    0.1839944556