17

 C   -0.7022886842    1.2027898720    0.2588298493
 C    0.0570763734   -0.0769949471    0.0372043411
 O    1.4467894738    0.0248179004   -0.2635397436
 C    1.0756011115   -0.5908732713    0.9842541775
 C    1.4176924599    0.0972338914    2.1980616185
 C    1.7062437003    0.6513826205    3.2291915553
 C    2.0578392813    1.2918879372    4.4660951395
 C    2.4690841024    2.7096400923    4.5157602985
 O    1.1776384359    2.3168306564    4.9596345678
 H   -0.1530949507    1.8732076141    0.9227378554
 H   -0.8693300849    1.7116528247   -0.6959969181
 H   -1.6798436584    0.9910186991    0.7044141738
 H   -0.4624643941   -0.8341794045   -0.5541077009
 H    1.2426046389   -1.6677515496    1.0079876410
 H    2.4377112183    0.6292831930    5.2428983782
 H    3.1612240806    3.0310353359    5.2930425443
 H    2.4962359259    3.2814877955    3.5903807424