18

 C   -0.0124515193    1.5435924467   -0.0544861081
 C   -0.0293074335    0.0144889176    0.0416477104
 N   -1.3650907146   -0.5504501594    0.0410719568
 C   -2.1025535598   -0.8606880802    1.1484852576
 C   -3.3584499203   -1.2597652668    0.7459003691
 C   -3.3881151564   -1.1872216724   -0.6763513019
 N   -4.5094017340   -1.4533528999   -1.4896140730
 C   -2.1469438848   -0.7437292835   -1.0844456729
 H    1.0179511244    1.9137193499   -0.0568746156
 H   -0.5014173939    1.8812297261   -0.9726658932
 H   -0.5389629965    1.9906249740    0.7936335890
 H    0.5288320757   -0.4217547515   -0.7945782979
 H    0.4687187685   -0.3124986611    0.9599306885
 H   -1.6736392026   -0.7761093812    2.1349349862
 H   -4.1632625240   -1.5800394525    1.3904947792
 H   -5.0679993406   -2.2144455017   -1.1235928580
 H   -4.2474968189   -1.6798041259   -2.4409456695
 H   -1.7535692393   -0.5530394582   -2.0704599365