17

 C    0.0522462531    1.3715816885    0.0599753152
 O   -0.0554171894   -0.0532520823    0.0001494378
 C   -1.3060141592   -0.5412356718   -0.0297161055
 N   -2.3479285854    0.1796145403   -0.0481008109
 C   -3.6152125527   -0.5438508226    0.0104672646
 C   -3.5854181985   -1.8907949055   -0.7272674274
 C   -2.3713625965   -2.7182706250   -0.3452881939
 O   -2.3119723416   -3.9256872688   -0.3471026000
 N   -1.2721273335   -1.9343173786   -0.0246592653
 H    1.1213075985    1.5811704186    0.1038394575
 H   -0.3943325270    1.8288706564   -0.8264785976
 H   -0.4551170126    1.7599456128    0.9466409235
 H   -3.8836489962   -0.7062553705    1.0653331495
 H   -4.3984106192    0.0918071779   -0.4119783643
 H   -4.4811351080   -2.4872474888   -0.5431843140
 H   -3.5221723857   -1.7189412931   -1.8102474416
 H   -0.3874774760   -2.4015087174    0.1152850023