20

 C   -0.0814534842    1.5216342230   -0.1460423369
 C    0.0136590908    0.0260061083    0.0502269894
 N    1.3409099300   -0.5981674325   -0.0964118261
 C    0.6649468908   -0.6367983755    1.2101702913
 C    1.3586700827    0.1094027654    2.3349936086
 O    2.2622590304   -0.7592280518    3.0141112303
 C    1.6205491474   -1.9171110037    3.4690095331
 O    1.0785602937   -2.6869798948    2.4249420329
 C    0.0919021615   -1.9463886891    1.7189944158
 H    0.7972577897    2.0333079458    0.2521608701
 H   -0.1476774943    1.7597836157   -1.2128536292
 H   -0.9738508425    1.9254094302    0.3442875834
 H   -0.8309943226   -0.5245260656   -0.3682011842
 H    1.2743953145   -1.4999315298   -0.5628284093
 H    1.9548164034    0.9382461448    1.9533087344
 H    0.6110251767    0.5004568372    3.0467553490
 H    2.3761047111   -2.5322376317    3.9609807530
 H    0.8177863860   -1.6482291938    4.1850001003
 H   -0.7677081263   -1.7451399638    2.3825961837
 H   -0.2541123088   -2.5783362783    0.8948887401