21

 O   -0.0535336918    1.4348377489   -0.3333945030
 C    0.0504176457    0.0361897912   -0.1170708971
 C   -1.3596144646   -0.5323982152   -0.0400190851
 C   -1.3738287308   -2.0454989183    0.2223455154
 C   -2.7625400164   -2.6001199642    0.2855864717
 C   -3.8397368961   -2.3859805821    1.3700427629
 C   -4.4406433140   -3.7839755873    0.9856886687
 C   -3.3409666265   -3.9077041258   -0.0766650519
 O   -3.4748338459   -2.7778445010   -0.9512022062
 H    0.8348869160    1.7956100083   -0.4041518490
 H    0.6045494721   -0.4547990556   -0.9342306665
 H    0.5923749758   -0.1832597382    0.8185261046
 H   -1.9028327333   -0.0059501244    0.7538047104
 H   -1.8822081029   -0.3164504928   -0.9780642482
 H   -0.8275491285   -2.5699225686   -0.5708007062
 H   -0.8589609686   -2.2648331479    1.1674368641
 H   -3.4337934668   -2.3700751841    2.3847715112
 H   -4.4809919768   -1.5145787626    1.2197884204
 H   -4.3500068516   -4.5160408817    1.7918103850
 H   -5.4612476256   -3.7931978939    0.5961750358
 H   -2.8827061294   -4.7986786447   -0.4926203370