13

 O   -0.3211868552    0.3809438255    0.7500447554
 C    0.2760864153    0.8274218757   -0.1879445807
 C    1.3728852799    1.8645464575   -0.0703180649
 N    2.3397354989    1.7985427740   -1.1911051199
 C    1.4476094088    2.9487102576   -1.1409100070
 C    0.4561913800    3.0677914069   -2.1850659435
 N   -0.3456629301    3.1928412821   -3.0078711939
 C    1.8244869503    2.2147281018    1.2457344013
 C    2.2285909752    2.4962556382    2.3413973255
 H    0.0902050531    0.5148527717   -1.2351310091
 H    3.2675724595    2.0549989103   -0.8618761179
 H    1.8309973162    3.9005759627   -0.7843780513
 H    2.5714901781    2.7387811759    3.3175364061