19

 C    0.0941902418    1.5570459201    0.0032849927
 C   -0.0125896379    0.0667827463    0.0004201903
 C    0.7145618539   -0.9986962366   -0.7904478035
 C    0.7556980592   -1.0046805679    0.7428142351
 C   -0.4924722514   -1.8909200008    0.9872508187
 O   -0.4928726875   -2.9482271756    0.0015918159
 C   -0.5450769642   -1.8833188835   -0.9744671733
 C   -1.2499530027   -0.9053363176    0.0297985484
 C   -2.7118815130   -0.5780846911    0.0702954794
 H    1.1431636572    1.8720694472   -0.0205679959
 H   -0.4024134482    1.9989128035   -0.8685558651
 H   -0.3601623350    1.9923487340    0.9010867815
 H    1.6048538665   -0.9206082557   -1.4001235726
 H    1.6774142949   -0.9311288479    1.3044704381
 H   -0.7876882368   -2.2062785648    1.9874578672
 H   -0.8935320661   -2.1909943648   -1.9598266457
 H   -3.3074522423   -1.4975937426    0.0828687442
 H   -2.9678571503    0.0019080544    0.9642763607
 H   -3.0153781180    0.0085214535   -0.8042890163