15

 N    0.6024374356    0.0071471868   -0.6031654008
 C   -0.2696787996    0.2126481366    0.4103367953
 O   -0.2229085482    1.1385215337    1.1943810551
 C   -1.4221500694   -0.8099721807    0.5074642116
 N   -1.0916457349   -2.1686982711    0.1128544713
 C   -0.9006872670   -3.2607988558    0.8874921109
 C   -0.5633250097   -4.2541677035   -0.0018807704
 N   -0.5555478279   -3.7309988161   -1.2556433288
 N   -0.8790873261   -2.4698112631   -1.1869227138
 H    1.3286783535    0.6889151867   -0.7490272355
 H    0.4568858771   -0.7299098188   -1.2776563925
 H   -1.7603397196   -0.8152913003    1.5426058868
 H   -2.2436434819   -0.4592837258   -0.1241958297
 H   -1.0216868650   -3.2384234725    1.9573294360
 H   -0.3340818768   -5.2908274563    0.1825961744