21

 O    0.1715757606    1.3598278193    0.0531949414
 C    0.0598209081   -0.0235056039   -0.0801018991
 C   -1.3827900800   -0.4868474500    0.0570428891
 O   -2.2535333880    0.3475210517    0.2057346372
 C   -1.6605994553   -1.9740541542    0.0347249446
 C   -1.8667768911   -2.5272520044    1.4733419069
 C   -2.6606735840   -3.8188841923    1.2392115544
 C   -3.6850355677   -3.4177748260    0.1624471680
 C   -2.9623927086   -2.3648985925   -0.7228179486
 H   -0.7425413716    1.6713151636    0.1584222482
 H    0.4267383622   -0.3699385402   -1.0628590142
 H    0.6686951040   -0.5517088121    0.6730659308
 H   -0.7964171339   -2.4843952809   -0.4064001059
 H   -0.9246253130   -2.6783089696    2.0076539953
 H   -2.4699637723   -1.8151821659    2.0486263346
 H   -1.9911115205   -4.6003734244    0.8589825690
 H   -3.1245799404   -4.2031439012    2.1521948322
 H   -4.0445014490   -4.2732439107   -0.4153724026
 H   -4.5607150533   -2.9646310265    0.6386855322
 H   -3.5844569190   -1.4797466576   -0.8699945302
 H   -2.7195134172   -2.7627048221   -1.7117218632