20

 C   -0.5547881496    1.2998795871   -0.3635858350
 O   -0.7715285543   -0.0815375751   -0.5415685311
 C   -0.8220061740   -0.7953770086    0.6766145438
 C   -1.0204526055   -2.2603937497    0.3303691131
 O   -1.1142867770   -3.0850650525    1.5124772297
 C   -2.3939798150   -3.6346730158    1.1056162920
 C   -2.4090770951   -2.7202709620   -0.1130295974
 C   -3.4870202238   -1.9356280912   -0.7454421083
 N   -2.8643698308   -3.0852378013   -1.4411558947
 H   -0.5287054766    1.7579434796   -1.3551693504
 H   -1.3599809754    1.7667729095    0.2245386898
 H    0.4010278944    1.4966268103    0.1457986689
 H    0.1125720077   -0.6724520771    1.2487089097
 H   -1.6509392329   -0.4428062801    1.3110167556
 H   -0.2093642480   -2.5916206639   -0.3349435229
 H   -2.3289089988   -4.7042074471    0.8717428201
 H   -3.1688600721   -3.4695374767    1.8633687089
 H   -4.5213523050   -2.0905837860   -0.4494139006
 H   -3.2419785759   -0.9317594362   -1.0791789283
 H   -2.2034484023   -2.7504087232   -2.1394524428