15

 N    0.0146903227    1.1649039990    0.5374688626
 C    0.0443228465    0.0030378271    0.0430506804
 O    1.2042626445   -0.5979347114   -0.3603268810
 C    1.1138748004   -1.7023478787   -1.2820382648
 C    0.1517706270   -2.7434351534   -0.7287815845
 O    0.4372963665   -3.8931612854   -0.5116785053
 N   -1.1132685244   -2.1954596607   -0.4899819958
 C   -1.5619255625   -1.8928146006    0.8583662329
 C   -1.2131970299   -0.7941301496   -0.1110371985
 H    0.9513365011    1.5733778121    0.5496492895
 H    0.7898937025   -1.3467190626   -2.2683179492
 H    2.1154222670   -2.1233226533   -1.3539000509
 H   -2.6070264158   -2.0951284375    1.0699790089
 H   -0.8711530694   -2.0969627648    1.6713620458
 H   -2.0335072163   -0.2434603704   -0.5612562401