16

 C    0.0653933345   -1.1236595880   -0.0218631170
 C    0.0233218727    0.0778901275   -0.0116875689
 C   -0.0677901471    1.5050411069    0.0006741889
 C   -1.1162267105    2.2375911687   -0.8193128297
 C   -0.6877719692    3.6543243849   -0.5149647810
 C   -0.1109093309    3.7585448491    0.8919756662
 C    0.8017252351    3.6855951040   -0.3048503596
 N    1.2409020476    2.2757621364    0.0282668254
 C    0.3197877562    2.3194185569    1.1990642322
 H    0.1152883541   -2.1840903932   -0.0315247933
 H   -1.0419707482    1.9911910558   -1.8829343806
 H   -2.1274245079    2.0043194442   -0.4719152316
 H   -1.1821290636    4.5167947932   -0.9437260785
 H   -0.3115713710    4.5560380180    1.5924226888
 H    1.5042875057    4.3812379789   -0.7426100913
 H    0.5932974427    1.8982255667    2.1589819900