13

 C   -0.1074585719    1.5378650358    0.0121768587
 C    0.1135194929    0.0387387916    0.0014023983
 O    1.2024997205   -0.4697911468   -0.0119164816
 C   -1.1859950151   -0.8032404450    0.0088469468
 C   -0.9654586375   -2.2342485333   -0.0009086313
 C   -0.7844186572   -3.4273476840   -0.0090163671
 C   -0.5855258251   -4.7780045042   -0.0181388814
 N   -0.4227046171   -5.9280945036   -0.0258438947
 H    0.8553530488    2.0487817426    0.0057578620
 H   -0.6940489465    1.8449063079   -0.8609916654
 H   -0.6769051858    1.8347277201    0.9000922326
 H   -1.7761640286   -0.5148756611    0.8895960041
 H   -1.7921396074   -0.5054619098   -0.8578114111