19

 C   -0.2433209320    1.5419934535   -0.0793739614
 C    0.0505063555    0.0548437561   -0.0239024007
 N    0.9763979356   -0.5116740734   -1.0704943561
 C    2.3241067518    0.0261814858   -0.8140694687
 C    1.8408565733   -1.0724100139    0.0400661290
 C    0.9151688934   -0.5569000061    1.1597631869
 C    1.5211437359    0.3604291864    2.2302007441
 C    0.1973232283   -1.6499825575    1.8107660387
 N   -0.3714869880   -2.5077063968    2.3380488953
 H    0.6475005110    2.1642573396    0.0361077115
 H   -0.7006004006    1.7838975833   -1.0440825223
 H   -0.9505561659    1.8194052358    0.7086647326
 H   -0.8868412915   -0.4983976158   -0.1077895989
 H    3.0272758474   -0.2360888764   -1.5983913017
 H    2.4517225370    1.0297621740   -0.4206107907
 H    2.2413822304   -2.0795454115    0.0016794967
 H    2.0796958713    1.1812454045    1.7774449157
 H    0.7373630690    0.7858983635    2.8633024007
 H    2.2042021282   -0.2035860112    2.8718971593