13

 O    0.0913951773    0.0599643705   -0.5117429468
 C    0.0544894149    1.2157723847   -0.1596561801
 N    1.0876009155    1.8795354751    0.4660074469
 C    2.5477467081    1.6121918862    0.1919428197
 C    2.4489514099    2.6120688258   -1.0131627621
 C    1.5888259077    3.2667598854    0.1185399338
 C    2.7762150031    2.8871978085    1.0537714284
 O    3.4841448535    3.3376635029    1.8874587200
 H   -0.8557444993    1.8446787452   -0.2172432035
 H    2.9722225927    0.6144488991    0.2335778263
 H    3.3584605361    3.1272082976   -1.3319346043
 H    1.8655382738    2.2253978966   -1.8492441554
 H    0.9382257365    4.1371626723    0.0892899370