20

 C   -0.0156446292    1.4164784154    0.3633620123
 C    0.1786407302   -0.0749405436    0.1681207350
 C    0.5421257433   -0.7802894725   -1.0774945581
 C    1.6358406966   -0.0771586259   -1.8927265301
 O    1.4125660175    1.2304777757   -2.3821078638
 C    2.5243428365   -0.1666289916   -0.6304606241
 C    3.2086975077    1.0261585080    0.0190304535
 O    3.7918022518    0.6318001262    1.2529896807
 N    1.4385603080   -0.8577929571    0.1703046497
 H    0.5010044230    2.0161506471   -0.3821066068
 H   -1.0865092396    1.6363720209    0.2852474536
 H    0.3051323557    1.7208252650    1.3656414590
 H   -0.5381424553   -0.6491038563    0.7557339706
 H    0.0001524096   -1.6540707404   -1.4290036318
 H    2.0138429912   -0.7241218884   -2.6941512992
 H    0.7751134688    1.1830093657   -3.1021343641
 H    3.2942973037   -0.9295272745   -0.7811873625
 H    4.0283243226    1.3660036109   -0.6235925433
 H    2.5297158227    1.8740015087    0.1535205180
 H    3.1250697952    0.1198017266    1.7255222816