21

 C    0.4591206343    1.3966214337    0.3356942456
 C   -0.2731385523    0.1586826636   -0.1956753791
 C    0.4571871367   -0.4781653696   -1.3721517400
 O    1.7259897568   -1.0966696080   -1.0636303134
 C    0.6668261261   -1.9513107558   -1.5185843301
 C    0.1330915244   -2.9357688908   -0.4969070208
 C    0.8785876582   -2.5518960628   -2.8931067560
 C    0.4506781822    0.3526846321   -2.5606484681
 C    0.4014159920    1.0787775365   -3.5183319499
 H    1.4660210696    1.1297119919    0.6694841978
 H    0.5505830065    2.1633738074   -0.4389400802
 H   -0.0800319480    1.8302058228    1.1828866303
 H   -0.3833716046   -0.5734699420    0.6064362199
 H   -1.2829429324    0.4288125179   -0.5260008641
 H    0.1433561340   -2.5294916770    0.5142557532
 H   -0.8886557112   -3.2403038385   -0.7471461593
 H    0.7572585224   -3.8359948421   -0.4995436208
 H    1.6097916594   -3.3649880602   -2.8308627441
 H   -0.0573369477   -2.9715470298   -3.2773983742
 H    1.2432297589   -1.8072829260   -3.6008328334
 H    0.3713726646    1.7115568768   -4.3708563732