13

 C   -0.4338918619   -0.7955779688   -0.9574291269
 C   -0.1335482989    0.1053308032   -0.2219479902
 C    0.2285662195    1.2047270812    0.6660400677
 C    1.5214417960    1.8767052235    0.2862002161
 N    2.0997612552    2.7706972151    1.0925059283
 N    3.1796125981    3.1350123011    0.4136905730
 N    3.3660713528    2.5595578695   -0.7640581692
 C    2.3128150749    1.7472863394   -0.8682816597
 H   -0.7039740100   -1.5962849495   -1.6005179024
 H   -0.5800000719    1.9477513920    0.6727538081
 H    0.3040872462    0.8407265874    1.6978872089
 H    3.8301807781    3.8102693292    0.7816036658
 H    2.1681406817    1.1203658765   -1.7322305396