21

 C   -0.0681039988    1.5278927521    0.0177465345
 C    0.0105342696   -0.0055313800   -0.0518864206
 C   -1.4202602972   -0.5655227340   -0.0926160004
 C    0.9578266661   -0.5593676133   -1.1533334761
 C    1.2285114937   -2.0206977822   -0.6809779997
 C    1.9734294877   -1.3023259862    0.4928756732
 C    2.3762872619   -0.2440627810   -0.5872578017
 C    0.8067091911   -0.5834046784    1.1542064212
 O    0.5416968827   -0.4736530895    2.3224993548
 H    0.9134714966    2.0078027387    0.0138406928
 H   -0.6369666065    1.9195273695   -0.8327160355
 H   -0.5795569782    1.8304694807    0.9364532057
 H   -1.9701028048   -0.1453832538   -0.9419844474
 H   -1.4518800242   -1.6543056271   -0.1784803415
 H   -1.9507615802   -0.2914285289    0.8242251946
 H    0.6943956178   -0.3346324351   -2.1874756464
 H    0.3876953910   -2.6739823314   -0.4414116592
 H    1.9299539297   -2.5446956491   -1.3339101069
 H    2.6876123765   -1.7982168981    1.1469773826
 H    3.1735271599   -0.6197814323   -1.2323617428
 H    2.6125483256    0.7698647693   -0.2597279312