17

 C    0.2536326608    1.6592140545   -0.1027912695
 C    0.0092746434    0.1516392836    0.0461438608
 C    0.6534734007   -0.6552155049   -1.1035961542
 O    1.9597515366   -1.0610865980   -0.6413760641
 C    2.0276480060   -1.0301771657    0.7132022762
 O    2.9732034710   -1.4125290629    1.3373398133
 C    0.7323659114   -0.4425682380    1.2402746208
 C    0.6054311163   -0.0673061712    2.6494431737
 O    0.0311354047   -1.2819295128    2.1642531438
 H    1.3237748873    1.8803543422   -0.1779992484
 H   -0.2315684710    2.0407690068   -1.0063955626
 H   -0.1446081134    2.2113985183    0.7530165825
 H   -1.0614006345   -0.0549321725    0.1161292735
 H    0.0816258152   -1.5560504172   -1.3490032615
 H    0.7988581045   -0.0677678781   -2.0126156272
 H    1.4687603702   -0.1896518348    3.3000560177
 H   -0.1072211992    0.7069879507    2.9291528852