13

 O   -0.0852306259    1.4770094195    0.0398070696
 C   -0.0257336141    0.1156209662   -0.0260715461
 C   -1.1221883119   -0.9031605969   -0.1009287409
 O   -0.3831793350   -1.6952224790   -1.0616900165
 C    0.6247623223   -0.7334075282   -1.1126163613
 O    1.5633112549   -0.6938638680   -1.8322562532
 C   -0.3423142733   -0.8154204781    1.1847664311
 C    0.5263903736   -1.8457542014    1.6698691553
 C    1.2643343840   -2.6984597200    2.0853605565
 H    0.7073674357    1.8032951460    0.4824588365
 H   -2.1918766943   -0.8209482408   -0.2291351638
 H   -0.8662882400   -0.2371160131    1.9451383382
 H    1.9139867941   -3.4588690862    2.4428629045