19

 C   -0.1215852958    1.5690024639   -0.0754993145
 C    0.0377560648    0.0490730981   -0.0807819027
 O   -1.2639695178   -0.5728975078   -0.1499586895
 C    0.8822153821   -0.4879246852   -1.2171500860
 C    1.8546847060   -1.2967618071   -0.7878317347
 C    1.8743210608   -1.4162989659    0.6960936442
 C    2.1682221888   -0.1166228143    1.4527074798
 C    0.7564536901   -0.5057434750    1.1744785412
 O   -0.0575016862   -0.7866384221    2.2624706806
 H    0.8475002581    2.0724391240   -0.0652745410
 H   -0.6701523218    1.9014042080   -0.9631172358
 H   -0.6713185572    1.8850488475    0.8197892832
 H   -1.9134063050    0.0693736430    0.1547850227
 H    0.6802862978   -0.2202815804   -2.2476686812
 H    2.5788615638   -1.7898069817   -1.4275306696
 H    2.1047565755   -2.3568677840    1.1827016973
 H    2.4772131582   -0.2208921056    2.4880382575
 H    2.6355097787    0.7003042864    0.9121512378
 H   -0.8203247911   -1.2462069117    1.8841061007