15

 N   -0.2065274012    1.4272675474   -0.1667280111
 C    0.0207506672    0.0041033039   -0.0280237160
 C    0.8804621505   -0.4188922651    1.1495167839
 N    1.3777609058    0.4190547640    1.9728439923
 C    2.1544426141   -0.0830857010    3.0214018444
 N    2.6749136082    0.7146534472    3.8719096318
 C    2.2995681267   -1.5483471245    3.0369299609
 N    1.7861917657   -2.3622898525    2.1939330677
 O    1.0208261617   -1.7696111553    1.1739590244
 H   -0.6289050752    1.7843423671    0.6858619796
 H    0.6879988143    1.9052239167   -0.2315205293
 H   -0.9384538406   -0.5214565566    0.0578625528
 H    0.4900593635   -0.3903566529   -0.9378699163
 H    3.2085671851    0.1908694672    4.5681529405
 H    2.8874744640   -2.0283041955    3.8169640245