22

 C   -0.5683953715    1.3460769385    0.6320844830
 C   -0.7178729866   -0.1730874406    0.5262826530
 C   -1.4468507596   -0.6169214186   -0.7448820624
 O   -0.7713047582   -0.2013556702   -1.9283030242
 C   -1.6704864678   -2.1277645183   -0.8069436005
 O   -2.5172959707   -2.4963758951    0.2871235087
 C   -2.7924152999   -3.8100447889    0.4304410521
 C   -3.7002549511   -4.0213019409    1.6153461035
 N   -2.3103407457   -4.6723080616   -0.3668989297
 H    0.0055859710    1.6276353227    1.5198934355
 H   -0.0600505535    1.7475325923   -0.2487568250
 H   -1.5476482906    1.8327664700    0.6992513779
 H    0.2735235579   -0.6514922194    0.5410286673
 H   -1.2608869989   -0.5690354880    1.3911002150
 H   -2.4244147177   -0.1212239166   -0.7911416681
 H    0.1181153586   -0.5728000851   -1.9035676866
 H   -2.1414461997   -2.4049307844   -1.7545896021
 H   -0.7210723226   -2.6741020197   -0.7371112362
 H   -3.9332770472   -5.0790426526    1.7463094318
 H   -3.2260326174   -3.6431129815    2.5261742903
 H   -4.6315490512   -3.4628123509    1.4805470661
 H   -2.6191989175   -5.6072197614   -0.1111428092