15

 O    0.0394019428    1.3886026630    0.0094726858
 C   -0.0098356458   -0.0099873203    0.0024890053
 C   -1.4718971252   -0.4622882905    0.0119995569
 O   -2.3899900361    0.3242074542    0.0228351985
 C   -1.7117996084   -1.9178681449    0.0065892442
 C   -2.9168935975   -2.6040123462    0.0121486301
 C   -2.5611831495   -3.9613346139    0.0025887065
 N   -1.2352475575   -4.1270969450   -0.0080649934
 N   -0.7434424641   -2.8828560482   -0.0055405054
 H    0.9628932072    1.6565698743    0.0013128842
 H    0.4715720297   -0.4471866991   -0.8912922098
 H    0.4860756105   -0.4564917718    0.8836761258
 H   -3.8959831859   -2.1553592538    0.0217153515
 H   -3.2046827084   -4.8282551887    0.0030026278
 H    0.2556664384   -2.7634784090   -0.0122247680