18

 C   -0.1172848200    1.6060375456   -0.1382748756
 C   -0.0057971016    0.0754060094   -0.0646577201
 C    0.8453480410   -0.5309740221   -1.1680355542
 C    1.8235431810   -1.3113917708   -0.7061612396
 C    1.8360848109   -1.3233390438    0.7852115553
 N    2.0794036201   -0.0051851149    1.3843263179
 C    0.6794322700   -0.4371723265    1.2033735540
 C   -0.0787219013   -0.8057261241    2.4179863182
 O    0.4330271301   -0.9842421366    3.5010274686
 H    0.8685529896    2.0597936335   -0.0121317045
 H   -0.5265828077    1.9209606769   -1.1032186224
 H   -0.7776515918    1.9899864345    0.6458287592
 H   -1.0205989976   -0.3504870032   -0.1098524681
 H    0.6632221979   -0.3056599390   -2.2133883182
 H    2.5436107923   -1.8564312224   -1.3042938378
 H    2.0970386446   -2.2091319152    1.3555575620
 H    2.2816692615   -0.1389428931    2.3781844951
 H   -1.1753306192   -0.9176304382    2.2730544401