17

 C    0.4429534383    1.4536440564    0.0930816504
 O    1.0744799434    0.2433548611   -0.3275656360
 C   -0.2947595239    0.1793642722    0.0885783818
 C   -0.5482373828   -0.5874489107    1.3236589968
 C   -1.7799973522   -0.6781783551    2.2839109372
 C   -0.8439534180   -0.9742530408    3.4469476620
 C   -1.4140027200   -2.1161739044    2.6191690935
 C   -0.1893249837   -2.0326014501    1.6601753176
 C    0.3824752118   -0.8883519207    2.4883585077
 H    0.7957667466    1.8578144725    1.0401258290
 H    0.2639027458    2.1834138327   -0.6954619760
 H   -0.9972732834    0.0096577060   -0.7303802519
 H   -2.7451416040   -0.1894993384    2.2791667181
 H   -0.9664680154   -0.7560358106    4.4992253929
 H   -2.0521688768   -2.9355259884    2.9209995495
 H    0.3272986399   -2.7634637346    1.0530290147
 H    1.4137321148   -0.5939668970    2.6273609427