18

 O   -0.0416223097    1.4037831352   -0.1721226993
 C    0.0419686279    0.0123926143    0.1091627976
 C   -1.3549641811   -0.5635909183   -0.0197629966
 C   -2.0231336825   -0.6010982480   -1.4382513007
 C   -2.2132258100   -2.1153317247   -1.2713500398
 O   -3.3704401783   -2.7968477686   -1.6078292665
 C   -0.8945112324   -2.8047819317   -1.0821066440
 C   -1.5375225544   -2.0843659180    0.0910243767
 H    0.8444305193    1.7742493695   -0.1259885209
 H    0.7305816748   -0.4902202782   -0.5877907136
 H    0.4214168446   -0.1681835290    1.1285762947
 H   -2.0072219676   -0.0403109064    0.6851672421
 H   -2.9725071118   -0.0631700029   -1.4604937305
 H   -1.4070178112   -0.2731864416   -2.2820278467
 H   -3.2849564254   -3.1074836742   -2.5159162122
 H   -0.9673201879   -3.8860031534   -1.0173160450
 H    0.0161179848   -2.4408100666   -1.5522897672
 H   -1.7969187992   -2.6219969172    0.9950156117