18

 C   -0.1738779365    1.5938419688   -0.0923687445
 C   -0.0146058682    0.0982368247    0.0670048216
 N    1.1666791460   -0.5594651047   -0.7075824397
 C    2.1383323291   -0.1752358371    0.4366015767
 C    2.5565468748   -1.5852778951    0.8788946972
 C    2.2863511845   -1.5528673863    2.4237842742
 O    1.0471454430   -0.7769597640    2.5522495522
 C    0.8402754411   -0.5198018398    1.1867502930
 C    1.1447877733   -1.7333368555    0.2955554306
 H    0.7541614756    2.1301132368    0.1239103204
 H   -0.4759244580    1.8310889158   -1.1171133222
 H   -0.9479854448    1.9695808463    0.5844395928
 H   -0.9522125023   -0.4294033513   -0.1422249044
 H    2.7036574867    0.7545123873    0.4282050626
 H    3.4440825292   -2.1195223628    0.5373816600
 H    2.1258900748   -2.5507867632    2.8450604409
 H    3.0819658208   -1.0478741790    2.9815574987
 H    0.5264287208   -2.6143284907    0.1268638998