21

 C   -0.2681325170    1.5864749281   -0.0243384271
 C    0.0257332463    0.0800919118   -0.0201061219
 C    0.8026127979   -0.4528010311   -1.2486748126
 C    2.2454342846   -0.7265001179   -0.7579002001
 O    3.0840708311    0.4194199595   -0.8486603828
 C    2.0486140107   -1.2048299509    0.6968391435
 C    3.2696144322   -1.2282664032    1.6075245054
 C    0.9013564430   -0.3144554734    1.1855029576
 O    0.7248302982    0.0526328069    2.3201105477
 H    0.6384352741    2.1737167000   -0.2109750855
 H   -0.9876573411    1.8401381750   -0.8080839422
 H   -0.6746324339    1.8937836935    0.9425451613
 H   -0.9281545124   -0.4478982151    0.0988674020
 H    0.3597476398   -1.3858955780   -1.6121319558
 H    0.8143453347    0.2515142452   -2.0843575096
 H    2.7449310910   -1.4791158791   -1.3728740499
 H    2.7332717349    1.1146813200   -0.2812277358
 H    1.6103029770   -2.2147825399    0.6356582768
 H    3.8133862817   -0.2823157751    1.5488907407
 H    2.9598171726   -1.3798014706    2.6445778860
 H    3.9595239947   -2.0280060453    1.3239090523