16

 C    0.0507064735    1.5022250526   -0.1808595807
 O    1.4412843473    1.5237950312    0.2303589605
 C    1.3858438262    0.1633670518    0.6892446937
 C   -0.0160099459   -0.0312443949   -0.0435029038
 N    0.2552504327   -0.6633417235   -1.3515157405
 C    1.4661282080   -1.0148716581   -1.2725067907
 O    2.4895743654   -1.1621705647   -2.1638526269
 C    3.3947595621   -0.6072347482   -1.1162434755
 C    2.2897437782   -0.8213312183   -0.0418589106
 H   -0.5839331997    2.0467952513    0.5304094742
 H   -0.0869132033    1.8959134620   -1.1914927558
 H    1.4112350866    0.0956041280    1.7816263775
 H   -0.8701352496   -0.4627410057    0.4807102692
 H    4.2967049243   -1.2124493700   -1.0262094491
 H    3.6167717797    0.4361300324   -1.3445294448
 H    2.4649612046   -1.7305366361    0.5384084130