16

 C   -0.0328185705    1.4698532177   -0.1410200000
 O    0.0122799110    0.0843222815    0.2095574570
 C   -1.1960238771   -0.5545357530    0.0957328949
 C   -1.9501338933   -1.0234750718    1.1521202061
 O   -1.7437606588   -0.9754564035    2.4831308450
 N   -3.0407723365   -1.6138854631    0.6289676847
 N   -3.0469739169   -1.5741370847   -0.7438882462
 C   -1.9306116815   -0.9305198073   -1.0592969760
 N   -1.6028205539   -0.6220997164   -2.3818947354
 H    0.9851191323    1.8529996522   -0.0380692369
 H   -0.3749943974    1.6031460249   -1.1734962389
 H   -0.7038066751    2.0247821235    0.5271997087
 H   -0.8795291961   -0.5659591751    2.6162040782
 H   -3.7790402827   -2.0850564451    1.1194872847
 H   -2.1912407510   -1.1342378326   -3.0284466274
 H   -0.6266833724   -0.7995762472   -2.5857531085