17

 C   -0.6638509516    1.3306773845   -0.0207888333
 C    0.0927149778    0.0059973542   -0.0511572861
 C    1.2638094904   -0.0608879075   -1.0643134407
 C    2.2253455315   -1.0307898846   -0.4256921957
 C    1.9438411087   -1.2552417705    0.8548815231
 C    0.7290415236   -0.4563625462    1.3083748805
 C    1.1329571626    0.6517260459    2.1836703539
 N    1.4574652172    1.5228661638    2.8715232321
 H   -0.0066884997    2.1592342894    0.2599952497
 H   -1.0845891050    1.5502505028   -1.0072020745
 H   -1.4910503804    1.3043085640    0.6957153717
 H   -0.6075683558   -0.7940358532   -0.3166772637
 H    0.9254475836   -0.3782473571   -2.0566565855
 H    1.7391715099    0.9215870171   -1.1978729574
 H    3.0648236391   -1.4634289080   -0.9584404255
 H    2.5080739300   -1.8752325266    1.5404194612
 H    0.0179613081   -1.0651965280    1.8790889304