19

 C    0.1191325696    1.3694476562   -0.1682319452
 N   -0.0921528602   -0.0261921616    0.1497766760
 C   -1.4755894465   -0.4990899411    0.1382491863
 C   -1.3725080970   -1.8729466319    0.7936393299
 C   -0.4030049750   -1.6029398159    1.9553914018
 O    0.2184145079   -2.7178995073    2.5301163927
 C    0.5694700475   -0.5134261154    1.3575662191
 C    1.8829065733   -1.0980427679    1.0360070603
 N    2.8948303495   -1.5975242330    0.7844417514
 H    1.1900730146    1.5757080966   -0.2578008193
 H   -0.3459518176    1.5979752875   -1.1320745318
 H   -0.3036043351    2.0579705394    0.5876760212
 H   -2.1524782996    0.1574254206    0.7180685678
 H   -1.8528909914   -0.5316474514   -0.8889224691
 H   -2.3286918888   -2.2702673312    1.1391027719
 H   -0.9259857561   -2.5920004472    0.0977499647
 H   -0.9500782780   -1.1283535004    2.7757725932
 H    0.8152935704   -3.1126531158    1.8820830131
 H    0.7348595026    0.2794780498    2.1041448860