16

 C   -0.0172949452    1.4171079537   -0.1384029593
 C    1.3366478467    2.0169297363    0.1081197097
 C    2.4323751470    1.3116084433    0.3784647547
 C    2.4672137468   -0.1898949786    0.4750529572
 C    1.1227911532   -0.7894068814    0.2308031255
 N    0.7808224152   -2.0688197792    0.2359969367
 C   -0.5492144602   -2.0204592068   -0.0438910563
 N   -1.0501636249   -0.8076015566   -0.2207674504
 N    0.0433048435   -0.0266471876   -0.0395839127
 H   -0.7520204010    1.7940310455    0.5850923087
 H   -0.3938291132    1.6915252521   -1.1325191181
 H    1.3793168752    3.1002270814    0.0525393394
 H    3.3740740258    1.8266429588    0.5440867486
 H    3.1892566776   -0.6044473829   -0.2415367868
 H    2.8346131761   -0.5031368520    1.4617577639
 H   -1.1679411623   -2.9022774259   -0.1201203908