18

 O   -0.1690702485    1.4010078184   -0.1676401819
 C    0.0195869329    0.0251150061    0.0338845018
 C    0.1657537371   -0.5419775288    1.4776191345
 C   -0.5482867166   -1.7965967410    0.9078322811
 C   -1.2500395222   -0.8496151929   -0.1078630064
 O    0.4001413092   -2.6622114431    0.2965701148
 C    0.9865265785   -2.1168206464   -0.8803338709
 C    1.1448724803   -0.5792068936   -0.8257545499
 H    0.6843251157    1.8406608069   -0.0831121507
 H    1.1686085012   -0.6868464026    1.8877740206
 H   -0.4659587142    0.0074350693    2.1804455692
 H   -1.1565998007   -2.4123448407    1.5705642906
 H   -2.1082031383   -0.3568765630    0.3542541057
 H   -1.5311543325   -1.2319218844   -1.0914438461
 H    1.9509471319   -2.6166781192   -1.0073418020
 H    0.3680271235   -2.3788678081   -1.7503230227
 H    1.0893361368   -0.1737392943   -1.8420441535
 H    2.1169849759   -0.2931464726   -0.4037370540