20

 C   -0.2724639769    1.4031614665   -0.0431687385
 C    0.0671805631   -0.0652696346    0.1447394292
 O    0.6846933832   -0.5530730719   -1.0562645087
 C    1.6957910136   -1.5038233623   -0.7384130714
 C    1.6083296392   -1.7097942815    0.7673455931
 C    1.2427471065   -3.0220475239    1.3552315709
 N    2.5922204488   -2.4515260593    1.5412364109
 C    1.0588506262   -0.3931741997    1.2801256583
 O    2.1439049306    0.5166195306    1.3573644165
 H    0.6372973947    1.9859537759   -0.2102995270
 H   -0.9191968799    1.5293643112   -0.9152494362
 H   -0.8021336576    1.7969724756    0.8315752313
 H   -0.8578889809   -0.6360733188    0.3325213348
 H    1.5291333205   -2.4313331033   -1.3011796009
 H    2.6782594899   -1.0976438771   -1.0186784605
 H    0.6451806738   -3.0747115721    2.2618394818
 H    1.1127331621   -3.8611304446    0.6760939496
 H    3.2599865371   -2.9051891407    0.9215271542
 H    0.5521352372   -0.4969051667    2.2486467263
 H    1.8049684988    1.3659798667    1.6564594662