15

 O   -0.1253341704    1.3398577881    0.1020457370
 N    0.0207421590   -0.0439320585   -0.0662188192
 C   -1.1003108271   -0.6288229067   -0.0901631024
 C   -2.5490751078   -0.2692909719    0.0862349482
 N   -3.2683649926   -0.9022604773   -1.0671886617
 C   -2.9041394255   -1.7292171980    0.1016376770
 C   -1.4368292440   -2.1049648868   -0.1120561989
 C   -0.8126771238   -3.2558676188   -0.7572235808
 O   -0.7597670492   -3.0657715476    0.6688581484
 H    0.7896649932    1.6408980043    0.1218299544
 H   -2.9704928151    0.5649485792    0.6278431475
 H   -4.2517310636   -0.6481069843   -0.9590454381
 H   -3.6311389945   -2.2578060903    0.7032727886
 H   -1.4333121438   -4.0835098184   -1.0962556180
 H    0.1355092251   -3.1261130130   -1.2747408021