17

 C   -0.0366274309    1.5728082259    0.0103602263
 C    1.5221258976    1.5428330485   -0.0146174506
 C    2.0420545570    1.5067705036   -1.4561531810
 C    1.7174396528    0.0918890514   -1.8851747070
 C    0.5137276733   -0.5927692335   -1.3422517351
 C   -0.0090516332    0.0319015569   -0.0333665491
 C    1.4748021094    0.0182437377    0.3977532733
 N    1.8968018931   -0.8633614508   -0.7684470578
 H   -0.4252779124    1.9335143815    0.9671293980
 H   -0.5372948668    2.1076570567   -0.8030575241
 H    2.0488228187    2.2459799654    0.6309518621
 H    1.5736086235    2.2688666320   -2.0876040450
 H    3.1274200442    1.6555910048   -1.4974806290
 H    2.0961156601   -0.2708975867   -2.8368850120
 H   -0.0104532375   -1.3522519839   -1.9151351982
 H   -0.7780643818   -0.5561340086    0.4671592221
 H    1.8439161730   -0.3011441209    1.3698068571