15

 C   -0.1788838731    1.3889519589   -0.0290947445
 N   -0.0466966527   -0.0545898563    0.0174129159
 N   -0.1769534256   -0.8020272161   -1.0927971493
 C    0.0067669652   -2.0475613951   -0.6545658102
 C   -0.0494881700   -3.2327010655   -1.5570657164
 N    0.2482158538   -2.1359525848    0.6803020430
 C    0.2080382657   -0.8705955244    1.0715643078
 C    0.3978713498   -0.3851556579    2.3933475347
 N    0.5462797976    0.0519907547    3.4544261552
 H   -0.0365483235    1.7858990163    0.9765492140
 H    0.5749171032    1.8064880643   -0.7000872706
 H   -1.1730390740    1.6564281593   -0.3936075679
 H    0.8990309828   -3.7774405097   -1.5352843971
 H   -0.8311771249   -3.9258896948   -1.2324619577
 H   -0.2557906843   -2.9162832990   -2.5804637569