21

 C   -0.0132407561    1.4939805772    0.1497770024
 C    1.3651395357    2.1675077349   -0.0156242988
 C    1.8782404992    2.3646445480   -1.4563475659
 C    1.8379837596    1.0749617906   -2.3235368462
 O    1.8878897311   -0.0998490306   -1.5101087385
 C    0.5459508014   -0.5647024036   -1.3175955844
 C   -0.0086296308   -0.0403671234    0.0203853901
 C   -0.1958797042   -0.0233784313   -2.5170090191
 C    0.5392529096    0.9239716558   -3.0855212066
 H   -0.3952153392    1.7365749194    1.1485499675
 H   -0.7264260065    1.9295304685   -0.5603390488
 H    1.3301528885    3.1576951565    0.4545046271
 H    2.1069179366    1.5876474908    0.5445880803
 H    1.2948845549    3.1462501605   -1.9593986063
 H    2.9076092645    2.7373979692   -1.4028442074
 H    2.7110116071    1.0499213373   -2.9874219937
 H    0.5774314495   -1.6615500659   -1.2943638988
 H    0.6061316267   -0.4690693870    0.8213522622
 H   -1.0263390711   -0.4276989386    0.1639557004
 H   -1.1954597864   -0.3362051245   -2.7910469993
 H    0.2726749299    1.5501720462   -3.9278164462