16

 O   -0.5267670918    0.4414239076    0.6960595829
 C    0.0069280183    1.0940268585   -0.1715779371
 C    1.2312749620    1.9385486986   -0.0139471501
 C    1.7482123745    2.5384368879   -1.2898506842
 O    1.1386874028    2.5574139943   -2.3289542194
 C    1.4982821940    2.8147357860    1.1888334212
 C    0.9828232493    2.2197816373    2.4971015722
 C    1.8888268300    1.0077988905    2.1666908551
 N    2.3970189856    1.6695682915    0.9008681799
 H   -0.3915668410    1.1226403352   -1.2033047129
 H    2.7650899888    2.9740175750   -1.1893998016
 H    1.8059165715    3.8454487732    1.0294665066
 H    1.3173139582    2.7911752809    3.3646895106
 H   -0.0888820301    2.0350903573    2.5655416305
 H    2.7400529160    0.8975361206    2.8406484146
 H    1.4035072119    0.0469626355    2.0104781117