14

 N   -0.4087624694    0.9783846581   -0.6488229032
 C   -0.5587605681   -0.0679076651    0.0329087288
 O   -0.4396894905   -1.2793322571   -0.5679666542
 C   -0.7960735875   -2.4102846433    0.2050512031
 C   -2.2496963003   -2.7278987696    0.0498903935
 C   -3.2246688484   -2.2069974488   -0.7437167985
 N   -4.3741821199   -2.9062421615   -0.4556745396
 N   -4.1744388929   -3.7781287232    0.4169675468
 O   -2.7663722856   -3.6999109665    0.7905186370
 H   -0.4954616598    1.8015785575   -0.0567505376
 H   -0.7683668677   -0.1353387891    1.1093051967
 H   -0.1881492208   -3.2447232182   -0.1583543247
 H   -0.5554825843   -2.2675468369    1.2675344337
 H   -3.1897313147   -1.4176429663   -1.4732348119