15

 O   -0.1159311553    1.4152754689   -0.4432354926
 C    0.0322615512    0.1023081339    0.0772298607
 C   -1.3381547264   -0.5289561914    0.0717529485
 C   -1.8553381958   -1.2652765417   -1.1141254530
 C   -1.5513559320   -2.0411165935    0.1643936348
 C   -0.4171926550   -2.9916523330    0.1702008050
 O   -0.3775809194   -3.9982584708    0.8347256906
 H    0.7273914644    1.8694949654   -0.3551821767
 H    0.7348882572   -0.4876465681   -0.5306519798
 H    0.4264343202    0.1230417562    1.1053753444
 H   -2.0649502329    0.0481147233    0.6362458010
 H   -2.8963927649   -1.1640616845   -1.3968218707
 H   -1.1745550740   -1.4144505174   -1.9469903765
 H   -2.3892408399   -2.3714579736    0.7686616455
 H    0.4224234728   -2.7274604838   -0.5137840112