19

 C    0.0194255750    1.5380715325   -0.0284644215
 C   -0.0348446420    0.0308174047    0.0487847856
 C   -1.3190437516   -0.6836722886   -0.2280222369
 C   -1.4710441956   -1.7599823253    0.5445982506
 C   -0.3076049618   -1.9439359828    1.4957713291
 C    0.6303058154   -0.7953408868    1.1316291123
 C    1.2380455354   -0.7767174322   -0.2687283924
 C    1.2556834126   -1.9331814150   -1.1116574261
 C    1.2979795395   -2.9107245631   -1.8125010178
 H    1.0011516494    1.9169400686    0.2723565236
 H   -0.1735573525    1.8900428128   -1.0483801910
 H   -0.7312689762    1.9912877909    0.6286788203
 H   -2.0092555053   -0.3517354458   -0.9954957630
 H   -2.2957312098   -2.4613568120    0.4906089061
 H   -0.6237918036   -1.8830394849    2.5451797203
 H    0.1686707759   -2.9244922808    1.3666300571
 H    1.2142941604   -0.3225436590    1.9133323486
 H    2.1316556592   -0.1612355751   -0.3459693427
 H    1.3290397757   -3.7656930982   -2.4408637421