21

 C   -0.0898644041    1.4611339609    0.0658411404
 C   -0.0298270210   -0.0419460964   -0.0274046380
 C   -0.3798209120   -0.7732361122   -1.3143789575
 C   -0.1540383520   -2.1991412553   -0.8560773263
 C   -0.4936968534   -2.3444571968    0.6206331827
 C   -0.4081888656   -0.9017896060    1.1691950700
 C    1.0402149824   -0.8178813999    0.7228913815
 C    0.9567763978   -2.2714182589    0.1782350331
 C    2.0505072548   -3.2932320493    0.2290759061
 H    0.5923012801    1.9323642918   -0.6511462201
 H   -1.0999150912    1.8326669525   -0.1421369467
 H    0.1905689311    1.8074528743    1.0659779819
 H   -1.4158988740   -0.5888584270   -1.6241500620
 H    0.2819952098   -0.4884833879   -2.1416160982
 H   -0.3088083315   -3.0454663687   -1.5160053522
 H   -1.0463716168   -3.1724742434    1.0446745458
 H   -0.8752113918   -0.5170509673    2.0661253235
 H    1.8903888996   -0.3628701014    1.2152452484
 H    2.4441002736   -3.4112858032    1.2456114337
 H    1.6875480244   -4.2724830606   -0.1008103813
 H    2.8901766899   -3.0148607751   -0.4202628147