16

 O   -0.0381123879    1.4252756380   -0.0468404944
 C    0.0110848685    0.0468769049   -0.0326220178
 C   -1.1363517025   -0.9559241271    0.1208904905
 C   -0.6033326191   -1.7757318371   -1.0548821235
 C    0.6664659875   -0.8489770996   -1.1037039223
 N    1.9136825050   -1.4791369989   -0.6761607044
 C    1.9201583953   -1.8921798048    0.5201708558
 O    0.9313518968   -1.7866364917    1.4497512111
 C   -0.0634326036   -0.8046673288    1.1788586308
 H    0.7968572455    1.7666590145    0.2940011760
 H   -2.1759973325   -0.7814040345    0.3704766935
 H   -0.4066862946   -2.8349887726   -0.8719758493
 H   -1.2213160275   -1.6717025110   -1.9493329206
 H    0.8102540631   -0.3566629577   -2.0650446883
 H    2.7760446372   -2.4172153002    0.9388031390
 H   -0.3791740712   -0.3320603936    2.1013805539