15

 O   -0.1928920840    1.4115994944   -0.0383744354
 C    0.0149029496    0.0594209020   -0.0060467585
 C   -0.9707171809   -1.0812708174    0.0532810578
 N   -0.3823265738   -1.7269607484   -1.1124100160
 C    0.8280606390   -0.8371610590   -1.0007254462
 C    1.8342894316   -1.5314095053   -0.1212992442
 N    2.9675430512   -1.9762513698   -0.4531779255
 O    1.2569153610   -1.6679661179    1.1283391025
 C    0.0871599224   -0.8692689535    1.1598733544
 H    0.5330575485    1.8514755981    0.4195414360
 H   -2.0343769646   -1.1065815495    0.2606107607
 H   -0.1687567803   -2.7164213673   -0.9846323661
 H    1.2082321892   -0.4461504437   -1.9410608089
 H    3.4204289223   -2.4399788254    0.3368669233
 H   -0.2206010612   -0.5828939273    2.1569843761