21

 C    0.0488243278    1.4347859460    0.0572149129
 C   -0.0672092496   -0.0643791966   -0.1026871365
 C    0.8450707832   -0.7660224256   -1.1323742309
 C    0.3363606755   -2.1946184458   -1.0038167766
 C   -0.8292245323   -2.1909604273   -0.3267444362
 C   -0.7354807643   -2.3986316779    1.1907694427
 C   -0.6666472574   -0.8274556184    1.1667642071
 C   -1.3850815995   -0.7588556506   -0.1571736737
 C   -2.7491110457   -0.2608064028   -0.5292814902
 H    1.0213973261    1.7142518263    0.4785277768
 H   -0.0451841711    1.9363485941   -0.9135006337
 H   -0.7254673726    1.8402207679    0.7154475841
 H    0.7587955142   -0.2696505310   -2.1115819204
 H    1.9121176575   -0.7536354319   -0.8725556201
 H    1.0433994790   -3.0169548916   -0.9299223936
 H   -1.6507110537   -2.7044481998    1.7121936537
 H    0.1162003243   -2.9793286391    1.5568065122
 H   -0.8876177889   -0.2182851225    2.0416339044
 H   -2.9094270399    0.7587764989   -0.1633915784
 H   -2.8858818909   -0.2499625964   -1.6168836107
 H   -3.5366398518   -0.8947007757   -0.1061418231