15

 N   -0.0068754409    1.4130598867    0.1437907025
 C   -0.0014402830    0.0299110602    0.0473674132
 C   -1.1547517883   -0.6958340997    0.0343790984
 O   -2.3752322740   -0.1001280589    0.0512853179
 C   -1.1508873821   -2.1348108983   -0.0054729939
 N   -2.2599802842   -2.7721953467   -0.0250225041
 O    0.0723560833   -2.7681870645   -0.0327197481
 C    1.2203154168   -2.0445252488   -0.0199672221
 C    1.2397306298   -0.7035738963    0.0200243966
 H    0.7622697189    1.8820412658   -0.3116247710
 H   -0.9006672019    1.8321063541   -0.0723998879
 H   -3.0076286358   -0.8418105246    0.0197700884
 H   -2.1325578680   -3.7798792927   -0.0653233703
 H    2.0924870917   -2.6831800254   -0.0430070243
 H    2.1882564878   -0.1814421208    0.0415447847