17

 O    0.1073605489    1.4431247383   -0.0994484993
 C   -0.0150196917    0.0647403153    0.0306743006
 C    0.2060752755   -0.6626718442    1.3800659707
 C   -0.7529438127   -0.1453391246    2.5021583254
 N   -1.6302464818    0.9448506813    1.9445878759
 C   -2.3347207155   -0.1315213913    1.1608797219
 C   -1.3897237068   -0.6487319607    0.0268972381
 N   -0.8095677854   -1.7368124563    0.9491304832
 C   -1.7392146924   -1.2588235715    2.0503919510
 H   -0.4745268286    1.8056925221    0.5905063386
 H    0.6219506804   -0.4054157220   -0.7253501774
 H    1.2018820539   -0.9839292089    1.6884984697
 H   -0.3543682475    0.0176135807    3.5027985115
 H   -2.2547782640    1.2599237762    2.6843482382
 H   -3.3853299314    0.0440914765    0.9326751470
 H   -1.8599715450   -0.9571828863   -0.9078183073
 H   -2.2773269955   -1.9708060045    2.6776549524