18

 C    0.4429230435    0.4134076432   -0.6913644523
 O   -0.3243268594   -0.5354790604   -1.4367533709
 C   -1.6419984729   -0.7135783178   -1.1181825072
 N   -2.5416670011    0.1551950137   -0.9152576321
 C   -2.3429743982    1.5828511508   -1.1074720020
 C   -3.7232666494    2.2052147593   -1.3470955905
 O   -4.6048668348    1.8979753807   -0.2916031452
 C   -1.9749273302   -2.1104045563   -1.0677830388
 C   -2.2408286373   -3.2822194517   -1.0346565156
 H    1.4795613892    0.0778173886   -0.7580246610
 H    0.3650390674    1.4227807406   -1.1039679170
 H    0.1344427840    0.4263681206    0.3586733707
 H   -1.9151705830    2.0290762408   -0.2000987180
 H   -1.6716033817    1.8036904219   -1.9486886186
 H   -3.6375210893    3.2959976386   -1.3977027358
 H   -4.1111353967    1.8521525057   -2.3166301846
 H   -4.5182487107    0.9432027039   -0.1646115229
 H   -2.4858450596   -4.3154429623   -1.0022600784