21

 C   -0.3397455169    1.3581213281    0.1383070921
 O    0.3595197359    0.1640256896   -0.1299569034
 C    0.8621652398   -0.4558362140    1.0235259190
 C   -0.0704567616   -1.3697881571    1.8472029842
 C    0.0103449815   -2.5191460056    0.7802529493
 C    0.3969845340   -3.5656031861    1.8502228545
 C    1.1981838544   -4.7948653139    1.4497609304
 C    1.1350973670   -2.2751055914    2.2772812464
 C    1.4358807539   -1.8539477564    0.7940307020
 H    0.2977436645    2.0958440252    0.6511391490
 H   -0.6563060306    1.7743330636   -0.8212002778
 H   -1.2312438765    1.1852392503    0.7599470769
 H    1.4839771418    0.2455417185    1.6041088930
 H   -0.9350376248   -1.1263081226    2.4666557732
 H   -0.6333006099   -2.6305262625   -0.0918990977
 H   -0.4295074532   -3.8418964668    2.5182707430
 H    2.0279722807   -4.5384846879    0.7830502552
 H    1.6193009680   -5.2948999739    2.3292713084
 H    0.5657012602   -5.5230663841    0.9296563610
 H    1.7889131943   -2.1041037874    3.1348211169
 H    2.2990709874   -2.1365952257    0.1920572944