23

 C    0.0275363864    1.5088523034   -0.2299608408
 C    0.0238189907    0.0216303556    0.1261391547
 O    0.5423941081   -0.1916967149    1.4392199423
 C   -1.3605384189   -0.6172338889   -0.0436791082
 C   -1.3673925463   -2.1282447604    0.2169886060
 C   -2.7542300317   -2.7321791752    0.1503987065
 C   -3.3896577045   -3.0648770302   -1.1894757331
 C   -2.9614056752   -4.1641536545   -0.2477705161
 O   -1.8169581589   -4.9151037214   -0.5386964667
 H    1.0223532391    1.9347841495   -0.0734083048
 H   -0.2604006568    1.6691319396   -1.2741145133
 H   -0.6834473794    2.0604117859    0.3986427145
 H    0.7341264248   -0.5019691825   -0.5269413801
 H   -0.0289927196    0.2816744382    2.0546467783
 H   -2.0620054142   -0.1157059565    0.6415400532
 H   -1.7301426435   -0.4119364909   -1.0566583948
 H   -0.7192081667   -2.6336753524   -0.5065595472
 H   -0.9273301607   -2.3181217152    1.2022496103
 H   -3.4390509207   -2.3659214377    0.9123246582
 H   -4.4475559813   -2.8805423941   -1.3432437649
 H   -2.7703512744   -2.9203842711   -2.0697447026
 H   -3.7449497641   -4.7190909437    0.2688510361
 H   -2.0223518321   -5.4897561726   -1.2831291875