17

 O    0.2385204964    1.4041785682   -0.1222934257
 C    0.1058698254    0.0002340170   -0.0843215417
 C    0.6827516254   -0.5668845969    1.2368545898
 C   -0.2022331225   -1.4799753452    1.6762931398
 C   -1.4433892048   -1.2141284364    2.4958470467
 C   -2.2025764568   -0.3956339685    1.3485706892
 C   -2.3557377494   -1.8931667166    1.5247585616
 C   -1.1426811590   -1.9890259041    0.5529875360
 C   -1.3617317203   -0.5486295777    0.0276614115
 H   -0.1528778825    1.7538654110    0.6869660863
 H    0.5503108968   -0.3517276066   -1.0239155799
 H    1.2528104920    0.1053309838    1.8722668922
 H   -1.6065082262   -0.9474953538    3.5331207300
 H   -2.9092344534    0.3828883248    1.6116711372
 H   -3.2343460980   -2.5067121708    1.6614402171
 H   -0.8759403312   -2.8317593224   -0.0800951644
 H   -1.9792214019   -0.4012582259   -0.8639609357