16

 C   -0.2023697691    1.2511776024   -0.0234324558
 N    0.0869624442   -0.1719935973    0.1336984715
 C    1.4868818238   -0.5217536624   -0.1440217001
 C    0.9653763830   -0.4852403591    1.2618074705
 C    1.0454842723   -2.0320924524    1.3615835667
 C    1.6063955528   -2.0668980528   -0.0708276724
 O    0.4521058980   -2.8216413865   -0.5358715702
 C   -0.1287331341   -2.8020761014    0.7212539499
 O   -1.1529732231   -3.2993981316    1.0513075227
 H    0.6306876929    1.9114830817    0.2691772508
 H   -0.4480992939    1.4479297894   -1.0707375160
 H   -1.0734519892    1.5015882013    0.5884443097
 H    2.1342550420    0.1654293512   -0.6742806962
 H    1.1423180959    0.2283489435    2.0561201440
 H    1.5479035900   -2.4719675418    2.2194905172
 H    2.5509971044   -2.5247603240   -0.3561760422