18

 C   -0.0270353717    1.4141399693    0.2303404587
 O   -0.0466342702    0.0597875730   -0.1897858184
 C   -1.2988052851   -0.5706369748   -0.0625528705
 C   -1.2234534550   -1.9358898776   -0.7563452441
 C   -0.9174148240   -1.7904260476   -2.2598712077
 C   -0.8579830388   -3.0787016708   -2.9373114122
 C   -0.8134589906   -4.1540304122   -3.4717965030
 C   -1.6806312862   -0.7286854641    1.3610637274
 N   -1.9718550273   -0.8426187404    2.4734297648
 H    0.9829791657    1.7840533702    0.0461116427
 H   -0.7441629602    2.0203056167   -0.3424359161
 H   -0.2568858384    1.5087576129    1.2996577458
 H   -2.0841817777    0.0415552351   -0.5391875212
 H   -0.4453496552   -2.5329853781   -0.2727136571
 H   -2.1736799786   -2.4582493579   -0.6133846417
 H   -1.6866257944   -1.1634189088   -2.7309782675
 H    0.0315004284   -1.2576373955   -2.3800633090
 H   -0.7701890808   -5.0979308795   -3.9561126909