19

 C   -0.0127228435    1.6500110006    0.0409585341
 C   -0.0031394738    0.1100979093    0.0186714041
 C    0.6738170138   -0.4367459435   -1.1527831919
 C    1.2487961142   -0.8613880848   -2.1244570527
 C    1.8908912620   -1.3556542933   -3.3126546560
 C    3.2342247131   -2.0216833475   -3.2271792834
 N    2.0590821349   -2.7998695288   -3.5733010372
 C    1.5688995163   -3.7393773907   -2.5735687811
 H    1.0068022208    2.0447752951    0.0458136516
 H   -0.5240185675    2.0478824221   -0.8397018214
 H   -0.5290330750    2.0144331878    0.9339973959
 H    0.4826819903   -0.2653204283    0.9286255987
 H   -1.0354510003   -0.2618306879    0.0531242906
 H    1.6649018440   -0.7917276185   -4.2153067761
 H    3.9635541880   -1.8727533772   -4.0194618909
 H    3.6521161078   -2.1354173618   -2.2280972805
 H    1.6769211626   -3.3852911424   -1.5378160070
 H    0.5089051160   -3.9392186403   -2.7575536732
 H    2.1199429762   -4.6785062796   -2.6838432137