18

 O    0.1252235027    1.4264666362    0.0088227944
 C    0.0662817383    0.0211284602   -0.0243415732
 C   -1.3859440333   -0.5198293940   -0.0187100266
 C   -1.4268816889   -2.0568381070   -0.1277865067
 C   -2.8574444989   -2.6251126176   -0.2106600199
 C   -2.8676247529   -4.0753187727   -0.3515394967
 C   -2.8456769838   -5.2711541459   -0.4674383523
 C   -2.0636965751   -0.0405650871    1.1899211336
 N   -2.5549534252    0.3570889273    2.1585488304
 H   -0.1953486671    1.7231423332    0.8683456756
 H    0.5410102546   -0.2880402154   -0.9603932124
 H    0.6247089523   -0.4386973166    0.8045729306
 H   -1.9031586842   -0.0754264939   -0.8785390499
 H   -0.8692117054   -2.3484596429   -1.0236260997
 H   -0.9099079091   -2.5007936175    0.7290165072
 H   -3.4184705689   -2.3370766571    0.6871036182
 H   -3.3839002205   -2.1696918399   -1.0598094903
 H   -2.8424211746   -6.3282557192   -0.5677396822