16

 C    0.0012665452    1.4343109327    0.0087898692
 N   -0.0936247605   -0.0087749737    0.0027725353
 C   -1.2593599450   -0.6774246906    0.0098283893
 O   -2.3816708806   -0.1908483119    0.0219245768
 C   -1.0320085383   -2.2044854598    0.0006571621
 O    0.0902943682   -2.6910805893   -0.0114046746
 N   -2.1977522149   -2.8731094388    0.0076512324
 C   -2.2926830718   -4.3161950229    0.0016694267
 H    0.5361221187    1.7921429415    0.8952404557
 H    0.5206636444    1.8005892230   -0.8833872956
 H   -1.0141275928    1.8335934574    0.0195037140
 H    0.7296670342   -0.5962979445   -0.0071439307
 H   -3.0210215202   -2.2855580319    0.0175080820
 H   -2.8275700875   -4.6740005924   -0.8847689423
 H   -1.2773165333   -4.7155447680   -0.0090429734
 H   -2.8120793759   -4.6824382809    0.8938605631