18

 C   -0.0059438832    1.5156161240    0.0079992608
 C   -0.0375694813    0.0078711320    0.0546308572
 C   -1.2203117246   -0.6821476459   -0.6018690848
 C   -1.0434246244   -2.2044291027   -0.6064723343
 N   -0.7217337211   -2.6913356988    0.7275566144
 C    0.1150687449   -2.0669087826    1.6056705010
 O    0.4029506013   -2.5220745206    2.6976141678
 C    0.6307039302   -0.7241259551    1.1502622633
 O    1.2161511180   -0.6489854228   -0.1634485355
 H    0.8837734251    1.8989067603    0.5127933149
 H    0.0096956177    1.8662209152   -1.0297320809
 H   -0.8929647612    1.9370576653    0.4923634149
 H   -2.1342814808   -0.4071133573   -0.0614266756
 H   -1.3334459112   -0.3308670995   -1.6339973947
 H   -1.9709751935   -2.6838533124   -0.9314351550
 H   -0.2582874358   -2.4742953447   -1.3226637823
 H   -1.0097583627   -3.6186789257    1.0005165650
 H    1.1706163727   -0.1889057087    1.9274167137