25

 C   -0.2411616920    1.5264851939    0.0394217508
 C   -0.2941409903    0.0247054306   -0.2617920930
 C    0.7640910095   -0.4865780957   -1.2735648904
 C    0.6105912240    0.2048047507   -2.6308598207
 O    2.0795744759   -0.1015629298   -0.8424621015
 C    0.6799478341   -2.0322989777   -1.3622203453
 C    1.2520450287   -2.7695634709   -0.1588787269
 C   -0.5180709123   -2.6746302799   -2.0242410875
 C    0.8388506656   -2.7540727802   -2.6807659418
 H    0.7744007936    1.8342578668    0.3034754929
 H   -0.5601231976    2.1299493779   -0.8153675605
 H   -0.9022905200    1.7725227254    0.8761499024
 H   -0.1636309893   -0.5254077150    0.6789798655
 H   -1.2890063285   -0.2509147156   -0.6293916146
 H    0.6379436490    1.2880548240   -2.5007990665
 H    1.4413981422   -0.0668752287   -3.2852368422
 H   -0.3301782616   -0.0576444598   -3.1218382404
 H    2.1922854773   -0.3934784573    0.0678201667
 H    0.7704853902   -2.4797754330    0.7820095183
 H    1.1091143240   -3.8482722879   -0.2705622936
 H    2.3287616127   -2.5933779281   -0.0630500945
 H   -0.9323942795   -3.5691791226   -1.5706073770
 H   -1.2635394956   -2.0365994008   -2.4871405709
 H    0.9945279663   -2.1840054523   -3.5875775345
 H    1.3606040635   -3.7054430040   -2.6677203548