19

 O   -0.0459706230    1.5021174723    0.1416888846
 C    0.0572996035    0.0880456694    0.0607465118
 C    0.7355167827   -0.5167131857    1.2958662090
 C    0.5456442439   -2.0087818405    1.3650076193
 C   -0.4047505117   -2.6603238888    0.6946345373
 C   -1.4048385425   -1.9865400965   -0.2193832540
 C   -1.3647291000   -0.4509276181   -0.0893765665
 C   -1.1209408571   -2.4463933461   -1.6473315885
 O   -1.7099320479   -3.3333926842   -2.2070134999
 H    0.8421524220    1.8636544242    0.2268335646
 H    0.6439528402   -0.1975115859   -0.8282510633
 H    1.8067353908   -0.2736693852    1.2959429825
 H    0.3165304461   -0.0371851334    2.1920257361
 H    1.2180817677   -2.5651975377    2.0133004628
 H   -0.4917886395   -3.7401554978    0.7789378985
 H   -2.4081763266   -2.3606683618    0.0142122033
 H   -1.9380668764   -0.1504934017    0.7946411808
 H   -1.8421496595    0.0269468699   -0.9516582827
 H   -0.2861008928   -1.9044438225   -2.1493680358