19

 C    0.0317096442    1.5231359954   -0.0408585433
 C   -0.0258612307    0.0084767588    0.0263918206
 O    0.5697190133   -0.5413746721   -1.1614891755
 C    0.1128640733   -1.8938062416   -1.1611116459
 C    0.9529755869   -2.6756235404   -0.1196536601
 C    1.1639423188   -1.8454532202    1.1279325197
 C    0.7133322735   -0.5939068487    1.2198183256
 C   -1.3340973188   -1.7543267916   -0.7067319719
 C   -1.4227784687   -0.6289183229   -0.0052519612
 H    1.0705061585    1.8615044727   -0.0944153542
 H   -0.4995877165    1.8834690732   -0.9253633181
 H   -0.4281417266    1.9628195597    0.8499793057
 H    0.2375801125   -2.3038806002   -2.1671974905
 H    0.4631143794   -3.6259186002    0.1362470417
 H    1.9249948090   -2.9403698207   -0.5558680194
 H    1.6894214066   -2.3128648324    1.9568368110
 H    0.8349847589   -0.0008967526    2.1216281836
 H   -2.1005593946   -2.5019529848   -0.8655910487
 H   -2.2737983190   -0.2447593516    0.5424236510