21

 C   -0.1044542214    1.5481024909    0.0270213575
 C   -0.0145958238    0.0546917727    0.0021089422
 C   -0.1418986410   -0.7442607427   -1.0614983923
 C    0.0136423691   -2.2039518149   -0.7256962183
 C   -1.0847053978   -3.1127455059   -1.2396126362
 O    1.3323577914   -2.7251803862   -1.0924414019
 C    1.7995960987   -2.5941101503    0.2645000108
 C    0.4061808290   -2.1791088062    0.7816699904
 C    0.2339176257   -0.7355011234    1.2762539610
 H    0.8272726141    1.9919571464    0.4004199594
 H   -0.3042281545    1.9597490998   -0.9656696994
 H   -0.9000587040    1.8845775657    0.7042166549
 H   -0.3282833856   -0.4033626252   -2.0750977937
 H   -1.0959945068   -3.1112698544   -2.3349970472
 H   -0.9226972394   -4.1411843411   -0.9044097215
 H   -2.0651642039   -2.7742048183   -0.8885313952
 H    2.1984907510   -3.5410205531    0.6470944547
 H    2.5717529791   -1.8185320228    0.3648706357
 H   -0.0756149190   -2.9255947445    1.4144721336
 H    1.1171973062   -0.3693244120    1.8174960230
 H   -0.6097139971   -0.6321432246    1.9726694626