23

 C   -0.6006859305    1.4099104773   -0.0432868009
 C   -0.0193780457   -0.0023387501   -0.0161937371
 C    1.0434671439   -0.2804140289   -1.1026522146
 C    1.8739623264   -1.4865412152   -0.5844810448
 C    1.3743963057   -1.7558046921    0.8608949009
 C    0.6673128135   -0.4544935990    1.2981824633
 C    1.6622834664    0.5807556480    1.8723607602
 C    2.1973744741    0.1309218404    3.2102816817
 O    3.3539925188   -0.0950684444    3.4595100343
 H    0.1808952446    2.1727566298    0.0389478621
 H   -1.1310414053    1.5911221071   -0.9840683292
 H   -1.3149785339    1.5689171356    0.7723690410
 H   -0.8477137892   -0.7079468253   -0.1727683512
 H    0.5831277025   -0.4721854202   -2.0761854593
 H    1.6819172618    0.6012661451   -1.2308815948
 H    1.7470123677   -2.3715454549   -1.2136249083
 H    2.9424710582   -1.2537028863   -0.5928603031
 H    0.6456383509   -2.5735151282    0.8598182329
 H    2.1830893635   -2.0498833651    1.5358084231
 H   -0.0877482424   -0.6556538627    2.0687117835
 H    2.5075765356    0.7564956516    1.2006441055
 H    1.1437527147    1.5352667695    2.0344896397
 H    1.4106374487    0.0007320879    3.9921138551