16

 O    0.0655059746    1.4198977000    0.1429181124
 C    0.0894792244    0.0089602667   -0.0053586635
 C   -1.3133421829   -0.5875727914    0.0213067986
 C   -1.5526954449   -2.0946163197    0.0844713613
 C   -1.4732869841   -2.5751718865    1.5089954751
 N   -2.7584455573   -1.9676328207    0.9382841203
 C   -2.1353388517   -0.5789370573    1.3353386659
 C   -1.2837240389   -1.3530611672    2.3453801301
 O   -0.8466356749   -1.1210408444    3.4360177526
 H   -0.1152966859    1.6186549507    1.0672365034
 H    0.5509439507   -0.1879404013   -0.9794308282
 H    0.7248280384   -0.4660563787    0.7566171660
 H   -1.9155537443   -0.1624426756   -0.7876030478
 H   -1.5171363998   -2.8155643188   -0.7256540529
 H   -1.3956603707   -3.6216224720    1.7736460057
 H   -2.7763324926    0.2459591061    1.6351416611