23

 C   -0.0287734146    1.6138538478    0.0410644734
 C   -0.0109872708    0.0836915955   -0.0017501416
 C    0.7234491137   -0.4773555683   -1.2244506888
 C    0.7320223980   -2.0081466138   -1.2754288742
 C    1.4714316897   -2.5661277684   -2.4954646518
 C    1.4105702666   -4.1035059753   -2.5624296973
 O    0.0896660624   -4.5658208640   -2.6485835045
 C    2.2224379229   -4.6141081861   -3.7335378500
 O    1.7352972033   -5.3040233443   -4.5969438835
 H    0.9879591923    2.0217893987    0.0693848589
 H   -0.5250734904    2.0287241806   -0.8434066219
 H   -0.5597517153    1.9833649816    0.9239190714
 H    0.4594190434   -0.3039796490    0.9116550485
 H   -1.0410935087   -0.2961995561    0.0048641764
 H    0.2559515968   -0.0857803312   -2.1387992312
 H    1.7570661590   -0.1026000709   -1.2303037992
 H    1.1963442883   -2.4035949055   -0.3610662491
 H   -0.2962165300   -2.3864983436   -1.2876877823
 H    1.0295522385   -2.1639816769   -3.4160843598
 H    2.5232816876   -2.2493485156   -2.4759941453
 H    1.8958366211   -4.5031693120   -1.6511049084
 H    0.0530608682   -5.0996472696   -3.4580216864
 H    3.2905374179   -4.3147869434   -3.7597300132