17

 N    0.1399970270    0.6748720951   -1.1732490468
 C    0.0624985941   -0.0889421079   -0.1714058588
 O    1.1422547930   -0.3880276422    0.6080733931
 C    0.9653619392   -1.2992798590    1.7001792947
 C    0.8351543938   -2.7425175235    1.2056570695
 C   -0.1294240659   -2.8261238151    0.0194752012
 O   -1.3257213651   -2.0763404854    0.2665907210
 C   -1.2653723515   -0.7143610138    0.2011525528
 N   -2.2629256548    0.0209945522    0.4404188765
 H    1.0982122409    1.0188427387   -1.2762829190
 H    1.8478817841   -1.1729066808    2.3297576716
 H    0.0886152778   -1.0075718923    2.2886967428
 H    1.8098826013   -3.1314810164    0.8916191471
 H    0.4813556406   -3.3653896616    2.0344301761
 H    0.3492687763   -2.4691786519   -0.8989881397
 H   -0.4599245335   -3.8519657837   -0.1525665209
 H   -3.0772734174   -0.5573994125    0.6626942888