19

 C    0.1267839094    1.4940417348   -0.1929314781
 C   -0.0739379979   -0.0100949269    0.0240556409
 C   -1.5628814695   -0.3637721177    0.1125426305
 O    0.5057046905   -0.7216900050   -1.0986665753
 C    1.5400074318   -1.5950178765   -0.6788339214
 C    1.6235440911   -1.4264548191    0.8051494218
 C    0.7162554552   -0.5335733582    1.2120270876
 C    0.5206528646   -0.1262137494    2.6055764036
 O   -0.3005300679    0.6819810849    2.9821905373
 H    1.1907510742    1.7306110990   -0.2827734435
 H   -0.3738573322    1.8038351820   -1.1147777345
 H   -0.2903434250    2.0566731768    0.6458896927
 H   -2.0695289659   -0.0602062279   -0.8080915642
 H   -1.6947733494   -1.4420986223    0.2385907018
 H   -2.0244019874    0.1496952416    0.9596116436
 H    1.3083219984   -2.6355124514   -0.9606414689
 H    2.4906097355   -1.3379168284   -1.1747432045
 H    2.3251122826   -1.9612973730    1.4354120224
 H    1.2020892018   -0.6275674633    3.3279789481