14

 C   -0.0168410186    1.4610579619    0.1306350871
 C   -0.0120952532   -0.0206296148   -0.0459395506
 N   -0.0893058903   -0.6134663207   -1.1604016086
 C   -0.0766855949   -2.0475940756   -1.1857294038
 O   -0.1494746428   -2.6288259719   -2.2362273299
 N    0.0167843563   -2.7237543573    0.0369120750
 C    0.0993906424   -2.0271340478    1.1084314727
 N    0.2392422416   -2.5717505008    2.3361541211
 O    0.0892531978   -0.6634547897    1.1761347894
 H    0.9030488337    1.7858402292    0.6273264600
 H   -0.0995517068    1.9370838698   -0.8449396060
 H   -0.8556362907    1.7640455687    0.7655131202
 H    0.1126240262   -3.5673649242    2.4060340290
 H    0.0915613993   -1.9997925567    3.1496660745