20

 C   -0.0208057399    1.5046175075    0.3084241675
 C   -0.0069585003    0.0170854323   -0.0755080786
 C   -1.3867758956   -0.5476278978   -0.2367554473
 N   -2.2572418228   -0.8583645935    0.9353352071
 C   -1.9354892174   -1.9227673532   -0.0603920631
 C   -2.9966278969   -1.7166295426   -1.1431372267
 O   -4.3305171478   -1.8287932764   -0.7394967474
 C   -2.3983054084   -0.2490076004   -1.3537331008
 O   -3.2419454116    0.8529613133   -1.1880540552
 H    0.9954921369    1.9058850953    0.3588327245
 H   -0.5866687537    2.0891428128   -0.4227217621
 H   -0.4925500740    1.6540755697    1.2849552687
 H    0.5367892293   -0.1140452621   -1.0197210335
 H    0.5425410002   -0.5630628771    0.6781941116
 H   -1.6540522058   -0.9934963342    1.7450745641
 H   -1.4392736472   -2.8339220198    0.2526139519
 H   -2.8636795327   -2.3447487528   -2.0266318812
 H   -4.3661363660   -1.4603977060    0.1531469880
 H   -1.9241539695   -0.1492748002   -2.3338601593
 H   -3.5807741370    0.8010297251   -0.2858061883