15

 O   -0.2550471052    1.4508456965    1.0688466680
 C    0.0121474258    1.6072281386   -0.0908819407
 C    1.4384736691    1.5853802380   -0.6349284875
 C    1.6714011913    2.7365417144   -1.6048105033
 O    0.9217839488    2.9654783770   -2.5214351284
 C    2.8829281513    3.6212473651   -1.3135501977
 O    3.1782489829    4.5081448320   -2.3694180605
 C    2.3269851473    5.5484465012   -2.5591330372
 O    2.4543500819    6.3121204940   -3.4632916300
 H   -0.7621246451    1.7833713532   -0.8645512625
 H    2.1479174245    1.5643838998    0.1955880911
 H    1.5486014632    0.6583625298   -1.2143464730
 H    2.6978605949    4.1499888552   -0.3646548608
 H    3.7721093641    3.0018567255   -1.1641385578
 H    1.5472285451    5.6157359898   -1.7783456495