20

 C   -0.0108874599    1.4364066107    0.0301329887
 N    0.1017366842   -0.0022572893    0.0082745478
 C    0.0568145273   -0.7699540081   -1.1449190588
 C    0.0186202347   -2.0946566044   -0.7770649645
 N    0.0363742440   -3.2494654160   -1.5816231937
 C    0.0401241910   -2.1328613368    0.6485030685
 N   -0.0250113393   -3.3550698193    1.3761366076
 C    0.0921225005   -0.8282407405    1.1100899588
 C    0.1164649181   -0.3130175384    2.5100966124
 H    0.6413745095    1.8657657855    0.7962931795
 H    0.3009256345    1.8334979318   -0.9386488423
 H   -1.0380298404    1.7735821277    0.2259490809
 H    0.0555617330   -0.3024029512   -2.1163997459
 H   -0.4601818029   -3.1242171596   -2.4550090677
 H   -0.3791780379   -4.0218152945   -1.0703992970
 H    0.8879345391   -3.7901652572    1.4767926784
 H   -0.4031792834   -3.2221693876    2.3065519253
 H    0.9556651350    0.3708880147    2.6895065386
 H   -0.8005675181    0.2213436169    2.7930373347
 H    0.2328962307   -1.1494170346    3.2054253987