16

 O   -0.2353765839    1.4317816937    0.1591686206
 C   -0.1222870391    0.0522950019    0.0192421462
 C   -0.5337626519   -0.8394786223    1.1788363920
 O   -0.9415624485   -0.2158069982    2.3698433107
 C   -2.1950048197    0.3296703896    2.3924657009
 N   -3.0440452230    0.4397610635    1.4715069283
 C   -2.7429325979   -0.0562065387    0.1342201490
 C   -1.4037188495   -0.7582618607   -0.0365526275
 O   -1.3957849788   -1.9156610857   -0.8248021411
 H    0.1710315980    1.6847629538    0.9961451293
 H    0.7056704622   -0.3001422852   -0.5954805770
 H    0.0209454791   -1.7500235569    1.3718066707
 H   -2.3974153802    0.7052949465    3.3929334228
 H   -3.5161319103   -0.7843327484   -0.1349063603
 H   -2.8398896445    0.7883780995   -0.5592610758
 H   -1.4444880118   -1.6448393625   -1.7490398887