19

 O   -0.9212573405    1.0988877950    0.0591503245
 C    0.2275055547    0.7429960572    0.0489464258
 C    1.4239107296    1.6910787267    0.0629388799
 C    1.1460196472    2.9401105303    0.9057003542
 C    2.1888716457    4.0262153776    0.8158637076
 C    3.5139954238    3.8772501245    0.8461236280
 C    4.2863597875    2.5857581817    0.9814401606
 C    3.7970733760    1.4125358161    0.1282561589
 O    2.5217731634    0.9174757530    0.4985883602
 H    0.5219485489   -0.3286421334    0.0124741454
 H    1.5817729111    2.0016457121   -0.9876151786
 H    0.1700848406    3.3228031381    0.5930219155
 H    1.0254263822    2.6210720815    1.9510452666
 H    1.7985162527    5.0397521188    0.7551811692
 H    4.1196044116    4.7800882677    0.8075889313
 H    5.3363127371    2.7636714801    0.7201038778
 H    4.2872428794    2.2633955984    2.0329047301
 H    3.7930140067    1.6990236438   -0.9355000371
 H    4.4833678622    0.5680001208    0.2491595901