21

 C   -0.1052355543    1.6047070935   -0.0115750401
 C    0.0013758258    0.0847218864   -0.0555925903
 C    0.7469844533   -0.5355662278   -1.2763809569
 C    0.3475008214   -1.9973607988   -1.6662593698
 C    1.6270022720   -2.5592692926   -0.9589932072
 C    1.7999899856   -1.1919781765   -0.3221362274
 O    3.0289894366   -0.5996920887    0.0687159555
 C    2.3783044293    0.0690668429    1.1830279818
 C    1.0244477216   -0.6229739411    0.8945712535
 H    0.8556581950    2.0897397322   -0.2121022068
 H   -0.8118712296    1.9602793562   -0.7693245845
 H   -0.4591213085    1.9530200522    0.9652724126
 H   -1.0002241968   -0.3426354933    0.0698954694
 H    1.0191776935    0.1193918400   -2.1060593577
 H   -0.5891021749   -2.3279950761   -1.2093508818
 H    0.2935712366   -2.1902812222   -2.7388562387
 H    1.5260325483   -3.4267615426   -0.3002577139
 H    2.4257953908   -2.7569883492   -1.6810004966
 H    2.8430653422   -0.2142949860    2.1339284285
 H    2.4096766051    1.1595453016    1.0830861026
 H    0.6298155069   -1.2394922401    1.7034824376