18

 C    0.0243415860    1.4528953951    0.3962525271
 C   -0.0476142186   -0.0358977117    0.1423501878
 C   -1.2822828151   -0.6648996850   -0.3405822689
 O   -0.1819797753   -0.4369960335   -1.2224838902
 N    1.3528050240    1.9921509683    0.1798568247
 C    2.1510020280    2.5705962910    1.1390341010
 C    3.3340074743    2.9453209002    0.5471272490
 C    3.2518820528    2.5792766539   -0.8250643356
 C    2.0225911455    1.9950901958   -1.0222125811
 H   -0.6982045008    1.9580584716   -0.2556594301
 H   -0.2561579685    1.6628012382    1.4330881522
 H    0.6573629458   -0.6376007001    0.7168586701
 H   -1.4848936182   -1.7074074219   -0.1018814940
 H   -2.1636046926   -0.0513844407   -0.5245594036
 H    1.8002286538    2.6690566782    2.1545056341
 H    4.1614238466    3.4307722092    1.0414495998
 H    4.0073342134    2.7276909191   -1.5814800416
 H    1.5635889590    1.5686471922   -1.8993626405