21

 O   -0.2410548356    1.5675288544    0.1175195401
 C   -0.0099378757    0.1649639427    0.1774368576
 C   -1.3524796959   -0.5270701497    0.0089479035
 C   -2.0400192572   -0.2789687550   -1.3529159190
 C   -2.9424057619   -1.5201322840   -1.6090269115
 C   -2.7226515886   -2.4592797184   -0.4005612864
 C   -1.3234365012   -2.0752367757    0.1451170323
 C   -0.2531086359   -2.7021234921   -0.6279865900
 C    0.6145170026   -3.2300579312   -1.2730650020
 H    0.6109939832    2.0120440236    0.1432894263
 H    0.6752289146   -0.1632126441   -0.6178553172
 H    0.4420014323   -0.1208909367    1.1416348325
 H   -2.0109332563   -0.1618010089    0.8074188369
 H   -2.5984175348    0.6588817011   -1.3471594678
 H   -1.2819578713   -0.1887320424   -2.1376763254
 H   -3.9970594094   -1.2535625299   -1.7179470897
 H   -2.6459328212   -2.0206421785   -2.5347996464
 H   -3.4605032935   -2.2552144331    0.3831902655
 H   -2.7955070671   -3.5184797960   -0.6565883222
 H   -1.2131002707   -2.3718418749    1.1946839302
 H    1.3842512937   -3.6984141611   -1.8348290471