22

 C   -0.0623755680    1.6084076881    0.0414047445
 C    0.0214728256    0.0954963612   -0.0150426173
 C    0.4882061412   -0.7097926085   -1.1812461224
 C    1.4179613380   -0.1173663537   -2.2458854334
 C    2.8083260572   -0.0129620851   -1.5827830191
 C    4.0031989788   -0.5096591249   -2.3630519459
 C    2.9855528237    1.0712525463   -0.5454601331
 C    2.5738371121   -0.3270563915   -0.1211588834
 N    1.2102619857   -0.7788529677    0.1067524022
 H    0.3693726018    2.1101372306   -0.8267435146
 H   -1.1202199385    1.8884577266    0.0799053976
 H    0.4134851127    2.0092807235    0.9422039817
 H   -0.7975297342   -0.3578367697    0.5439755842
 H   -0.0770343757   -1.5951441714   -1.4682730610
 H    1.4684990349   -0.7965060648   -3.1023179253
 H    1.0659847613    0.8459706290   -2.6332942080
 H    4.1929180720    0.1137589935   -3.2452777372
 H    4.9092692652   -0.4905112012   -1.7490127431
 H    3.8548522579   -1.5393255205   -2.7096064659
 H    4.0106516192    1.3397895812   -0.3041986130
 H    2.3032843776    1.9042946908   -0.4927174165
 H    3.2992701617   -0.8979013118    0.4500288789