19

 C   -0.0597031416    1.4768902255   -0.0901300159
 N    0.0858998536    0.0210628523   -0.0255820212
 C    0.6811577795   -0.5004119584    1.1497622042
 C    0.0968804215   -0.5672404620    2.6304252232
 N    1.0876288226   -1.6869163935    2.8483507870
 C    0.8697805297   -2.0283278190    1.3896523580
 C    2.3658489125   -0.9266115243    2.7548866169
 C    2.0968637810   -0.0478838456    1.5169160558
 O    2.8045320303    0.7657706348    0.9864310941
 H    0.9288487074    1.9370192503   -0.0604289149
 H   -0.5339676185    1.7418556763   -1.0387535635
 H   -0.6677947392    1.9016601056    0.7264145609
 H   -0.8056652524   -0.4307999779   -0.1956696706
 H    0.2042633598    0.2853319746    3.3063053947
 H   -0.9270555338   -0.9493911163    2.6552594871
 H   -0.0581601062   -2.5944530232    1.2689780903
 H    1.6962526951   -2.5467669035    0.8956681787
 H    2.5424504269   -0.3352694606    3.6579588349
 H    3.2172102418   -1.5967762051    2.6051279702