18

 C    0.4810932557    1.4412986231    0.0434602067
 O    1.0696830251    0.2133011429   -0.3931777013
 C   -0.2864035180    0.1845443335    0.0577408247
 C   -0.5587454824   -0.5724869980    1.3041947191
 C    0.4877284176   -0.9329663605    2.3214937839
 C   -0.2587697228   -2.0379650435    1.6166141600
 C   -1.7146804621   -2.2046601933    2.1399381355
 N   -1.9390495706   -1.2485124331    3.2562852694
 C   -2.0109463244   -0.7917933832    1.8445364028
 H    0.8687138125    1.8330356320    0.9822044248
 H    0.3068655886    2.1773180666   -0.7402873093
 H   -1.0117928321    0.0336835155   -0.7454484401
 H    1.5004793042   -0.7931187448    1.9577724355
 H    0.3251508832   -0.7417946262    3.3742098505
 H    0.2316760090   -2.7624935191    0.9798989282
 H   -2.3282865970   -3.0886283689    2.0270716652
 H   -2.8997107266   -1.3821662524    3.5714863709
 H   -2.9025177700   -0.3229539705    1.4477096935