18

 O   -0.0381071046    1.3564677467    0.3718697456
 N    0.0576418635   -0.0465512285    0.4247299291
 C   -1.0092164057   -0.5892681770    0.0130418893
 C   -2.3597548718   -0.1180425011   -0.4792089936
 C   -2.8063568463   -1.6149329538   -0.5370924765
 C   -2.9327985873   -2.2152004210   -1.9375141243
 O   -1.5995576101   -2.3430300633   -2.4179892854
 C   -0.8173962398   -2.7960534860   -1.3206126572
 C   -1.3608600322   -2.0587161235   -0.0830130414
 H    0.8198584037    1.6312138675    0.7124953158
 H   -2.9022353930    0.5139765193    0.2296602413
 H   -2.3326455890    0.3934340741   -1.4468716844
 H   -3.6328250377   -1.8752028740    0.1239483248
 H   -3.4249518533   -3.2010436133   -1.8887907482
 H   -3.4823785867   -1.5867604933   -2.6441471990
 H   -0.9319882820   -3.8839188126   -1.1840113293
 H    0.2302008465   -2.5746582966   -1.5366332468
 H   -1.2522769843   -2.6370786735    0.8362927201