21

 C    0.0602678777    1.4156829985    0.0812478461
 O    0.0117099740   -0.0002036374    0.0512493039
 C    0.6608476590   -0.5625545306   -1.0428951681
 O    2.0466434246   -0.2828453609   -0.9480061880
 C    2.8328196935   -1.0145884921   -1.8838427898
 C    4.2437471322   -0.4507308993   -1.8266259452
 C    2.7616080634   -2.5144738366   -1.5650856075
 C    1.3432365084   -2.9308020828   -1.2796634662
 C    0.3824505852   -2.0418057151   -1.0484618841
 H    1.0836837477    1.7822299447    0.2143619923
 H   -0.3519934813    1.8465497556   -0.8442073238
 H   -0.5536586052    1.7344796852    0.9263083925
 H    0.2777669318   -0.0955091420   -1.9773769382
 H    2.4189334681   -0.8586029092   -2.8956751924
 H    4.6535509210   -0.5592714179   -0.8176098951
 H    4.8979335520   -0.9797512679   -2.5265336038
 H    4.2433323552    0.6116141047   -2.0844578899
 H    3.1673920597   -3.0911544392   -2.4062792892
 H    3.4006473057   -2.7430864207   -0.7000327946
 H    1.1216910436   -3.9949407820   -1.2634239832
 H   -0.6452680764   -2.3306656851   -0.8545583255