17

 C    0.0515481142    1.4498881868    0.0631346667
 N    0.0193519914    0.0031440560    0.0580048673
 C   -1.0795636265   -0.6179392712   -0.0295928913
 C   -2.4865880815   -0.0757482045   -0.1393676971
 O   -1.1025636387   -1.9747500537   -0.0337804621
 C    0.1755587898   -2.6173616311    0.0657575967
 C   -0.0256908413   -4.0578148566    0.0474104636
 C   -0.1527234917   -5.2517983963    0.0353347285
 H    0.6721197562    1.8030096862   -0.7691055481
 H   -0.9276429160    1.9419448940   -0.0130955446
 H    0.5340753297    1.7998609214    0.9835237822
 H   -2.5935390627    0.5476220653   -1.0317372557
 H   -3.1976774509   -0.8993641271   -0.1974475979
 H   -2.7324400155    0.5434000455    0.7281453000
 H    0.8148492416   -2.2936403234   -0.7636389885
 H    0.6770569548   -2.2966737677    0.9861085764
 H   -0.2684440327   -6.3073065735    0.0243899141