23

 O   -0.0833241484    1.4841558040    0.1191612782
 C   -0.0100373600    0.0566087189    0.0117120127
 C    0.7441432297   -0.4958119696    1.2399135664
 C    0.6276451415   -1.9981360394    1.5340756828
 C    1.0909602105   -2.9307696596    0.4125211812
 O    0.4546756732   -2.7137332434   -0.8340023269
 C   -0.9573267041   -2.8860433149   -0.8543774226
 C   -1.6692308775   -1.5656727135   -1.1524750099
 C   -1.4634099657   -0.4340403424   -0.1323257154
 H    0.8142229444    1.8160760717    0.2259988946
 H    0.5369240924   -0.2119047366   -0.9008044779
 H    1.8064927496   -0.2286515220    1.1409499662
 H    0.3652345138    0.0567506442    2.1087695360
 H    1.2241241415   -2.2336289169    2.4247908661
 H   -0.4069533826   -2.2378421999    1.8049019554
 H    2.1586383242   -2.7807646433    0.2147481056
 H    0.9604573637   -3.9774715214    0.7341099936
 H   -1.1928541048   -3.6122446210   -1.6442186233
 H   -1.3145310253   -3.3162701617    0.0913104322
 H   -1.3331579150   -1.2181010581   -2.1376056509
 H   -2.7425557004   -1.7753191547   -1.2471293340
 H   -1.8718223490   -0.7191423180    0.8457603017
 H   -2.0457135715    0.4311830877   -0.4633855416