17

 N    0.2833536277    1.0885993313    0.0770694594
 C    0.0811074262   -0.1439218381    0.1129901973
 O    0.9893662449   -1.2074180009    0.2622637056
 C   -0.0832209160   -2.1554866743    0.0072453332
 C   -1.1273209211   -2.0846441633    1.0663042033
 C   -0.9220595638   -1.8265764362    2.5303488467
 C   -0.2007802510   -2.8300085443    3.3599706348
 N    0.3798989164   -1.5023424963    3.1263464238
 C   -1.1025530794   -1.0357989449   -0.0609397331
 H    1.2702898747    1.3132709595    0.2104352730
 H    0.1413664869   -2.9737476776   -0.6635503373
 H   -1.9353862408   -2.7917518807    0.8745978428
 H   -1.7494667594   -1.2881084863    2.9894691050
 H   -0.5217405043   -3.0257966056    4.3793417617
 H    0.2322583292   -3.6864173033    2.8478079880
 H    1.1054327224   -1.5520008496    2.4174700034
 H   -1.9395266526   -0.8642537193   -0.7211980874