20

 C   -0.1173520565    1.5740700575    0.0121606731
 N    0.0505118675    0.1397437612    0.0750568085
 C   -1.1671543846   -0.6978100041    0.3794893194
 C   -0.2205958175   -1.5875729030    1.2025442146
 C    0.4886918594   -2.2895228373    2.3824076218
 C    1.5660934235   -1.7586534385    1.3228943076
 C    3.0364554073   -2.0449680106    1.2634956335
 O    0.7118399730   -2.3030619139    0.2723341003
 C    0.7367546370   -0.4163930571    1.2705347394
 H    0.8587363774    2.0496912595   -0.1299945289
 H   -0.7446082471    1.8364612197   -0.8464681694
 H   -0.5828754160    2.0105717287    0.9179230278
 H   -1.9072854158   -0.1678862735    0.9979469813
 H   -1.6464262755   -1.1526587647   -0.4913737164
 H    0.4271618051   -1.8118620799    3.3641446307
 H    0.4165088023   -3.3770531295    2.4247283008
 H    3.2193126510   -3.1240811743    1.2821885419
 H    3.4571281696   -1.6371186798    0.3396060702
 H    3.5514825953   -1.5879543390    2.1139387710
 H    0.7456093648    0.2355343785    2.1520615128