16

 N    0.2307209220    1.2973426351    0.2549457150
 C   -0.2110948305   -0.0688649198   -0.0336421782
 C   -1.6803703984   -0.1135073647   -0.0896137921
 N   -2.8314991165   -0.1516343887   -0.1755354827
 C    0.3704698381   -0.6670851728   -1.3142105278
 N    1.8075028349   -0.9215023934   -1.2525427266
 C    0.8795666057   -2.0743958072   -1.3778644124
 C    0.7923247091   -2.9816040284   -0.2668238886
 C    0.6984787958   -3.7570413786    0.6467656742
 H    1.2473979118    1.2930299067    0.2719755752
 H   -0.0523810582    1.9221115817   -0.4953623809
 H    0.1076946183   -0.7023964107    0.8017369579
 H   -0.0473696618   -0.2634763975   -2.2352675156
 H    2.2502039025   -0.7371127149   -2.1487535539
 H    0.8140003765   -2.5501733084   -2.3539187399
 H    0.6182526706   -4.4397887683    1.4566203764