14

 O   -0.0000929558   -0.0418249091    0.0711387329
 C   -0.0702731764    1.1445794673   -0.0095936055
 C   -1.1844362827    2.2051916501   -0.0962406826
 C   -0.0443606475    3.2591616526   -0.0546609322
 C    0.2896850682    4.0677233705    1.2240630003
 N    1.4913360048    3.4320049405    1.8070554649
 C    1.7733467882    2.4017333452    1.1195439994
 N    0.9574458759    2.1507829339   -0.0130665249
 H   -1.8022834055    2.1705379087   -0.9959599140
 H   -1.8310529011    2.1929963488    0.7854126258
 H    0.0426303110    3.8567538581   -0.9639769327
 H    0.5041717535    5.1150593833    0.9953564810
 H   -0.5112630580    4.0593977070    1.9735389212
 H    2.5774099856    1.7139297231    1.3565500065