19

 O    0.0638084783    1.2655602210   -0.6039977491
 C    0.0505370471    0.1560728686    0.2786625877
 C   -1.3246519927   -0.4533691133    0.3736134956
 O   -1.7489654391   -1.1436774123   -0.8294979052
 C   -1.5601270397   -1.8997230480    0.3556194717
 C   -0.6048893755   -3.1125625807    0.3835867308
 C   -1.7443994420   -3.9326518002    1.0142299265
 C   -2.2089075489   -3.2818895552    2.2831146211
 C   -2.6787248701   -2.7159893280    0.9656280080
 H   -0.2832706721    0.9478019835   -1.4455333674
 H    0.7726626147   -0.6142807148   -0.0309845491
 H    0.3621376326    0.5364600178    1.2577152702
 H   -2.0943343358    0.1944936542    0.7958841774
 H   -0.3661353243   -3.4211725034   -0.6369411189
 H    0.3204785987   -3.0298137407    0.9630704957
 H   -1.9711799170   -4.9643349499    0.7784447183
 H   -2.9631086560   -3.8254077067    2.8431026067
 H   -1.5120454861   -2.7228179512    2.9038911427
 H   -3.7236773423   -2.6472139706    0.6909302470