12

 O   -0.0432204888   -0.0330834527   -0.1352595832
 C   -0.0427466100    1.1400458114    0.0260990419
 C   -0.9597564375    2.3809246975    0.0527294687
 C   -0.0163391600    2.9821747099    1.1292311168
 C    0.9382657054    2.3747187623    0.0617028251
 N   -0.0027692360    2.9863371809   -0.9751249215
 C    2.3671273787    2.4571009602   -0.0294941174
 N    3.5211853211    2.4836572977   -0.0936886786
 H   -2.0375900903    2.4760880829   -0.0417344613
 H   -0.0065022383    4.0724514258    1.1299519490
 H   -0.0120626012    2.5361708962    2.1230734365
 H    0.0085012869    2.4451959377   -1.8450968259