15

 O   -0.0848303739   -0.0166693553    0.0288949011
 C   -0.0083362115    1.1925105591    0.0435554234
 N    1.1602889205    1.8999435315   -0.0262714529
 C    2.4448113234    1.3317825175   -0.0699299169
 C    3.3961512727    2.2728506856   -0.0083427997
 C    2.7736753199    3.6272533981    0.0238311479
 C    1.9332108972    4.0043903553   -1.1870871146
 C    1.2754224472    3.3401425580   -0.0067157446
 H   -0.8869588537    1.8618210713    0.1136415223
 H    2.5183821601    0.2585158285   -0.1515758986
 H    4.4598457370    2.0865893787    0.0041350085
 H    3.2013970676    4.4165459956    0.6318030253
 H    1.7076483813    5.0563323607   -1.3227147230
 H    2.0672697703    3.4361584304   -2.1006280270
 H    0.5426370120    3.8691582851    0.5901371289