16

 C   -0.0297867016    1.4371090846    0.0903866157
 C    1.4283427482    1.9592765928    0.0166672382
 N    2.2999449511    1.4164919440    1.0622027142
 C    1.9790202208    0.0895468817    1.3623543393
 C    0.9113128562   -0.5823572549    0.8083543886
 N    1.0141228819   -1.8302353153    1.3326069365
 N    2.0826396046   -1.9237474406    2.1574235701
 N    2.6643941204   -0.7528349300    2.1784996084
 N   -0.1182391577   -0.0342889963    0.0389739903
 H   -0.4869366139    1.7685076954    1.0300150722
 H   -0.6209066210    1.8492396604   -0.7312664731
 H    1.8450767397    1.6849894777   -0.9620290328
 H    1.4378193535    3.0506803759    0.0778460760
 H    2.3752947629    2.0055982925    1.8814335046
 H    0.4314861664   -2.6370422582    1.1797077498
 H   -0.1298072215   -0.3762478296   -0.9163456180