19

 C    0.1274713539    1.3462531167    0.5429333834
 N   -0.0904981408   -0.0801251448    0.3831731733
 C   -1.1961733279   -0.6107754315    0.1468844969
 C   -1.5785963897   -2.0802901891   -0.0188660269
 C   -1.2608750301   -2.9894147728    1.1611298093
 C   -3.0496848457   -1.5983773885   -0.1884198423
 N   -2.5704223947   -0.2085714554   -0.0474920176
 C   -3.3128344668    0.9379270412   -0.1228642238
 O   -2.9158279540    2.0760455005   -0.0164451711
 H    0.8908347203    1.6616231586   -0.1777044583
 H   -0.7693686867    1.9586553488    0.4153992123
 H    0.5517413101    1.5210131798    1.5386713143
 H   -1.1720171709   -2.4955603174   -0.9454941608
 H   -1.6927628500   -2.5976181108    2.0879271810
 H   -1.6534178283   -3.9983394730    0.9994635591
 H   -0.1785308998   -3.0577731064    1.2992165637
 H   -3.5108853605   -1.8071151628   -1.1573809144
 H   -3.7235476159   -1.9062310988    0.6169436971
 H   -4.3787140724    0.6934335458   -0.3048316952