17

 O   -0.6542707473    0.8810372110    0.7649125169
 C    0.0544887589    1.0330540137   -0.1958598452
 C    1.3339023289    1.8370710319   -0.2182144048
 C    1.2561377840    3.0050128671   -1.2289028654
 C    0.2756824009    4.0981731964   -0.8284308827
 C    0.8463362688    5.3039091989   -0.7811792798
 C    2.3041164245    5.1953967494   -1.0913685393
 O    3.0241863828    4.3716776106   -0.1403888791
 C    2.5732641646    3.7737131033   -1.3558249812
 H   -0.2105276220    0.5734680594   -1.1789032275
 H    1.5530120331    2.2130766261    0.7829272535
 H    2.1432466841    1.1606071882   -0.5272522901
 H    0.9859239619    2.5956524750   -2.2138911965
 H   -0.7540565681    3.8786477258   -0.5684602854
 H    0.3560082844    6.2333662025   -0.5205666959
 H    2.8781922513    6.0121444494   -1.5171924862
 H    3.3548344593    3.4185874013   -2.0227394213