23

 C   -0.0458084014    1.5575664723   -0.0513035276
 C   -0.0154265344    0.0317020635    0.0939973920
 C   -1.3760530019   -0.6050056421   -0.0265400642
 C   -2.2939291049   -0.5391249206   -1.2824866350
 C   -3.0483334681   -1.6494412242   -0.4887276055
 C   -1.6391073053   -2.1348949527   -0.0285300373
 C   -3.4963542577   -0.8269849414    0.7337323235
 C   -4.0073806006   -1.5853006651    1.9479572017
 O   -2.2529850202   -0.1409779542    1.0276177811
 H    0.9545525999    1.9826059939    0.0729142848
 H   -0.4140243560    1.8535875890   -1.0393653812
 H   -0.7053916804    2.0004474257    0.6989073947
 H    0.6401702107   -0.4094647669   -0.6661099220
 H    0.4044453487   -0.2414159932    1.0701277429
 H   -2.8160563200    0.4018223795   -1.4746968019
 H   -1.8125397110   -0.9112492416   -2.1889858812
 H   -3.7825503783   -2.3101653804   -0.9487652485
 H   -1.1023775104   -2.6615614722   -0.8199827103
 H   -1.5388608327   -2.6621012899    0.9225203257
 H   -4.2475902331   -0.0802720849    0.4385685236
 H   -3.3253750795   -2.3858110343    2.2465527317
 H   -4.1175844960   -0.9021796445    2.7955352965
 H   -4.9883885675   -2.0246481356    1.7363378966