18

 C   -0.0959536684    1.5724651427   -0.0176559143
 C    0.0689842498    0.0507862360   -0.0085250726
 C    0.7502487599   -0.4973795093   -1.2849888295
 C    2.2194604229   -0.1086263580   -1.2613063649
 O    2.6884855120    0.8227942061   -1.8590010916
 C    0.5856887313   -2.0359262460   -1.3645084226
 O   -0.7644906858   -2.4536542865   -1.3317430082
 C    1.2750890177   -2.5786411261   -2.5536337123
 N    1.7942910431   -2.9852649721   -3.5025418562
 H    0.8633468357    2.0852789082   -0.1321769944
 H   -0.7403601944    1.8924626457   -0.8430529515
 H   -0.5534722526    1.9128890490    0.9155911566
 H    0.6545491609   -0.2604684570    0.8677488961
 H   -0.9045202111   -0.4393351703    0.0841315790
 H    0.3011454809   -0.0401724350   -2.1743298012
 H    2.8494313260   -0.7337771523   -0.5843795456
 H    1.0467025073   -2.4876769485   -0.4777035085
 H   -1.1937057052   -2.1610376365   -2.1445905681