21

 O    0.2520513886    0.6846641675   -0.9466931332
 C    0.0744018346   -0.2540613431    0.1067938844
 C   -1.1313852441   -1.1173103907   -0.2433945632
 C   -1.4624337908   -2.1279251187    0.8569376928
 O   -1.7644549581   -1.4607408201    2.0886999480
 C   -2.5799325722   -3.1191386579    0.5432991326
 C   -3.6471052748   -2.8942613361   -0.5169379339
 C   -2.6380186990   -4.0057807562   -0.6662075340
 O   -1.6082022841   -3.9023844181   -1.6089212922
 H    0.9882101691    1.2571299977   -0.7128148210
 H    0.9649080777   -0.8938101802    0.2230739065
 H   -0.0976746947    0.2468395863    1.0693928797
 H   -1.9927214827   -0.4557059471   -0.4077950518
 H   -0.9423578482   -1.6447266368   -1.1813819620
 H   -0.5587928254   -2.7063641073    1.0888795072
 H   -2.5718306563   -0.9538243490    1.9438903339
 H   -2.9229393152   -3.5949756243    1.4579489827
 H   -4.6789027584   -3.1416325187   -0.2911186333
 H   -3.5184430432   -2.0435459529   -1.1772241817
 H   -2.9870430763   -5.0255388880   -0.5029731160
 H   -1.9944115464   -4.0073685062   -2.4846458054