20

 O    0.0668520973    1.3938562571    0.1825539494
 C    0.0539898355   -0.0131190481    0.0645976114
 C   -1.3684712563   -0.5527476261   -0.0283768797
 C   -1.4396497550   -2.0788098244   -0.1538197016
 C   -2.8398659728   -2.5959303800    0.1507664870
 N   -3.1760577929   -2.7431790662    1.5806140278
 C   -3.8331977346   -1.6924968642    0.7946859900
 C   -3.4266688331   -0.2685966597    1.1129277348
 O   -2.0225445375   -0.1041065441    1.1582060174
 H   -0.5650349426    1.5948937257    0.8837581924
 H    0.6093076064   -0.2699979069   -0.8437379622
 H    0.5576186720   -0.4963104609    0.9178126931
 H   -1.8644297324   -0.0876341016   -0.8976659663
 H   -1.1479988608   -2.3671447678   -1.1697308602
 H   -0.7296950347   -2.5426987893    0.5398138741
 H   -3.2244070098   -3.3541018160   -0.5269795699
 H   -3.8090718966   -3.5275353004    1.7121580755
 H   -4.8837532237   -1.8153713801    0.5372891347
 H   -3.8659444606    0.4032881069    0.3551950066
 H   -3.8020611178    0.0320842359    2.0965491056