18

 O   -0.3676954469    0.3469428934   -0.8906123719
 C   -0.2342923237    1.3951544668   -0.3322492751
 C   -1.1900867493    2.0879646965    0.6347209708
 C   -0.6797592161    3.5364182284    0.6940920570
 C    0.8134075970    3.3371063198    0.3452462932
 O    0.8754435692    2.1712158293   -0.4897639020
 C   -1.3788284491    4.4332417356   -0.3063655120
 C   -2.5658083536    5.2277752238    0.0896897928
 N   -1.2806630169    5.8963277780   -0.1948084136
 H   -2.2203990781    1.9834479080    0.2915036761
 H   -1.1104512446    1.5857214068    1.6049892533
 H   -0.7849300842    3.9702749293    1.6940329140
 H    1.2392211913    4.1729796955   -0.2142061323
 H    1.4221423575    3.1612662814    1.2400366345
 H   -1.3219964582    4.0831544701   -1.3368232944
 H   -3.3559801754    5.4294719275   -0.6273906624
 H   -2.8997144409    5.1616835739    1.1226256497
 H   -0.8283156780    6.1477513259    0.6821815222