16

 O   -0.0636698405   -0.0094989826   -0.0177493907
 C   -0.0353670360    1.1899056480   -0.0112630789
 N   -1.0216749979    2.1514914978   -0.0216006304
 C   -0.1217454724    3.3021819345    0.0791553372
 C    1.0577811085    2.2887039860    0.0296680264
 C    2.2104432366    2.3300866753    1.0871014058
 C    3.2069330007    2.4656963656   -0.0764003952
 O    3.0290171468    1.3186957436   -0.9107668402
 C    2.1241701542    2.4097266030   -1.0720968529
 H   -2.0277214127    2.0792709536    0.0088111082
 H   -0.1821518884    3.9977038674   -0.7654751987
 H   -0.2041135041    3.8602866550    1.0179879069
 H    2.1517456067    3.2158754590    1.7245971560
 H    2.3362036307    1.4343857881    1.6988226077
 H    4.1721970143    2.9568962175   -0.1015472132
 H    2.0231671335    2.8412729283   -2.0617272080