16

 C   -0.0327928606   -1.2162942209   -0.0106174820
 C   -0.0152735377   -0.0132010248    0.0026145745
 C   -0.0059856043    1.4205377120    0.0307839859
 C   -0.3734856626    2.2256285058   -1.2528867990
 O    0.8751319615    2.9595235648   -1.2089166978
 C    1.2946187598    2.2841850180   -0.0216443098
 C    0.9059014742    2.9281487123    1.3342850642
 N   -0.4283998511    3.5479577783    1.1606190110
 C   -0.3332028426    2.0989235703    1.3976711246
 H   -0.0438151125   -2.2778569778   -0.0316529948
 H   -0.4352715758    1.6020712828   -2.1503439955
 H   -1.2407947614    2.8837432426   -1.1662148687
 H    2.2954523867    1.8506411326   -0.0790189027
 H    1.5728497429    3.2602045515    2.1202311645
 H   -0.6721703609    3.9876229729    2.0470924086
 H   -0.8223769755    1.6173500896    2.2346447572