17

 O   -0.0684427185   -0.0388657262    0.0214694910
 C    0.0000744104    1.1732696374    0.0226998834
 C    1.2414050345    1.9309232933   -0.0432863722
 C    1.3571465158    3.2713034216    0.0558945040
 C    2.7815333766    3.6564718267   -0.0157298561
 C    3.8124964544    2.8717650867    0.8561240167
 C    3.2553403934    1.5480465912    1.3567431324
 C    2.6264213822    1.3248772736   -0.0760579925
 C    3.5573723675    2.4833551430   -0.5745549843
 H   -0.9195011859    1.8002464086    0.0618903612
 H    0.5401180512    3.9704491781    0.1942768214
 H    3.0795611847    4.6690982312   -0.2591084849
 H    4.6428827185    3.4236105754    1.2798748369
 H    4.0707740048    0.8412179992    1.5269120636
 H    2.5727403619    1.5377037871    2.2121775390
 H    2.7009349103    0.3269706225   -0.4995655341
 H    4.1952471479    2.5151760307   -1.4492302654