18

 C    0.1025482863    1.5172536391   -0.0478020788
 C   -0.1124817771    0.0108818702   -0.1428108648
 N    0.6941388920   -0.5543224801   -1.2191192192
 C    0.7990516444   -1.9112697844   -1.3283997805
 N    0.4985155922   -2.8086438579   -0.4351987079
 C    0.8704550544   -4.0057948430   -1.0432366250
 C    1.3673495510   -3.7854095204   -2.2773071632
 N    1.8590047271   -4.6098452226   -3.2798034034
 O    1.3228565939   -2.3881119651   -2.4776685807
 H    1.1543863896    1.7516182305    0.1394943595
 H   -0.1990183923    2.0219768283   -0.9732583281
 H   -0.4972227191    1.9351917904    0.7653747460
 H    0.1923513659   -0.4851615097    0.7821012667
 H   -1.1805345314   -0.2164975921   -0.2807965901
 H    0.6551398457   -0.0706702228   -2.1045692897
 H    0.7493729274   -4.9564997640   -0.5485063598
 H    1.3084534691   -4.5712219652   -4.1319008833
 H    2.8256382808   -4.4105403413   -3.5173258278