18

 O    0.5446277174    0.7145479005    0.7745371040
 C    0.2335402801   -0.3566261244   -0.0590031698
 C   -1.2415531029   -0.9001346368   -0.1962825352
 C   -0.9954813680   -1.0971566850   -1.7322142045
 C    0.1651252034   -0.1116571672   -1.5657944913
 O    0.6268382205    0.7700749755   -2.2356384099
 C   -1.6197513518   -2.0937151846    0.6327671015
 C   -2.3093146987   -1.9217078422    1.9352019315
 N   -3.0269221401   -2.4985095887    0.7833276145
 H    0.6345052946    1.4947899012    0.2127081840
 H    0.8922720204   -1.2083639582    0.1671938153
 H   -1.9400525319   -0.0727347903   -0.0302129270
 H   -0.6527007388   -2.1102808770   -1.9660902279
 H   -1.7808427663   -0.8116360627   -2.4332545181
 H   -0.9442759598   -2.9421257000    0.5211872102
 H   -2.1195376041   -2.6142371467    2.7499258652
 H   -2.5490353616   -0.9090255004    2.2492744921
 H   -3.6341334825   -1.7941921429    0.3694589254