18

 C    0.0993697504    1.5670817011   -0.1325337164
 C   -0.0465386434    0.0636116720    0.0853297427
 O    0.5270919536   -0.6354892657   -1.0529538134
 C    1.4759614428   -1.6353895912   -0.6684959066
 C    1.5611711051   -1.4575071471    0.8092983256
 C    0.6980660265   -0.5007930190    1.2564620169
 C    0.8316151177   -0.4218515297    2.6698232170
 C    1.7895432403   -1.3507741876    3.0205347054
 N    2.2323804128   -1.9849318877    1.8740541178
 H    1.1559927106    1.8470661459   -0.1665593301
 H   -0.3738794661    1.8622017050   -1.0735086143
 H   -0.3819121810    2.1169057676    0.6834133840
 H   -1.1187962754   -0.1870917949    0.1221084881
 H    1.1135083648   -2.6319905095   -0.9701964222
 H    2.4239391298   -1.4585035044   -1.1994392330
 H    0.3060691782    0.2241185345    3.3563476264
 H    2.1971370949   -1.6122276206    3.9841450079
 H    2.9341972384   -2.7034499987    1.8474369440