17

 O   -0.1003703033    1.3887914248    0.0745239124
 C   -0.0811081512    0.0093026736    0.0330367916
 C    1.0406585162   -0.5862993961    0.7810530180
 O    1.8808271448    0.0998223106    1.3236940504
 C   -1.3861476732   -0.7587743571   -0.0289052501
 C   -2.6228708779    0.0705926241   -0.3842607900
 C   -2.3559756844    0.5252536035   -1.8019091204
 C   -1.1993373693    0.0530557304   -2.2713363565
 C   -0.4917650647   -0.7656592702   -1.2512282760
 H    0.7231483598    1.6308520911    0.5285069434
 H    1.0844721773   -1.6943054406    0.8023430075
 H   -1.4978913518   -1.6318692156    0.6043530159
 H   -3.5354516860   -0.5332251651   -0.3077491062
 H   -2.7453425337    0.9241729411    0.2937347915
 H   -3.0222383015    1.1962681853   -2.3308633351
 H   -0.7782996758    0.2575807146   -3.2477898777
 H    0.1088857246   -1.6216898245   -1.5395626387