12

 O   -0.0330509995    1.3796629883   -0.0603002325
 C    0.0157428675   -0.0027993907    0.0142105534
 C   -0.4465464835   -0.6932251297    1.2769152316
 C   -1.3413485317   -0.7027687917    0.0506103184
 C   -2.5308002040    0.1019972246    0.0236338884
 N   -3.5044657216    0.7241981936    0.0026201321
 C    1.0587407647   -0.6348723491   -0.7707012108
 N    1.9086667417   -1.1278028015   -1.3798188722
 H    0.7227290135    1.7449583006    0.4152409104
 H    0.0175765830   -1.6288174553    1.5637340233
 H   -0.7343430925   -0.0326002432    2.0858225536
 H   -1.4129755175   -1.6336439158   -0.5005627656