19

 C    0.0874306634   -2.8624535707   -0.3582655166
 C    0.8620457715   -1.5395800432   -0.3992120378
 C    1.2873251961   -1.0990736508    0.9875340542
 C    2.6199029391   -1.4696733770    1.5466049594
 N    2.3046299003   -0.0763818824    1.2339999727
 C    2.9981987477    0.5513917641    0.1232508084
 C    4.1488627101    1.3986677407    0.6477788028
 O    5.1357296988    1.6630731110    0.0129488290
 H   -0.8039184777   -2.7787620364    0.2728015372
 H   -0.2397998081   -3.1580177335   -1.3592952395
 H    0.7066458929   -3.6689915441    0.0475140189
 H    1.7357538818   -1.6473969329   -1.0502303204
 H    0.2310985130   -0.7615961043   -0.8491610130
 H    0.4563402337   -1.0281291661    1.6902731067
 H    2.7457555899   -1.7064958351    2.5996693736
 H    3.3032887325   -1.9943581383    0.8787502440
 H    3.3954061611   -0.1288492984   -0.6444887960
 H    2.3052516056    1.2420764332   -0.3803074727
 H    3.9890882782    1.7730153441    1.6831624792