16

 C    0.0822786751    1.3615462170   -0.0000122074
 N   -0.0879385886   -0.0717680070   -0.0551038542
 C   -1.3164573388   -0.6505056972    0.0022223871
 N   -2.3805478702    0.0661538827    0.1056056391
 C   -1.2664536765   -2.1296124110   -0.0666213266
 C   -2.2847332697   -3.0572842640   -0.0413525216
 N   -1.6463703213   -4.2437458879   -0.1354433107
 N   -0.3111632887   -4.0880231682   -0.2155473321
 N   -0.0848054169   -2.8104693270   -0.1737543246
 H    1.1472930237    1.5935219257   -0.0633823116
 H   -0.4428395561    1.8543828609   -0.8261210769
 H   -0.3205886200    1.7731044178    0.9325203912
 H    0.7077907461   -0.6818648546   -0.1319759891
 H   -3.2113929544   -0.5197191771    0.1352021732
 H   -3.3556404494   -2.9769089534    0.0318696233
 H   -2.0356573342   -5.1733571567   -0.1511853191