11

 C   -0.0075427844    1.5556614378    0.0865063259
 C    0.0120754086    0.0209655323    0.0493591643
 O   -1.2915025136   -0.5278512765    0.2212638640
 C    0.6509336248   -0.4771865090   -1.1743050686
 C    1.1390267326   -0.8657734317   -2.2020551784
 H    1.0082424273    1.9596945845    0.0492973349
 H   -0.5627224526    1.9519201019   -0.7697808526
 H   -0.4932816104    1.8892943786    1.0070412324
 H    0.5781196674   -0.3446490661    0.9145886439
 H   -1.7851653231   -0.3590326172   -0.5890939985
 H    1.5807887733   -1.2236506046   -3.0991944674