16

 N   -0.1885567216    1.2613308215    0.3721715434
 C    0.0134877319   -0.0380808955    0.0050952671
 O    1.0687483924   -0.5161769177   -0.3406663470
 O   -1.1617242825   -0.7168425120    0.0511356928
 C   -1.0586528410   -2.0927443717   -0.3616033680
 C   -2.3698587485   -2.7100237576   -0.2803100089
 C   -3.4402328863   -3.2553376318   -0.2195420463
 C   -4.7432311166   -3.9038723905   -0.1734582227
 O   -4.9353720074   -4.5114505181    1.0973554726
 H    0.6364616146    1.7991128056    0.5738300720
 H   -1.0418355488    1.5049409386    0.8456375026
 H   -0.6622139379   -2.1352313567   -1.3819537142
 H   -0.3384754412   -2.6111244255    0.2808740119
 H   -5.5210733775   -3.1504991937   -0.3796926768
 H   -4.7986962963   -4.6471731352   -0.9856280795
 H   -5.8025179132   -4.9295316197    1.0873067809