17

 O   -0.3005432852    0.3704746947    0.8540086837
 C    0.2422600001    0.8076024760   -0.1283643386
 C    1.4336329354    1.7450467970   -0.1012147967
 C    1.1857248041    3.0083415556   -0.9220550687
 C    2.3985484100    3.9032749145   -1.2486588306
 C    2.0568461287    3.5915103756   -2.7325746839
 O    0.9730118460    2.7134205409   -2.3257511675
 C    1.6185150584    4.7083057004   -3.5528603266
 C    1.2668219747    5.6388833857   -4.2273527622
 H   -0.1077463335    0.5434536659   -1.1493186172
 H    1.6605970447    1.9979792410    0.9393332811
 H    2.2930201026    1.2126967160   -0.5321420783
 H    0.3286269309    3.5591715492   -0.5133353508
 H    2.3105811565    4.9506328394   -0.9633109419
 H    3.3611598810    3.5087139783   -0.9196324352
 H    2.8290484757    3.0232623263   -3.2651518999
 H    0.9528751098    6.4564727431   -4.8284808067