19

 O    0.1069894696    1.3449148539   -0.2166647556
 C    0.0609579900   -0.0325528739    0.0924523069
 C   -1.3725053539   -0.5502843140    0.1167692772
 C   -2.4190332224    0.2214645824    0.9603224119
 C   -3.3363036161    0.1521371761   -0.2812531625
 N   -2.1521410260   -0.1898008092   -1.1035254685
 C   -2.3441769191   -1.1773611244   -2.1482912657
 C   -1.1135344773   -1.4222078234   -2.9093696870
 N   -0.1435138682   -1.6272606527   -3.5020701385
 H   -0.4399047526    1.4488374633   -1.0067680419
 H    0.6545474203   -0.6261736189   -0.6201946506
 H    0.5115671454   -0.1573333603    1.0838935454
 H   -1.3879963200   -1.6331348921    0.3200115401
 H   -2.7787155563   -0.2621804555    1.8678181652
 H   -2.0798168634    1.2340507221    1.1804017383
 H   -4.0608317920   -0.6745406942   -0.2170411092
 H   -3.8607548241    1.0591605872   -0.5971031879
 H   -2.7052230081   -2.1494733073   -1.7615013314
 H   -3.1077077561   -0.8098759090   -2.8445237364