21

 C    0.3320939823    1.3738854956   -0.4248876968
 C   -0.1583262929    0.1163303045    0.2463284297
 O    0.7490692734   -0.9896276330    0.3305269297
 C    0.3016717051   -0.3829106294    1.5528782516
 C    1.3385201096    0.2927855710    2.4228554186
 C    2.0766777396   -0.7075689400    3.3010574090
 C    2.9496175401   -1.7202092203    2.5918726528
 C    2.3517589687   -0.3611450898    4.7030491212
 O    1.2726308203   -1.2386637285    4.3701279158
 H    1.3369159624    1.6485806434   -0.0986568516
 H    0.3564036150    1.2350449986   -1.5107847575
 H   -0.3456933148    2.2075132964   -0.2105767461
 H   -1.1671582786   -0.1794650358   -0.0509903127
 H   -0.3949120989   -1.0051874221    2.1178573324
 H    2.0583664911    0.8367688534    1.8038557686
 H    0.8318495561    1.0206110393    3.0673049646
 H    3.7627459836   -1.2182485824    2.0563585098
 H    3.3830404559   -2.4178969994    3.3124752723
 H    2.3722578428   -2.2866727463    1.8565760707
 H    3.1902917459   -0.8283529521    5.2184710610
 H    2.0598436134    0.6145898371    5.0909863671