20

 C   -0.0894080021    1.5282601972    0.3089219017
 C   -0.0334945222    0.0275145860    0.0223304929
 O    0.7695312429   -0.6517476671    0.9872713837
 C   -1.4305595251   -0.5971334370   -0.0834520943
 C   -1.4002566366   -2.0927115741   -0.4220506489
 C   -2.7743949889   -2.7138900118   -0.4034038139
 C   -3.0206613323   -4.0708860048    0.0982638127
 O   -3.3567236394   -2.9287956609    0.8883768950
 H    0.9212962796    1.9343741215    0.4028840669
 H   -0.6089883418    2.0667615082   -0.4903548801
 H   -0.6264648054    1.7247742963    1.2454898258
 H    0.4979119197   -0.1336520428   -0.9248713595
 H    0.3618492342   -0.5159616305    1.8504608757
 H   -1.9558996055   -0.4578583964    0.8720037431
 H   -2.0112413294   -0.0502208613   -0.8379553685
 H   -0.9550066011   -2.2409730383   -1.4154344383
 H   -0.7565723084   -2.6085292950    0.2969092521
 H   -3.4815612504   -2.3146857778   -1.1344712435
 H   -3.8661215938   -4.6467417832   -0.2763914983
 H   -2.1839653939   -4.6634738283    0.4667000457