23

 C   -0.0423299189    1.5198017343   -0.0530364835
 C   -0.0117207816    0.0637884788   -0.0471290699
 C    0.0253808515   -1.1399258820   -0.0435361644
 C    0.0351927659   -2.5991041792   -0.0348498294
 C   -1.3764734502   -3.2056580983    0.1093840503
 C   -1.4067363138   -4.7412603478    0.0453615738
 C   -0.6622185161   -5.4081381191    1.2101164634
 C   -2.8567382017   -5.2264303070   -0.0171560562
 O   -2.8552346636   -6.6326044210   -0.2212530858
 H    0.3680525048    1.9327381477    0.8753749726
 H    0.5448972582    1.9283893208   -0.8831691639
 H   -1.0657875599    1.8974847775   -0.1570737422
 H    0.4924854031   -2.9706520453   -0.9622783207
 H    0.6784230720   -2.9526611911    0.7801133850
 H   -1.8125600560   -2.8643481594    1.0570173370
 H   -2.0076756849   -2.7933058122   -0.6868073882
 H   -0.9329363510   -5.0585299200   -0.8948880225
 H   -1.0573121538   -5.0604940043    2.1730059584
 H   -0.7876360216   -6.4919861451    1.1649140881
 H    0.4090561327   -5.1887069274    1.1901181563
 H   -3.3735843348   -4.9618529824    0.9209571892
 H   -3.3816111902   -4.7112222944   -0.8375383648
 H   -3.7644330203   -6.9428423230   -0.1891545327