10

 O   -0.2645903725    0.2183697649    0.2223198715
 C    0.2254910049    1.0385320575   -0.5142390375
 C    1.3668718621    1.8529207156   -0.1570597719
 C    2.3227021394    2.5417253851    0.1181687502
 C    3.4525922229    3.3699546984    0.4647136824
 O    3.3589370460    4.4432942363    1.0166396330
 C    4.8393956440    2.8267618618    0.0890959558
 O    5.0107380063    1.7886891252   -0.4861428616
 H   -0.1645014753    1.2327435883   -1.5323647475
 H    5.6526994122    3.5101956570    0.4074948858