15

 C   -0.0996269209    1.5603761247   -0.0040773781
 C   -0.0180976535    0.0286911424   -0.0005359066
 C    1.1851454327   -0.5235825665   -0.8253879268
 O    1.9435817762   -0.7775462372    0.3701445161
 C    0.7952455976   -0.5396481994    1.2030598815
 C   -1.3092522449   -0.5844661834   -0.2535571969
 C   -2.3786170349   -1.0931365400   -0.4632234416
 H    0.8889509950    1.9881047915    0.1893299103
 H   -0.4553073480    1.9272158193   -0.9712747957
 H   -0.7895907243    1.9134427426    0.7678323940
 H    0.9615864871   -1.4436809613   -1.3785125940
 H    1.6800988280    0.1953764424   -1.4883660297
 H    1.0070433560    0.1676454708    2.0131821125
 H    0.3852672737   -1.4674270794    1.6197743507
 H   -3.3215243698   -1.5452093867   -0.6483655956