21

 C   -0.0567562118    1.5645699867    0.0926537980
 C   -0.1107921418    0.0710331969    0.3951185096
 N   -1.2187289174   -0.5590540796   -0.3214262833
 C   -1.3497955776   -1.9754205863   -0.1422121367
 C   -1.6988215554   -2.6165637295    1.2106831189
 C   -2.7105271346   -2.6170418786    0.1001189266
 C   -3.9749047314   -1.7898849707    0.1782574936
 C   -0.4329874900   -2.7358702896   -0.9705167248
 N    0.3073129819   -3.3486057328   -1.6146817300
 H    0.7871427470    2.0314480004    0.6082901511
 H    0.0498588538    1.7377863369   -0.9816879751
 H   -0.9700701423    2.0701139119    0.4286576762
 H    0.8157315688   -0.4097365609    0.0595874567
 H   -0.1690131198   -0.0914987553    1.4861636278
 H   -2.0926458517   -0.0814676488   -0.1442038517
 H   -1.2119486370   -3.5442491151    1.4877762550
 H   -1.8524002722   -1.9176379896    2.0266964703
 H   -2.8397079256   -3.5655475146   -0.4124565705
 H   -3.8425718002   -0.8846060834    0.7788703684
 H   -4.3259991713   -1.4952250498   -0.8161134828
 H   -4.7699254315   -2.3727658281    0.6544099728