21

 O   -0.0936207774    1.4006193257   -0.0656093744
 C    0.0165890099   -0.0090071456    0.1001867629
 C   -1.3843350178   -0.5894974944   -0.0067357566
 C   -2.0767769799   -0.4237116205   -1.3985686077
 C   -2.4108257271   -1.9022940810   -1.6909705380
 C   -1.0758224450   -2.6125368924   -1.3322865447
 C   -1.4607221381   -2.1257464705    0.1029151099
 O   -0.8789340891   -2.6141748633    1.2711388314
 C   -2.9401985180   -2.3961103709   -0.3140781398
 H    0.7856480730    1.7801786117    0.0188764894
 H    0.6745296737   -0.4429833388   -0.6693904489
 H    0.4425113096   -0.2658157194    1.0809436880
 H   -1.9848278300   -0.1366711120    0.7894638865
 H   -2.9676895975    0.2076731502   -1.3507399514
 H   -1.4010713839    0.0093155241   -2.1417502105
 H   -2.9407725198   -2.1299388867   -2.6146167505
 H   -1.1416711104   -3.7006477517   -1.4255194006
 H   -0.1507095703   -2.2516441321   -1.7890053142
 H   -0.9664354191   -3.5725735030    1.2782955685
 H   -3.7290145182   -1.8218388821    0.1807475385
 H   -3.1857495948   -3.4622098973   -0.3147076079