14

 O    0.1045260314    1.4195141592   -0.0842716631
 C    0.1046379575    0.0212031886    0.0596976017
 C   -1.3445299141   -0.5081089335    0.0604317462
 O   -2.0226236170   -0.0164462037   -1.1026419575
 C   -1.3966065073   -1.9602846694    0.1640669910
 C   -1.3989214349   -3.1700142676    0.2174870225
 C   -1.4106728337   -4.5286755431    0.2819339142
 C   -1.4195077373   -5.7346929236    0.3380084759
 H   -0.5204484183    1.6081171701   -0.7968538347
 H    0.6623526697   -0.4823945182   -0.7481267673
 H    0.5943507185   -0.2212431911    1.0075880059
 H   -1.8720722384   -0.0499724460    0.9054660276
 H   -1.7757227550   -0.5812021803   -1.8447370595
 H   -1.4298589612   -6.7953334513    0.3892777571