18

 C    0.1477050670    0.7550541053   -1.1862446026
 C    0.1174132625   -0.2920020887   -0.0773063571
 O    0.8214455612    0.0906706845    1.1028669468
 C    2.2317697294    0.0359560007    1.0433371987
 C    2.7723378175    0.6025583254    2.3554170558
 C    2.6999861582   -1.3536318070    0.8270588189
 N    3.0513465272   -2.4398745997    0.6478483393
 C   -1.3028185551   -0.6008910411    0.3906844282
 O   -2.2696589502   -0.5525900533   -0.3210002144
 H    1.1372049613    0.8378980168   -1.6429295190
 H   -0.5680142818    0.4677243074   -1.9598790440
 H   -0.1446177501    1.7319301738   -0.7910009948
 H    0.5207069529   -1.2496408813   -0.4512063409
 H    2.6107012715    0.6358097479    0.2030406449
 H    3.8646353595    0.5868913611    2.3575433655
 H    2.4267621730    1.6326733349    2.4654864198
 H    2.4056320934    0.0130856996    3.1984444844
 H   -1.3589936177   -0.8964418364    1.4602186006