20

 O   -0.2022548232    1.2727934957    0.3663794141
 N   -0.0327503372   -0.1216138616    0.2374935107
 C   -1.1342277309   -0.6897074521   -0.0461634948
 C   -2.4983896372   -0.0485655679   -0.2085121295
 C   -3.4151580922   -1.2118960105   -0.6459217216
 C   -2.7266964877   -2.4524579300   -0.0836840825
 C   -3.2591168466   -3.1200363502    1.1607527063
 C   -3.3225399339   -3.8242539949   -0.1776035359
 C   -1.2309097220   -2.1906358411   -0.2354020878
 H    0.6894890924    1.5637213119    0.5831804508
 H   -2.8077482668    0.3733457871    0.7553797038
 H   -2.4689792549    0.7869512734   -0.9132019935
 H   -4.4447936465   -1.1022664241   -0.2948911897
 H   -3.4490990166   -1.2695713026   -1.7413138545
 H   -2.5473934336   -3.4843182208    1.8945727277
 H   -4.1868524497   -2.7505831565    1.5860755962
 H   -4.2927706431   -3.9297708015   -0.6528050537
 H   -2.6561507516   -4.6649116233   -0.3429009429
 H   -0.8991444215   -2.4574009079   -1.2491910254
 H   -0.6035269172   -2.7438558928    0.4674089122