17

 C   -0.1331632707    1.5437486612    0.1437650201
 C    0.0269305793    0.0088977674    0.0344105014
 C    0.7591339669   -0.5124612203    1.1816810430
 C    1.3593703960   -0.9256153031    2.1469150277
 C    2.0472557354   -1.3889306056    3.2319107845
 N    2.6310456743   -1.7836558032    4.1554394813
 C   -1.3339875262   -0.6694711333   -0.1517892595
 C   -1.5899930972   -2.0769923534    0.2290088309
 N   -2.2143241394   -0.9702656064    0.9811208737
 H    0.8389605531    2.0345534997    0.2297529678
 H   -0.6372886478    1.9228533915   -0.7495132447
 H   -0.7351682982    1.8075628389    1.0170552103
 H    0.6255645368   -0.2079062892   -0.8624253980
 H   -1.8634428914   -0.2660931159   -1.0133272169
 H   -2.2773747899   -2.6793361035   -0.3574220864
 H   -0.7850172881   -2.6317826695    0.7027070798
 H   -1.7125069027   -0.8363004153    1.8574562949