16

 N   -0.0908074160    1.2681846859    0.2386818065
 C   -0.0127139823    0.0283452906   -0.0369684016
 O    1.1804470752   -0.6019278270   -0.2183753492
 C    1.1637118225   -1.8745004761   -0.8899768552
 C    0.1408092453   -2.8294608874   -0.2887437458
 C   -1.1848800495   -2.1279386092   -0.1865409221
 C   -2.4328719250   -2.9144361900   -0.1827038459
 O   -2.4686209493   -4.1201113201   -0.2769442206
 C   -1.2300017627   -0.7884029468   -0.0984101495
 H    0.8452664321    1.6794867111    0.2629688941
 H    0.9463359040   -1.7090599169   -1.9533225920
 H    2.1823189017   -2.2562980863   -0.8014227157
 H    0.0438778020   -3.7277286786   -0.9059694208
 H    0.4630997137   -3.1675996984    0.7043697568
 H   -3.3610008327   -2.3100354890   -0.0883084217
 H   -2.1638742791   -0.2424572819   -0.0189750674