17

 O   -0.0491742186    1.3162796279    0.0567892784
 C    0.0070392811   -0.0520141895   -0.0037669231
 C    0.9072372916   -0.8700620279   -0.9133538985
 C    0.0331747953   -2.0854098090   -0.4760572628
 C    0.3798769320   -2.2862959780    1.0231202296
 C   -0.2985124956   -0.9332196637    1.2475815170
 C   -0.6708981262   -0.2784295885    2.4481581534
 C   -0.9500757389    0.3456078355    3.4418810104
 C   -1.1028484111   -1.0671332064   -0.0584053534
 H   -0.1212828797    1.5790716411    0.9845956868
 H    0.7376874681   -0.6078741145   -1.9613746011
 H    1.9820465743   -0.9120951546   -0.7047103447
 H   -0.1010862340   -2.9346085450   -1.1399124902
 H   -0.2009792805   -3.0935310213    1.4770328068
 H    1.4371935016   -2.3915105785    1.2904848747
 H   -1.2229894285    0.8589704721    4.3304451158
 H   -2.1679092410   -1.0073122997   -0.2275003490