22

 C   -0.3945096835    1.5061442777    0.3819664300
 C    0.1243403304    0.1047365017    0.0457510178
 C    0.5992630467   -0.6709981905    1.2806934899
 O   -0.4532523752   -0.7112372039    2.2628310057
 C    1.1283848812   -2.0962663877    0.9705259810
 C    2.0683499530   -2.1502665825   -0.2400762066
 C    1.8307923231   -2.7568367213    2.1856515661
 N    1.1831288355   -2.6406393738    3.3766110469
 O    2.8740474532   -3.3741188022    2.0665619785
 H    0.3965441913    2.1188833138    0.8280021511
 H   -0.7450599463    2.0180011897   -0.5189652123
 H   -1.2193324763    1.4630606334    1.0972736980
 H   -0.6612379432   -0.4789721439   -0.4579105050
 H    0.9492517461    0.1825093132   -0.6680519127
 H    1.3958108199   -0.0969088864    1.7711215333
 H   -1.2155092726   -1.1346342743    1.8497988475
 H    0.2446890361   -2.7171238800    0.7527999222
 H    1.5339435410   -1.9492332238   -1.1710856125
 H    2.8808254221   -1.4225352599   -0.1424146887
 H    2.5288574894   -3.1364841384   -0.2984238471
 H    0.4126575258   -1.9941098443    3.4687208252
 H    1.6588372124   -2.9924292168    4.1916329718