17

 O    0.0627419323    1.5537520570   -0.2124704506
 C    0.0861944259    0.1358958593   -0.2131476877
 C   -1.3111463765   -0.4499525785    0.0223571179
 C   -1.3431747880   -1.9893298053   -0.0116785840
 O   -0.6465863287   -2.5341063240   -1.1326248919
 C   -0.6216846383   -2.6027396009    1.2140158006
 O   -0.4496969891   -2.0312490702    2.2541292124
 C   -2.7189877210   -2.4933676623    0.0421877577
 C   -3.8419204052   -2.9224554768    0.0769097900
 H   -0.1463924440    1.8438606254    0.6811847250
 H    0.4519386920   -0.1619157666   -1.1985534633
 H    0.7933167431   -0.2549532532    0.5318929815
 H   -1.6862573438   -0.1353028383    1.0024879151
 H   -1.9970768187   -0.0571668143   -0.7350166226
 H   -1.2328766898   -2.4958488910   -1.8959058621
 H   -0.2866973777   -3.6437468788    1.0272088584
 H   -4.8366150426   -3.2950255014    0.1085801335