18

 C    0.0096347248    1.5620384698    0.0330971681
 C    0.0239778793    0.0336814192    0.0011506376
 C    0.7992268083   -0.5721510055   -1.1985398903
 C    1.3225588932   -1.9491742458   -0.7289941548
 C    1.5000317118   -1.7786815255    0.7648732275
 O    2.1505457677   -0.5581611561    1.1406214344
 C    0.7157710995   -0.6068825326    1.2033081257
 C    0.1311181043   -0.4953118811    2.5179003848
 N   -0.3760809010   -0.3866494490    3.5510327921
 H    1.0299373245    1.9530128863    0.0969726052
 H   -0.4527000837    1.9623522095   -0.8741559645
 H   -0.5551236926    1.9372161349    0.8920661740
 H   -1.0089238659   -0.3395063621   -0.0014748877
 H    0.1724573547   -0.6445117821   -2.0900956070
 H    1.6432647197    0.0780620208   -1.4414813715
 H    0.5881583546   -2.7446187472   -0.9030188418
 H    2.2502067904   -2.2431601162   -1.2287551128
 H    1.6891965203   -2.6233987271    1.4216490210