20

 C   -0.0837284041    1.5425044867   -0.0461061379
 C   -0.0026114085    0.0275817712   -0.0260959317
 O   -1.2770764060   -0.5335289078   -0.3311597543
 C    1.2631748679   -0.6754274294   -0.6195060303
 N    1.9976316764   -0.1198857813    0.5851515791
 C    0.7121671347   -0.6964626120    1.1621074520
 C    0.3661199047   -0.6432956252    2.6208420375
 C    0.9277125044   -1.9504560320    0.2282635685
 O   -0.0619464382   -2.8708751404   -0.0866764738
 H    0.8772358721    1.9843536188    0.2138811794
 H   -0.3672949007    1.8946828231   -1.0469319824
 H   -0.8480079290    1.8898596998    0.6567828050
 H   -1.6283308654   -0.0790632812   -1.1039424724
 H    1.6761179960   -0.5950236038   -1.6270811040
 H    2.7727056025   -0.7490878764    0.8164439430
 H    0.3445220553    0.3885150691    2.9859307010
 H   -0.6185630189   -1.0912865882    2.7878711157
 H    1.0950119455   -1.2022808927    3.2173220399
 H    1.8231816182   -2.5211522111    0.5002784796
 H   -0.8502603868   -2.3539456774   -0.3070891639