18

 O   -0.0980057457    1.4631437984   -0.0840510984
 C   -0.0235357763    0.0503330581   -0.1824192126
 C   -1.3931893793   -0.5085557677    0.2031038440
 C   -1.4297537116   -2.0041141911    0.1907462017
 N   -1.4454053689   -2.8239238225   -1.0461509083
 C   -2.5252237547   -2.9737877986   -0.0376129721
 C   -1.9731793175   -3.8771632020    1.1229163995
 O   -0.6241451568   -4.2411908685    0.8335547498
 C   -0.8785565278   -2.9359748316    1.3471006075
 H    0.7570886958    1.8281713273   -0.3292410545
 H    0.2331741782   -0.2722424478   -1.2032654217
 H    0.7466729906   -0.3605902081    0.4898283896
 H   -1.6506622846   -0.1338701524    1.2018954978
 H   -2.1470006157   -0.1072509903   -0.4852433317
 H   -1.8261247765   -2.2241679136   -1.7803653276
 H   -3.5669151764   -2.8046301011   -0.2776909704
 H   -2.5415622980   -4.5021020661    1.8004432260
 H   -0.3629266750   -2.6246717025    2.2482662416