17

 C   -0.1227299334    1.5691971857   -0.3121187456
 C   -0.0103320994    0.0928628674    0.0323605493
 N    1.1483811577   -0.5553081794   -0.7352194591
 C    1.9650879487   -0.6356769579    0.5422137614
 C    0.6735363778   -0.3952625126    1.2910395600
 C   -0.1624377935   -1.1974627172    1.9670183666
 N   -1.4346298697   -1.1646485307    1.3669006301
 C   -1.4169099146   -0.5422069905    0.1216490317
 O   -2.3586653856   -0.4267515065   -0.6272448767
 H    0.8646458363    2.0372039384   -0.3185210417
 H   -0.5704640584    1.6728454608   -1.3046558681
 H   -0.7587112404    2.0937137071    0.4075697792
 H    0.8793418413   -1.4997890680   -1.0051832785
 H    2.4799101900   -1.5848835027    0.7131519855
 H    2.6939963102    0.1792249302    0.5658914489
 H    0.0495889427   -1.9396388510    2.7254075925
 H   -2.2787255597   -1.5578134729    1.7513803346