17

 O    0.2938336936    1.3057086801    0.3681920612
 C    0.0537917560   -0.0581629009    0.1125213578
 C   -0.5093436146   -0.8444229561    1.2697430894
 C   -1.3673336463   -0.5576256601    0.0614537670
 C    1.0733701074   -0.6803421447   -0.7629702267
 N    1.0058351435   -1.8489923082   -1.3656557501
 C    2.2087500322   -1.9911984628   -2.0208669705
 C    3.0051640120   -0.8964931927   -1.8150889442
 N    2.2629001869   -0.0622611954   -1.0065795252
 H   -0.0451840614    1.8065824306   -0.3827429638
 H   -0.1403103470   -1.8534326848    1.4088751499
 H   -0.7071820234   -0.2804145128    2.1740010436
 H   -2.1460700983    0.1897672003    0.1677014512
 H   -1.5729926495   -1.3680430017   -0.6276376868
 H    2.4274352849   -2.8703201645   -2.6078999027
 H    3.9905655232   -0.6321320695   -2.1600204776
 H    2.5266002608    0.8285230633   -0.6200155126