18

 C   -0.0380509377    1.5306594367   -0.1302957541
 C   -0.0031882856    0.0291688333    0.0503643775
 C    1.2914968546   -0.7584082130   -0.1067634883
 C    0.6452422747   -0.6029988486    1.2377597964
 C    1.2736121115    0.1462048346    2.4114047511
 N    1.3028345055   -0.9193967268    3.3943259893
 C    0.4330704548   -1.9394912435    3.0761196652
 O    0.0809517633   -2.8559274969    3.7638174357
 O    0.0123416009   -1.7522731592    1.7862312322
 H    0.8782637525    2.0041192922    0.2377427279
 H   -0.1362780516    1.7911157081   -1.1892061281
 H   -0.8831280003    1.9789570683    0.4033050535
 H   -0.8920262189   -0.4954572427   -0.2893871773
 H    1.2370819712   -1.7363663849   -0.5710422565
 H    2.2077302469   -0.2069831256   -0.2972150747
 H    2.2758323553    0.5165231005    2.1757854095
 H    0.6566378557    0.9979532861    2.7339028538
 H    1.4884904973   -0.7534964285    4.3693888769