12

 O   -0.0337427095   -0.0957492023    0.0042172624
 C   -0.0349534229    1.1234212963    0.0095474395
 C   -1.2454860105    1.9513573009    0.0308021034
 C   -1.1707660839    3.2911995898    0.0360577889
 O   -0.0078363130    3.9863976009    0.0228486446
 C    1.1501629354    3.2748484322    0.0031527927
 C    1.1985361293    1.9279608346   -0.0038767340
 C    2.3076716058    4.1149188928   -0.0091715923
 N    3.2581172985    4.7735509665   -0.0194259257
 H   -2.2124133781    1.4641856990    0.0422903988
 H   -2.0169041785    3.9663237568    0.0512839985
 H    2.1548181574    1.4207922425   -0.0196966368