11

 O   -0.1050496734    0.0241020787   -0.0648329635
 C   -0.0188851788    1.2059447974    0.0084634396
 C    1.3742203781    1.9794046059    0.0159918137
 C    1.3773559844    2.8166176438   -1.1853203110
 C    1.3025067035    3.4739312455   -2.1857156821
 C    1.3928453921    2.8057177921    1.2376978156
 N    1.3383383637    3.4411359976    2.1999642910
 C    2.4898043467    1.0201693933    0.0190517775
 N    3.3608572332    0.2644574196    0.0141473240
 H   -0.8715133160    1.9075930100    0.0545688079
 H    1.2641620765    4.0650116362   -3.0690849029