19

 C    0.2661677545    1.6211210732   -0.0806269779
 C    0.0089571238    0.1248621034    0.0819622033
 O    0.5437042158   -0.5738397721   -1.0494177124
 C    1.3065874108   -1.7184614493   -0.6335013738
 C    2.6586944744   -1.6918559767   -1.3614663325
 C    1.4206309803   -1.5457497290    0.8717502014
 C    0.6862950100   -0.5152594461    1.2654010008
 C    0.5797714623   -2.9610427157   -0.9542935711
 C    0.0004409935   -3.9835187408   -1.2074259392
 H    1.3405412887    1.8251889839   -0.1002399007
 H   -0.1736935525    1.9777454712   -1.0160838451
 H   -0.1845064816    2.1803104374    0.7459949146
 H   -1.0804363019   -0.0443204143    0.1290500915
 H    3.1955947746   -0.7772108926   -1.0977133528
 H    3.2635591359   -2.5597223675   -1.0839630268
 H    2.4966252982   -1.7121718234   -2.4419153584
 H    2.0073327657   -2.2175998662    1.4841140407
 H    0.5552747314   -0.1611287309    2.2804140034
 H   -0.5208175341   -4.8807958845   -1.4336804750