19

 C    0.9903059266    0.3573570819   -0.5542181733
 C    0.0536107001   -0.8440302242   -0.3739175922
 C   -1.3223013360   -0.4620684382    0.1438066996
 C   -2.0084848254   -1.3921813297    1.0994383647
 N   -1.4985697214   -0.1049731571    1.5700310730
 C   -2.1877943216    0.3146779100   -0.8243075888
 C   -3.3355740171    1.1297860876   -0.2636217226
 O   -1.9461568047    0.2800850091   -2.0122743509
 H    1.9757730924    0.0300635110   -0.8984662819
 H    0.5896646490    1.0532590284   -1.2956508712
 H    1.1301508743    0.9031489297    0.3855943094
 H   -0.0704098254   -1.3559422783   -1.3327581511
 H    0.5004217426   -1.5647833351    0.3222312045
 H   -3.0903114676   -1.4901555493    1.0982751174
 H   -1.4740679922   -2.3033982698    1.3559403585
 H   -0.6154893914   -0.2345159520    2.0587912049
 H   -2.9368530886    1.9378865865    0.3574663142
 H   -3.9161263045    1.5405275081   -1.0901937876
 H   -3.9800695488    0.5353117612    0.3900362736