21

 C   -0.2774265763    1.5804943682   -0.0210400500
 C    0.0322609575    0.0908726928    0.0136106667
 C    1.1322658151   -0.5414075700   -0.9072828043
 C    2.3566508979    0.3738021934   -1.0455254338
 C    3.0298918061    0.2599323377    0.3118438268
 C    2.1737824692    0.0412198269    1.5553785673
 C    2.8738014482   -1.1265589721    0.8602112647
 C    1.5025511796   -1.5401533282    0.2722924036
 C    0.7767420574   -0.5341425649    1.2129031265
 H    0.6008657796    2.1855513004    0.2237656509
 H   -0.6386689143    1.8957003831   -1.0068168487
 H   -1.0571848189    1.8270525383    0.7086901144
 H   -0.8962596082   -0.4753684588   -0.1326293979
 H    0.7906440285   -0.9574849216   -1.8568547032
 H    3.0375928022    0.0040745235   -1.8224692531
 H    2.0806718621    1.3979073196   -1.3170246858
 H    3.9675918122    0.7772529084    0.4892837846
 H    2.4356826584    0.5289838579    2.4872682026
 H    3.6788716777   -1.7676057161    1.1955505767
 H    1.2120546054   -2.5850135790    0.1919067018
 H    0.2188003205   -0.8678010796    2.0904366502