18

 C   -0.1774511451    1.5674335772   -0.0387194215
 C    0.0081922987    0.0406421209    0.0148375223
 C    0.8414648191   -0.4766576818   -1.1371001289
 C    2.0165539263   -0.9688179628   -0.7469497921
 C    2.1938420888   -0.9040282658    0.7499531921
 C    0.8083824492   -0.4604140004    1.2312418545
 C    0.5159583427   -0.0915181409    2.6189644188
 O    0.1276640770   -1.3692637756    2.1083674922
 H    0.7879033085    2.0827435668   -0.0005441048
 H   -0.6754829820    1.8632712522   -0.9679244352
 H   -0.7899218831    1.9252444927    0.7947590350
 H   -0.9820438720   -0.4313623249    0.0406835338
 H    0.5023846912   -0.4068258958   -2.1651809058
 H    2.7797594304   -1.3655842015   -1.4069882584
 H    2.4562132943   -1.8666255624    1.2031997899
 H    2.9809586395   -0.1921690461    1.0342182491
 H    1.3148090795   -0.1052893091    3.3609198712
 H   -0.3028422230    0.5910129973    2.8446291577