23

 C   -0.2407123533    1.5231788746    0.2160356219
 C    0.0360252513    0.0288695873   -0.0113401866
 C    0.8287736980   -0.2046470231   -1.3255845722
 C    2.3370518362   -0.0777850095   -1.3004163099
 C    3.1622074871   -0.4639835141   -0.3251736472
 C    2.7539543077   -1.0208668480    1.0133905709
 C    1.4750588849   -1.9131929453    0.9826005867
 C    0.6274553892   -0.6360169162    1.2528917962
 C    1.9201823875    0.0124852562    1.8338001158
 H    0.6860999202    2.1050091404    0.2379164517
 H   -0.8651084861    1.9289815022   -0.5867180423
 H   -0.7635421212    1.6923916908    1.1637223436
 H   -0.9379734744   -0.4535139655   -0.1728916937
 H    0.5817928293   -1.2038463744   -1.7114424651
 H    0.4330960168    0.4869398593   -2.0787895228
 H    2.7806201832    0.3258831632   -2.2083822841
 H    4.2310102309   -0.3310940859   -0.4786049537
 H    3.6213821279   -1.4484830990    1.5221251464
 H    1.2783594110   -2.4893569599    0.0756799008
 H    1.4548880750   -2.5937411109    1.8385802502
 H   -0.1827151219   -0.7528344576    1.9797754569
 H    1.9970957544   -0.1692356947    2.9102076585
 H    2.1137895661    1.0686171203    1.6382232178