14

 C   -0.0111484931    1.5167489511   -0.0946412005
 C   -0.0192808011    0.0234115509    0.1728795260
 O   -0.0639956955   -0.4747201178    1.2678530752
 N    0.0298264179   -0.7366048820   -1.0036219559
 C    0.0370316203   -2.1001772031   -1.1283703746
 N    0.0844069426   -2.7276358022   -2.2740390334
 C    0.0695271215   -4.0305182026   -1.8531530793
 N    0.0176598035   -4.2156475356   -0.5642373021
 O   -0.0048731306   -2.8896057732   -0.0602619497
 H    0.8980500807    1.8124993506   -0.6286391076
 H   -0.8701323032    1.8085965782   -0.7079932547
 H   -0.0549965865    2.0387887027    0.8599670988
 H    0.0651471403   -0.2601737340   -1.8926054607
 H    0.0983789033   -4.8705130728   -2.5322870514