19

 O   -0.1301400692    1.4518464967    0.0181898556
 C    0.0068286945    0.0474684129    0.0141339726
 C    0.3528421261   -0.6105132625    1.3958046294
 C   -1.0909155791   -1.0948403431    1.4832086087
 C   -1.8158847962   -2.2364803934    2.1762372569
 O   -2.9999523152   -1.4146595494    2.3424975634
 C   -2.3023367260   -0.2203029129    1.9077415033
 C   -2.6016914166    0.1742586166    0.4428741352
 C   -1.3806363189   -0.6754766551    0.0014363166
 H    0.7407239520    1.8370859231    0.1570799481
 H    0.6680745094   -0.2775727453   -0.7997060897
 H    1.0744770461   -1.4273669365    1.2885112829
 H    0.7012681175    0.0669026623    2.1822816079
 H   -2.0135028611   -3.1426149325    1.5896546567
 H   -1.3918109592   -2.5260603966    3.1491827642
 H   -2.2813425749    0.5508658226    2.6845827861
 H   -3.5662548884   -0.2064393487    0.1000634202
 H   -2.5208165473    1.2384538595    0.2162132584
 H   -1.5079820335   -1.3987691276   -0.8055717464