23

 C    0.0044206074    1.5551373820    0.3649163969
 C    0.0028028475    0.0515442265    0.0809659364
 O    0.7310291775   -0.6559214478    1.0825530481
 C   -1.4002970808   -0.5072594987   -0.1111406036
 C   -2.2026453778   -0.9857559153    1.0772318171
 C   -1.7081380073   -1.9795734025    0.0487208335
 C   -2.6710994163   -2.4022422126   -1.0502027453
 C   -3.2921280148   -1.0789075204   -1.5541301371
 C   -2.2077173847   -0.0042272632   -1.3069877400
 H    1.0284851666    1.9137075899    0.5024323791
 H   -0.4521891701    2.1168014275   -0.4554121030
 H   -0.5682663058    1.7745290321    1.2748568978
 H    0.5652394474   -0.1319807321   -0.8450794766
 H    0.4492749095   -0.3200583860    1.9399127344
 H   -1.7034011222   -1.0116518259    2.0401177651
 H   -3.2609358065   -0.7522781163    1.1403281360
 H   -0.9238648425   -2.6595478175    0.3601012627
 H   -2.1075853101   -2.8925304759   -1.8535630542
 H   -3.4320924647   -3.1144772090   -0.7122010120
 H   -3.5972301378   -1.1294461551   -2.6027006555
 H   -4.1929346400   -0.8413514074   -0.9796642419
 H   -2.6420826561    0.9900167000   -1.1545345704
 H   -1.5386016484    0.0693241578   -2.1753115975