16

 C   -0.0048614661    1.4965187617   -0.0206804958
 C    0.0127352276   -0.0027333098    0.0796889579
 N    0.0888977535   -0.6610009175    1.1676069306
 O    0.1550580240    0.1900892066    2.2775446365
 C   -0.0392479191   -0.8133201246   -1.2193947855
 C    0.1283451716   -2.2576288988   -1.0408467309
 C    0.2778542250   -3.4448250003   -0.9550293836
 C   -1.2739494851   -0.5068213961   -1.9588599471
 C   -2.2785002682   -0.2351466934   -2.5578562189
 H    0.9613112468    1.9065688303    0.2936355160
 H   -0.2197067661    1.8249153364   -1.0386213244
 H   -0.7578629785    1.9107961748    0.6550949649
 H    0.1902298250   -0.4360216724    3.0087157793
 H    0.8020306555   -0.4537111658   -1.8349951708
 H    0.4042429621   -4.4946682237   -0.8581602062
 H   -3.1704470381   -0.0092543374   -3.0883558821