19

 N    0.4983678482   -1.1802418386    0.8581312795
 C    0.2613516587   -0.1143619625    0.4778761790
 C   -0.0251487724    1.2499995459    0.0343359512
 C   -0.9940464727    1.9595474983    1.0350579786
 N   -1.5220580210    3.2240276112    0.5643060608
 C   -0.6860023255    4.4143199140    0.6854843095
 C    0.8296608205    4.2173572442    0.4794246044
 O    1.1366957542    3.3386920583   -0.5905877593
 C    1.3113625847    1.9976349846   -0.2029746674
 H   -0.5493918065    1.1832823070   -0.9282743324
 H   -1.8269428224    1.2742932853    1.2281570850
 H   -0.4883252906    2.1101588905    1.9952939368
 H   -1.8577616051    3.1287172270   -0.3853245027
 H   -1.0619291898    5.1399394206   -0.0422003234
 H   -0.8247152457    4.8698811154    1.6771985743
 H    1.2914069131    5.1846725850    0.2499954169
 H    1.2969991340    3.8483892413    1.4041321032
 H    1.9263042978    1.9323485151    0.7078479822
 H    1.8587142705    1.5043411173   -1.0113715562