23

 C    0.0173476959    1.4843968271   -0.2611983962
 C   -0.0791928363    0.0048077887    0.1358266114
 C   -1.4887455101   -0.5158826979    0.1276616369
 C   -2.6197211261   -0.1583227654    1.0981986416
 C   -3.3699372254   -1.3846846127    0.5163233293
 C   -1.9728297301   -1.9445354683    0.0229147203
 C   -2.1657908305   -1.0223094360   -1.1612673179
 C   -3.6815115666   -0.9751244615   -0.9544012941
 C   -4.4471166049   -2.0284514419   -1.7456653195
 H    1.0531937147    1.8363521362   -0.2308202509
 H   -0.3659888387    1.6449305678   -1.2741772115
 H   -0.5686736981    2.1131696902    0.4174558550
 H    0.5327665817   -0.6001158777   -0.5461513683
 H    0.3536225315   -0.1337390678    1.1358915451
 H   -2.3070328352   -0.3217738515    2.1347161446
 H   -3.1123179273    0.8187485437    1.0142445843
 H   -4.1096957608   -1.9247794512    1.1056671034
 H   -1.4577444047   -2.8882084307    0.1332852321
 H   -1.6232007945   -1.0320343323   -2.0999848544
 H   -4.1634990255    0.0056519169   -1.0688975836
 H   -3.9907886555   -3.0174127601   -1.6262990301
 H   -5.4882233942   -2.0925396864   -1.4099230220
 H   -4.4571688292   -1.7928944492   -2.8157232156