21

 C   -0.4933678332    1.4206637532    0.0602716533
 C    0.0752322219    0.0216032247    0.0395127205
 C    0.0545547662   -0.6645284963   -1.1175963333
 C    0.4415977046   -2.0442194883   -1.4942653293
 O    0.0910914036   -2.4492103112   -2.5901644415
 C    1.2997971912   -2.9523216585   -0.6219578161
 C    1.1202566797   -2.8956505055    0.8967535971
 C    1.5580016336   -1.5678922711    1.5210200189
 C    0.5404165005   -0.4321066460    1.4034976198
 H    0.2843169635    2.1486618117    0.3246178092
 H   -0.9220730612    1.7066616586   -0.9020189516
 H   -1.2727361605    1.5115498119    0.8277767080
 H   -0.3866107275   -0.1674915145   -1.9788843175
 H    1.1345016314   -3.9649838459   -0.9999277998
 H    2.3447461201   -2.7036045119   -0.8613486493
 H    0.0776310052   -3.1107576783    1.1657361670
 H    1.7176267052   -3.7058163298    1.3299926895
 H    1.7550520817   -1.7166954292    2.5890744097
 H    2.5115554569   -1.2551406228    1.0757697175
 H    0.9394158084    0.4471405541    1.9260697363
 H   -0.3641754611   -0.7022450852    1.9719728315