19

 O    0.0067120184   -0.0917688230    0.1194803178
 C   -0.0066576036    1.1129199006    0.0326281852
 C   -1.3029253226    1.9110186058    0.0070525331
 C   -1.6774456400    2.3465642479    1.4438251464
 C   -0.6573643486    3.2472500109    2.1444404377
 O    0.6015504161    2.6076366867    2.3574237846
 C    1.4927078744    2.7583382016    1.2960284728
 C    2.3707304236    1.5887321739    0.9679115357
 C    1.2464824460    1.9572482928    0.0366159099
 H   -1.1906264771    2.7969100581   -0.6296889235
 H   -2.0965228404    1.2793104696   -0.4007316727
 H   -2.6350764349    2.8801523241    1.4117272827
 H   -1.8284923232    1.4499254832    2.0551263194
 H   -0.5153960484    4.1839070733    1.5841879354
 H   -1.0322530362    3.5102801578    3.1389179754
 H    1.9009801024    3.7647474365    1.1946723956
 H    3.3933844829    1.7808612801    0.6643256070
 H    2.2229127636    0.6885974903    1.5538859259
 H    1.4668786376    2.4400280499   -0.9122902285