17

 C   -0.1712018201    1.5215830689    0.3318032539
 C    0.6114717820    0.2264673653    0.3378983759
 C    0.3648977515   -0.7887343516   -0.8013987328
 C    1.8672496161   -0.6084415333   -1.1044238030
 O    1.9941299520    0.4151231894   -0.0901573596
 C    2.7336782361   -1.8427380431   -0.8609969408
 N    3.5451230480   -1.7370489626    0.2201718521
 O    2.6611177315   -2.8117471696   -1.5926885624
 H   -0.1622479280    1.9763245043   -0.6634979734
 H   -1.2112098152    1.3370165279    0.6226817669
 H    0.2599785611    2.2352180862    1.0408685828
 H    0.5896143938   -0.2282136670    1.3372723647
 H    0.0622406740   -1.7943868730   -0.5098709157
 H   -0.2980876286   -0.4236605689   -1.5875340362
 H    2.1074148508   -0.2248379037   -2.1020011092
 H    3.5609356681   -0.8732164241    0.7371686068
 H    4.1894740568   -2.4803779750    0.4303193398