24

 C    0.1494852275    1.4889164294   -0.2092257703
 C    0.0147097888   -0.0184599117    0.0191829389
 O    0.6663926509   -0.4159178055    1.2273257590
 C   -1.4367539744   -0.5294027991    0.0977432899
 C   -1.4629235297   -2.0641506631    0.0802844031
 C   -2.1876765319    0.0521004579    1.3074196432
 N   -3.6068820801   -0.3035173034    1.2827848542
 C   -4.0318055197   -1.4069874788    2.1394319801
 C   -4.3555427014   -0.0004397350    2.4975030342
 H    1.2040310934    1.7616766489   -0.3360679117
 H   -0.3809797631    1.7980446673   -1.1159223083
 H   -0.2419164439    2.0605808509    0.6365099133
 H    0.4855033967   -0.5316751761   -0.8366880535
 H    1.5808669562   -0.1205951504    1.1838460769
 H   -1.9489222180   -0.1676645647   -0.8031950646
 H   -2.4881457445   -2.4402938607    0.0612814759
 H   -0.9491973132   -2.4491935637   -0.8074535206
 H   -0.9553787751   -2.4703518262    0.9602175328
 H   -1.6934632248   -0.2678096624    2.2397092870
 H   -2.1369454507    1.1458449536    1.2768860639
 H   -4.7936748940   -2.0628799655    1.7269622859
 H   -3.2742076815   -1.9094869811    2.7385417525
 H   -3.8127883226    0.4339793449    3.3361081571
 H   -5.3575951550    0.3936920645    2.3516441010