17

 O    0.0708765342    1.2154647240    0.4780718606
 C    0.0329598667   -0.0633837261   -0.0842895583
 C   -0.7458492554   -0.2743260867   -1.3675450454
 C   -1.3008834370   -0.7467461753   -0.0486322644
 O   -1.2531229604   -2.1227183663    0.1976195752
 C   -0.5924682717   -2.4034619552    1.4225143475
 C    0.8389921580   -1.8554734131    1.4594437331
 O    1.5875165084   -2.1092571043    2.3698087439
 C    1.2046123435   -0.9824157291    0.2636441737
 H    0.6927959900    1.7492928516   -0.0292492850
 H   -1.2147989440    0.5998546607   -1.8048996475
 H   -0.4052776826   -1.0296620753   -2.0672668433
 H   -2.1468062472   -0.2171194964    0.3879256350
 H   -1.1434725606   -2.0001942145    2.2865271023
 H   -0.5577312696   -3.4913151638    1.5293884997
 H    1.4411530120   -1.6472157368   -0.5755053480
 H    2.1024271757   -0.4095559634    0.5044961708