20

 O    0.2126828815    1.5168536699   -0.1275148594
 C    0.1432339593    0.1157595964   -0.2748632518
 C   -1.2335075576   -0.4949732829    0.0169054862
 C   -2.1374311237    0.2502542950    0.9767310832
 C   -2.4603415924    0.2051098270   -0.4974007009
 O   -2.2826070543    1.3440689755   -1.3088856199
 C   -1.2011257529   -1.9988186544   -0.0263982168
 C   -0.8936216079   -2.7969277308    1.1882149938
 N   -2.2358857327   -2.8475450533    0.5807476032
 H   -0.4601734601    1.8771065997   -0.7215042762
 H    0.4544062019   -0.1983436369   -1.2852349977
 H    0.8680299480   -0.3080837352    0.4294858883
 H   -2.7821075243   -0.2852041771    1.6673935562
 H   -1.7253953333    1.1783334507    1.3576829884
 H   -3.2934985690   -0.4244315332   -0.8072984804
 H   -2.9804725215    1.9737900238   -1.0973537020
 H   -0.8550348126   -2.3911961896   -0.9822533597
 H   -0.3202905836   -3.7164378763    1.1140912651
 H   -0.7704827085   -2.2556986787    2.1230385068
 H   -2.8795661163   -2.2873545196    1.1346303635