17

 C    0.1716604618    1.5335540333    0.0510199561
 C    0.0681701554    0.0228958739   -0.0178831553
 C    0.7835345723   -0.6401342455   -1.2466216271
 C    1.4394627517   -1.8063084537   -0.5741867995
 N    2.1167512615   -2.8939298526   -0.9099986567
 N    2.4397584188   -3.4309427018    0.2884850912
 C    1.9809905907   -2.7179626846    1.3738114174
 C    1.3292652621   -1.6495657460    0.8105548124
 O    0.6606792875   -0.5374953237    1.2047673631
 H    1.2201416972    1.8468273801    0.0552390623
 H   -0.3228877360    1.9859295959   -0.8145462651
 H   -0.3069078003    1.9125288964    0.9580913928
 H   -0.9853074604   -0.2850374190   -0.0106403159
 H    0.0628962115   -0.9081798638   -2.0236893347
 H    1.5153662904    0.0437321278   -1.6946467521
 H    2.9434604371   -4.3001061427    0.3075189418
 H    2.1643470388   -3.0360238942    2.3857471992