19

 C    0.0928301511    1.5139625279    0.0122460316
 C   -0.0164760048   -0.0167809048    0.0018101789
 C   -1.4806689306   -0.4835485388   -0.0010943984
 C    0.7007838887   -0.6364816412   -1.2114981043
 O    2.0918119241   -0.3426094512   -1.3340830743
 C    1.7211357324   -1.6018657541   -0.7694029221
 C    1.7214222385   -1.6122373630    0.7506707906
 O    2.0923207379   -0.3608035698    1.3323401226
 C    0.7012437029   -0.6529748064    1.2062777427
 H    1.1430397171    1.8121617543    0.0139949239
 H   -0.3919041056    1.9462527183   -0.8695948561
 H   -0.3913909013    1.9341353479    0.9002066042
 H   -2.0079071200   -0.1045955298   -0.8826694483
 H   -1.5553718557   -1.5766833811   -0.0084649793
 H   -2.0076134324   -0.1165396343    0.8856944105
 H    0.1617352698   -0.7205891427   -2.1545107970
 H    2.0139036318   -2.4857242937   -1.3287228565
 H    2.0143927748   -2.5036484119    1.2977651086
 H    0.1625425111   -0.7499311855    2.1482552726