18

 C   -0.2587027693    1.3288898292    0.5045544498
 N   -0.2065601883   -0.1207988694    0.4239100590
 C   -1.1346659977   -0.7563752852   -0.1328519586
 C   -1.2115983888   -2.2687829269   -0.2725258256
 C   -2.5657530187   -2.5280235105   -0.9051650693
 C   -3.7729346882   -2.0352233677   -0.1335950630
 O   -3.6032501537   -1.7398436458    1.2164448083
 C   -3.1368763936   -1.1587014279   -1.1844267552
 O   -2.2518011760   -0.1719393490   -0.7109591232
 H    0.4930615265    1.7577106314   -0.1693003294
 H   -1.2335762772    1.7610372696    0.2507868696
 H    0.0142340033    1.6379704314    1.5192523139
 H   -0.4011810312   -2.6260405352   -0.9142843124
 H   -1.0926855796   -2.7312156987    0.7093840580
 H   -2.6837924675   -3.3498347445   -1.5999954028
 H   -4.7301389334   -2.4865715203   -0.3942218705
 H   -3.8794678333   -0.8289218469    1.3652154668
 H   -3.6506826733   -0.8628451436   -2.0910285255