15

 O   -0.0427157460   -0.0683726295   -0.0690281313
 C   -0.0635628318    1.1436227905   -0.0007798256
 C   -1.3062342106    1.9413796484    0.0641763981
 C   -1.1830076484    3.2728475535    0.1372801321
 C    0.1785303601    3.8973349173    0.1508817785
 C    1.2678732822    3.2998735418   -0.7923380324
 O    2.3161509318    3.8030250385    0.1116855327
 C    1.2960525556    3.1995319241    0.9860377638
 C    1.2104392682    1.9712252203    0.0258388962
 H   -2.2548729859    1.4173393246    0.0497700197
 H   -2.0510944589    3.9232721960    0.1877874677
 H    0.1928000319    4.9852981006    0.2120436413
 H    1.4029657877    3.4416624361   -1.8651437060
 H    1.4652091297    3.2200076232    2.0631789159
 H    2.1086523943    1.3563972246   -0.0230592707