16

 O    0.4896325495    1.9346103934   -2.3681394248
 C    0.8466344047    1.2756869915   -1.4284377668
 C    1.2499732407    1.8765941121   -0.0740205823
 O    1.4261156681    1.1157251894    0.8531624320
 C    1.4272016257    3.3704154650   -0.0049516599
 C    1.4615852477    4.0635005453    1.3766287136
 C    2.8974975893    4.4646762888    1.0461773364
 C    3.7277524339    3.2868947486    0.7513809499
 N    2.8607534750    3.8107534989   -0.3325745698
 H    0.8856338319    0.1659707396   -1.4338460672
 H    0.7712300990    3.8498769506   -0.7318060294
 H    0.7674006261    4.9026796167    1.4342621750
 H    1.3323970629    3.4210757670    2.2506228493
 H    3.3147866923    5.4574433099    1.1754220213
 H    4.7773993926    3.4546320498    0.5322798538
 H    3.5018319706    2.3291233833    1.2118071890