19

 C    0.0421233606    1.5082958174    0.0179111608
 C   -0.0587669904   -0.0282730213   -0.0499034280
 C   -1.5366698653   -0.4760753772   -0.0430350913
 O   -2.2467385683    0.0095589581    1.0701439501
 C    0.7604268172   -0.6263641754   -1.2061199843
 C    2.1355418666   -0.8629957274   -0.5642080103
 O    1.8774559845   -1.0786542502    0.8381786018
 C    0.6492029201   -0.6253264001    1.1706134408
 O    0.2167513494   -0.7125706938    2.2919184510
 H    1.0805534889    1.8488793695    0.0792146904
 H   -0.4076315167    1.9452931977   -0.8796369869
 H   -0.5003662605    1.8814112434    0.8880197890
 H   -2.0349311171   -0.0839032204   -0.9376072457
 H   -1.5739058408   -1.5771035587   -0.1030167173
 H   -1.7395446092   -0.2588704783    1.8514380596
 H    0.3273825431   -1.5804818710   -1.5259939939
 H    0.8185946369    0.0284641513   -2.0782095376
 H    2.6549478814   -1.7456861679   -0.9416247585
 H    2.7984673394    0.0032353644   -0.6635211696