21

 C   -0.1222977639    1.5395857335   -0.0160650444
 C    0.0671761861    0.0247980059   -0.0359122714
 C    0.9551419627   -0.5287577298   -1.1790537366
 C    1.1751282489   -2.0034739180   -0.7225607341
 C    1.9779104226   -1.3133889805    0.4037435599
 O    2.8863503453   -2.0293744998    1.1721497401
 C    2.3969631633   -0.2547551159   -0.6693160504
 C    0.8768120150   -0.5692107002    1.1743131158
 O    1.5197197921    0.3695103034    2.0295389826
 H    0.8296482873    2.0715739282    0.0482467256
 H   -0.6383996464    1.8706164430   -0.9234031406
 H   -0.7331297536    1.8534429948    0.8382444764
 H   -0.9206472251   -0.4494207187   -0.0793891735
 H    0.6557443163   -0.2904681165   -2.1993191167
 H    0.2999094828   -2.5998381307   -0.4450807244
 H    1.8232105379   -2.5662549810   -1.3972898915
 H    3.1005439377   -1.4708617172    1.9301689204
 H    3.1618682552   -0.6531832300   -1.3386612259
 H    2.6624684178    0.7491191065   -0.3339863297
 H    0.2774505462   -1.2682197970    1.7729354031
 H    0.8677220518    0.7366312700    2.6329939851