15

 C   -0.0229360864    1.4814519759    0.0104963502
 C    0.0025070090    0.0269783731    0.0027943997
 C    0.0271102079   -1.1797959691   -0.0035678454
 C    0.0332807615   -2.5955449509   -0.0110088552
 C    1.1512057783   -3.4140305574   -0.0219000814
 N    0.7233455801   -4.7118200274   -0.0261312732
 C   -0.6500578292   -4.7550210109   -0.0182341066
 C   -1.1091064658   -3.4632578688   -0.0087366128
 H    0.9915127507    1.8961874654    0.0029079332
 H   -0.5466791942    1.8802705172   -0.8663203588
 H   -0.5297840105    1.8712524441    0.9011926525
 H    2.1988745381   -3.1625678737   -0.0268001329
 H    1.3266497087   -5.5151218878   -0.0339226946
 H   -1.1765515168   -5.6955924521   -0.0200153496
 H   -2.1401304613   -3.1474090577   -0.0009538751