16

 C   -0.0536714718    1.5285303187   -0.0333193735
 C    0.0089628970    0.0071604759   -0.0264836189
 N    0.9144812977   -0.3951227750   -1.1827931469
 C    1.6315805366   -1.2802310749   -0.6372593837
 O    2.9688877405   -1.0425764665   -0.2617896127
 C    2.3490862893   -1.0612354914    1.0957847686
 C    0.7490311590   -0.6143629819    1.1915709629
 C    1.2315161086   -1.9326073102    0.7557658886
 O    0.7808688817   -3.1773284172    1.0992698589
 H    0.9537498599    1.9519622700   -0.0105095333
 H   -0.5588802169    1.8891954036   -0.9324716154
 H   -0.6063867006    1.8785653897    0.8463792230
 H   -1.0075143856   -0.4090016327   -0.0933040982
 H    3.0387062772   -0.9607515443    1.9251758061
 H    0.4152192272   -0.4395251856    2.2130849888
 H    1.4555813003   -3.8272987181    0.8686477059