18

 C    0.0942833399    1.5883167043    0.0185110745
 C    0.0500333446    0.0751405514    0.0307294670
 C    0.5891862992   -0.6785270314   -1.1490978319
 C    1.3733155105   -0.6755038391    0.1448729251
 C    1.3700260360   -2.1061479143    0.6279557590
 O    1.9971144796   -2.5481904613    1.5571348942
 C    0.5947762559   -2.9324585374   -0.3828421483
 C   -0.8544685668   -2.6634630365   -0.6193388109
 N    0.1574393841   -2.0542249087   -1.4802584993
 H    0.9613379289    1.9555202655   -0.5396027168
 H   -0.8057783965    1.9989886440   -0.4512390105
 H    0.1578377821    1.9883340661    1.0356274441
 H   -0.7988891423   -0.3304292284    0.5694864871
 H    0.9130801141   -0.1174949679   -2.0186171199
 H    2.2792482544   -0.1053292205    0.3149699023
 H    1.0181650515   -3.9017375858   -0.6306929615
 H   -1.4496331420   -3.4343215559   -1.1011856181
 H   -1.4073397332   -2.0611740741    0.0922344539