18

 C    0.0247316680    1.6518793037   -0.1672950450
 C    0.0288312735    0.1546484394    0.1072730044
 C    0.4838764008   -0.8223266914   -0.9958520004
 N    1.8772438612   -0.4761726484   -1.3033460297
 C    1.5908967684   -1.3910512838   -0.1463892730
 C    2.2065108208   -2.7616701339   -0.0919974979
 O    2.1750449083   -3.4021490983   -1.3620985387
 C    1.1648411302   -0.4684718105    0.9785864257
 O    1.4564905123   -0.3834666197    2.1363935735
 H    0.9438973293    1.9468571232   -0.6782616271
 H   -0.8284247327    1.9367778909   -0.7916882517
 H   -0.0448811210    2.2083405600    0.7723561657
 H   -0.9217581025   -0.1710230360    0.5490462526
 H   -0.1423213659   -1.3469284005   -1.7070975368
 H    2.1895666867   -1.1136545383   -2.0398928549
 H    3.2643243969   -2.6834363848    0.1812092161
 H    1.7147470185   -3.3652952968    0.6833820228
 H    1.2733906271   -3.6998642750   -1.5203596856