16

 C    0.1446634110    1.5029143463   -0.0394681798
 O    1.2277684512    0.5735016743   -0.0742601172
 C   -0.1080653254    0.0568280940   -0.0130449574
 C   -0.4850774781   -0.6648277435    1.2486426836
 C   -2.0115563563   -0.9721588508    1.5045465611
 C   -1.6605961194   -2.4654662352    1.5137658891
 O   -1.0603537227   -2.7613377242    0.2466936621
 C   -0.2368147675   -2.1881759166    1.2694159557
 H    0.0548533906    2.0816787956    0.8796337370
 H   -0.0214252923    2.0655544037   -0.9572163213
 H   -0.4432668983   -0.4242495520   -0.9316696263
 H   -0.0288915211   -0.1696750074    2.1101795358
 H   -2.3516073000   -0.5918059637    2.4701495160
 H   -2.7138167091   -0.6692134169    0.7237517064
 H   -2.1459098317   -3.2831828378    2.0328868815
 H    0.6590173691   -2.7304029056    1.5476397337