19

 O    0.0235717784   -0.0694909809   -0.2344892204
 C    0.0693965654    1.1310679117   -0.1238697341
 C    1.3259394250    1.9253617686   -0.0682645434
 C    1.7585566325    2.9302278375    1.0583862465
 C    2.9017356772    2.9666661758   -0.0017394049
 C    2.7929478462    1.4107287032   -0.0803187860
 C    1.7926869159    3.0227081900   -1.0681767262
 C    1.8199492353    3.0742388153   -2.5531294392
 C    1.0911091207    4.1488600989   -1.7405434887
 H   -0.8647032325    1.7372219574   -0.0569281085
 H    1.1571201287    3.8352268035    1.1653100514
 H    2.0006317871    2.4784883931    2.0237866733
 H    3.8128565269    3.5645915041    0.0340118703
 H    3.1115859366    0.8557925145    0.8050426763
 H    3.1328905036    0.9389651266   -1.0034610793
 H    2.7443129126    3.3555344517   -3.0482784345
 H    1.2124296646    2.3725465844   -3.1162404315
 H    0.0062117294    4.1545357766   -1.7775296383
 H    1.5360048265    5.1383760379   -1.6981175326