15

 O   -0.0622313277   -0.0552380478    0.1085419907
 C   -0.0254231483    1.1525823049    0.0731826986
 N    1.1313361070    1.8931045261    0.0252836251
 C    1.2356351128    3.3554846450   -0.0269677328
 C    2.7948667272    3.5510495703   -0.0612857686
 N    3.3855014242    2.1861887403   -0.0630873483
 C    2.4203311931    1.3604950144   -0.0124855183
 C    3.2416864239    4.3324554576   -1.2090552385
 C    3.5815586824    4.9870127896   -2.1569470873
 H   -0.9271936555    1.7932911143    0.0786567338
 H    0.7579352546    3.7562722013   -0.9237488247
 H    0.7838935076    3.8165147870    0.8548907614
 H    3.1313694336    4.0523843017    0.8540074965
 H    2.5242317162    0.2828198575    0.0069237591
 H    3.8975691089    5.5614416178   -2.9926284866