19

 C    0.0055628970    1.6080955735   -0.0453417687
 C    0.0071006453    0.0839522858   -0.0037862585
 C   -1.3976020667   -0.5136265767   -0.0031599076
 C   -1.4022777782   -2.0533175942    0.0682901671
 C   -2.7497658108   -2.6052822627    0.1198917822
 C   -3.8717152103   -3.0339206757    0.1624540429
 O    0.6912618259   -0.4199276244   -1.1746039168
 C    1.9906267531   -0.7486951645   -1.0616796111
 O    2.6488216134   -1.1196794145   -1.9865306407
 H    1.0270898328    1.9992413761   -0.0399011198
 H   -0.4921788086    1.9638567410   -0.9520933490
 H   -0.5215580336    2.0132158720    0.8236195498
 H    0.5509938076   -0.2632845955    0.8869482396
 H   -1.9461580716   -0.1060785716    0.8524054665
 H   -1.9257069191   -0.1884255199   -0.9057456662
 H   -0.8699794788   -2.4548198731   -0.8012262322
 H   -0.8399507066   -2.3816329697    0.9532980652
 H   -4.8569192859   -3.4281147787    0.1975318969
 H    2.3718528651   -0.6476254773   -0.0258343396