19

 O    0.1051577978    1.4065894914   -0.2053450219
 C    0.0313436372    0.0173905571    0.0636742111
 C   -1.3816711441   -0.5419476686   -0.1084852967
 C   -1.4425326536   -2.0545680485    0.1281662512
 N   -2.7943179615   -2.5778933331    0.0433246450
 C   -3.3541377053   -3.2948374218   -0.9626475465
 C   -4.6713801054   -3.5142337536   -0.6148816654
 C   -4.8100779522   -2.8782314244    0.6345770255
 N   -3.6726195739   -2.3103128077    1.0303841594
 H   -0.4580578332    1.8593895221    0.4306600675
 H    0.7164197785   -0.4560116647   -0.6493685389
 H    0.4079567183   -0.2171514613    1.0731377794
 H   -2.0633149836   -0.0582829236    0.6013555051
 H   -1.7422684180   -0.3066120215   -1.1159546521
 H   -0.8370934253   -2.5894892109   -0.6100131263
 H   -1.0523957145   -2.3003448895    1.1210765151
 H   -2.7801433177   -3.5896579005   -1.8271955904
 H   -5.4132441853   -4.0575952306   -1.1768514255
 H   -5.6853319782   -2.8150053503    1.2646304944