19

 C   -0.1117680756    1.5285954174   -0.0601761580
 C    0.0472638572    0.0267953290    0.0482393001
 O    1.0724245275   -0.4951389799   -0.8676797499
 C    1.8239413471   -0.9709921610    0.2216141998
 C    2.7678273987   -2.1521560417    0.3107162599
 O    3.5296967496   -1.4412651215    1.3270100536
 C    2.8772714297   -0.1748844348    1.0429550697
 C    1.8014023104    0.2134687425    2.0882593879
 C    0.7601357840   -0.6153324028    1.2819951936
 H    0.8302623278    2.0509622237    0.1273433560
 H   -0.4508169917    1.7957248028   -1.0656447174
 H   -0.8576773447    1.8865975069    0.6578975764
 H   -0.9060119718   -0.4684280434   -0.1702206104
 H    2.3719331231   -3.1073000655    0.6738067630
 H    3.3647420748   -2.3204699938   -0.5964995203
 H    3.5708208397    0.5757402209    0.6533999170
 H    2.0118642846   -0.1830044793    3.0839816112
 H    1.5985257041    1.2849936012    2.1700090663
 H    0.1702547754   -1.3636993908    1.8111022015