15

 O   -0.1856727113    1.3308659671   -0.1366098938
 N    0.0059583640   -0.0572387700   -0.1345660205
 C   -1.0982589860   -0.6666738471    0.0017781639
 C   -2.4741103031   -0.0422734808    0.1443674983
 N   -3.3557769660   -1.1989369399    0.0692646652
 C   -2.7296715608   -2.3898081541   -0.1331044630
 O   -3.2300677277   -3.4554569080   -0.4250329192
 C   -1.2171954627   -2.1709120587    0.0437541961
 O   -0.4915456910   -2.8490623811   -0.9467513596
 H    0.7080587307    1.6630507473   -0.2751508212
 H   -2.5704778128    0.4981564687    1.0945551242
 H   -2.6574894840    0.6780854066   -0.6616021136
 H   -4.3533765196   -1.1183577993   -0.0531783317
 H   -0.9448954667   -2.5302562322    1.0527272482
 H   -1.0137539329   -3.6405149086   -1.1453126833