17

 C    0.0113714658    1.5271420390   -0.0498965393
 C   -0.0105298392    0.0197510857   -0.0007014989
 C    1.2273590967   -0.7592807191   -0.2153764637
 N    0.6575154632   -0.6196468877    1.1595792527
 C   -0.0990109044   -1.7901343092    1.5137428997
 O    0.1872894820   -2.5093076360    2.4276456059
 C   -1.2977433352   -1.9644457450    0.5652578878
 C   -1.3420858283   -0.6859217161   -0.2835783995
 H    0.9920789337    1.9152030135    0.2359352520
 H   -0.2178539302    1.8803784006   -1.0615658270
 H   -0.7346475895    1.9486705868    0.6320865273
 H    1.1655303087   -1.7363615273   -0.6892206136
 H    2.1786464939   -0.2535116705   -0.3492337828
 H   -1.1279053893   -2.8707583554   -0.0252325750
 H   -2.2038404983   -2.1414089581    1.1482942479
 H   -2.1604633401   -0.0345765788    0.0388146069
 H   -1.4860289095   -0.8778747523   -1.3508075704