15

 O    0.4277137122    0.7688141272    0.8400910155
 C   -0.0188844936    0.1225332090   -0.3215280029
 C   -1.4281931427   -0.4139593277   -0.1870023986
 N   -2.0374512622   -0.2059531361    0.9813802331
 C   -3.2779209281   -0.6678525239    1.1256096576
 C   -3.9234398805   -1.3463842883    0.0947240973
 O   -5.1869758538   -1.7984990455    0.2878405903
 C   -3.1974100795   -1.5108292169   -1.0870427848
 N   -1.9595691699   -1.0509213397   -1.2334237836
 H   -0.3062886421    0.7120498758    1.4700305573
 H    0.0054857988    0.8077091883   -1.1831985713
 H    0.6439531355   -0.7180004484   -0.5796723040
 H   -3.7812555021   -0.5024703303    2.0746319821
 H   -5.4972537911   -2.2446367677   -0.5081722586
 H   -3.6377048709   -2.0323538556   -1.9382040694