23

 C   -0.0180066941    1.5617292833    0.0636818430
 C   -0.0175124870    0.0318725428    0.0094951243
 C   -1.4165714670   -0.5737019175    0.0187992585
 C   -1.4282991847   -2.1014094385   -0.1025598476
 C   -2.8536794043   -2.6121074534    0.1157858948
 O   -3.3870009909   -2.1031495248    1.3297027331
 C   -3.3581315360   -0.6947179066    1.3608304254
 C   -3.9271926983   -0.2356738056    2.6856404344
 O   -2.0458497924   -0.1952088618    1.2441660196
 H    1.0027843807    1.9549698734    0.0815439501
 H   -0.5245545498    1.9883948692   -0.8094696398
 H   -0.5378047110    1.9138848019    0.9579607281
 H    0.4978109925   -0.3159877989   -0.8944352862
 H    0.5358216960   -0.3739379470    0.8651503766
 H   -2.0005851169   -0.1489852380   -0.8194123252
 H   -1.0590151683   -2.4110453315   -1.0868737376
 H   -0.7671828874   -2.5270764042    0.6606861003
 H   -3.4953172256   -2.3106050480   -0.7304327668
 H   -2.8889309716   -3.7020543157    0.1928385996
 H   -3.9576887485   -0.3118309493    0.5098141540
 H   -3.3139460267   -0.6278491912    3.5005831993
 H   -3.9280432622    0.8555527600    2.7334626941
 H   -4.9493026764   -0.6033040985    2.8003727980