21

 C    0.0043596880    1.3027547371   -0.5994708828
 O   -0.0660265824   -0.0502949878   -0.2140218094
 C   -1.3155370469   -0.5744211797    0.1623660795
 C   -2.0993021740   -0.0061823186    1.3096661381
 C   -2.6254917050    0.1185509044   -0.1113356039
 C   -1.2558662994   -2.0739145276   -0.0217160657
 C   -1.0286104958   -2.5437135006   -1.4399956334
 C   -0.8585285152   -2.9140749188    1.1163441798
 O   -2.2338383453   -2.8060558998    0.7245091109
 H    1.0599507209    1.5124959863   -0.7883296047
 H   -0.5635791914    1.5024985428   -1.5183386707
 H   -0.3462466926    1.9872558660    0.1866240381
 H   -2.5948208644   -0.7026939297    1.9749706679
 H   -1.7195868183    0.8951068486    1.7786736286
 H   -2.6251233187    1.1030090187   -0.5635786220
 H   -3.4666782309   -0.5044255656   -0.3959395605
 H   -0.0940317710   -2.1294497673   -1.8261360197
 H   -0.9838362581   -3.6345460725   -1.4821722002
 H   -1.8440549821   -2.2062308702   -2.0885347945
 H   -0.4016950301   -3.8856410458    0.9349516563
 H   -0.6095943273   -2.4471161901    2.0673716783