18

 O    0.1502603730    1.3791324972    0.3609826485
 C    0.1218209438   -0.0055957449    0.0657950422
 C   -1.2751983790   -0.5359439897   -0.0780646267
 C   -2.1722678957   -0.9040648160    1.0669125881
 C   -1.7271944473   -1.9619261022    0.0692576602
 C   -2.6429659541   -2.2295955039   -1.1085312578
 C   -2.7919640570   -0.8734639479   -1.7842423466
 N   -3.5747765367   -0.6100074827   -2.7361134697
 O   -1.9414455750    0.0357130842   -1.2012366141
 H   -0.3215873125    1.8277735277   -0.3492013973
 H    0.6882253443   -0.2319613290   -0.8512973945
 H    0.6170143479   -0.5136646617    0.8990884553
 H   -1.7295348274   -0.9368275640    2.0562902054
 H   -3.2014312627   -0.5600184386    1.0390939893
 H   -1.0434627727   -2.7358558389    0.3968135455
 H   -2.1934393793   -2.9362076050   -1.8135055125
 H   -3.6256918561   -2.6236364775   -0.8375925799
 H   -3.4930820835    0.3695882030   -3.0127864956