21

 C    2.2478184065    1.2470024841   -1.4355427583
 O    2.0226877280   -0.1399845788   -1.4825792194
 C    0.7084157101   -0.4950438446   -1.1034588417
 C    0.6187341517   -2.0147537648   -1.0432352530
 O    1.0793067509   -2.3517349156    0.2478740121
 C   -0.6669967165   -2.7289537322   -1.6117918839
 C   -0.1401651413   -2.3853641742   -3.0375598777
 C    1.1103238903   -2.8740770766   -2.2538116972
 C    0.1908500080   -4.0241144635   -1.7224592171
 H    1.5733891388    1.7966657484   -2.1127812496
 H    2.1112768828    1.6496170923   -0.4192257156
 H    3.2799434484    1.4229335262   -1.7490684826
 H    0.4754056081   -0.1060852509   -0.1003965842
 H   -0.0222561764   -0.0604449893   -1.8004165261
 H    1.3918504123   -3.2600321482    0.2512233148
 H   -1.6909630137   -2.6472445483   -1.2434793414
 H   -0.4811320236   -3.0539192222   -3.8308347865
 H   -0.1606799819   -1.3480624797   -3.3689153465
 H    2.1330796495   -2.9541659434   -2.6225002664
 H    0.4608636183   -4.5390307315   -0.7972923494
 H   -0.1348018404   -4.7520364071   -2.4692799304