17

 C   -0.3787173415    1.5494848064   -0.0665346003
 C    0.0374228456    0.0724556574    0.0490360665
 C    0.7796517782   -0.4359730429   -1.1387655199
 C    2.0382904532   -0.8869120214   -1.2548788049
 N    3.0416035235   -1.0289668040   -0.3028212973
 O    2.2830747240   -1.2499969076   -2.5876938007
 C    1.1406953845   -1.0177704707   -3.3224957803
 O    1.0231522817   -1.2285001018   -4.4997059508
 N    0.2259137692   -0.5153337277   -2.4237096417
 H    0.4977498286    2.1926715902   -0.1868441011
 H   -1.0365238813    1.7194415598   -0.9253787030
 H   -0.9171642883    1.8670531418    0.8309618079
 H    0.6859079103   -0.0686137571    0.9178610037
 H   -0.8563241032   -0.5442484294    0.2164916526
 H    3.8605396975   -0.4692415319   -0.5226676055
 H    3.3462214867   -1.9937453911   -0.2088365006
 H   -0.7089577387   -0.2685446899   -2.6965218448