13

 C   -0.1848599503    1.2423351209   -0.3794143205
 C    1.2121519911    1.1649980482    0.1426333752
 N    0.3289985394   -0.0005401636    0.1766240131
 C   -0.1667217633   -0.4862577140    1.3550800646
 N   -1.4146676814   -0.5865105986    1.7276359236
 C   -1.2803770340   -1.2307040575    2.9297581484
 N   -0.0615024354   -1.5102175253    3.2988390604
 O    0.7079364235   -1.0049258718    2.2270737052
 H   -0.9215996781    1.7785383688    0.2109158543
 H   -0.3667050423    1.2225696111   -1.4488585666
 H    2.0498915043    1.0824472065   -0.5416191746
 H    1.4289484500    1.6546268355    1.0876114416
 H   -2.1215868735   -1.4970722002    3.5540360152