20

 C    0.0326084126    1.5604448388    0.0284891271
 C    0.0089179329    0.0336947303   -0.0145842029
 C    0.6520275179   -0.5167528465   -1.3014110981
 C    0.6622692535   -2.0572781354   -1.3129633943
 O    1.3689189129   -2.5665921145   -2.4090197127
 C    1.2436287597   -2.5766558341   -0.0029463195
 O    2.1480198928   -3.3858791569   -0.0135996231
 C    0.6530759619   -1.9644462566    1.2576763292
 N    0.6419243046   -0.4984440741    1.2027028427
 H    1.0632090591    1.9346234680    0.0036160640
 H   -0.4930953329    1.9831878043   -0.8324291101
 H   -0.4398947354    1.9256709909    0.9436634196
 H   -1.0398063525   -0.2985117884    0.0184499816
 H    0.1299533423   -0.1554434235   -2.1945514853
 H    1.6902650756   -0.1664691382   -1.3732165376
 H   -0.3884177837   -2.4042367664   -1.3403888881
 H    2.0095177852   -3.1898178410   -2.0291196462
 H   -0.3822469111   -2.3149749922    1.3733933886
 H    1.2216062777   -2.3063765081    2.1258157912
 H    1.5981883867   -0.1555499765    1.2569339938