25

 C   -0.2502576265    1.5011092443    0.2127785091
 C    0.0916042489    0.0138848381    0.0560985051
 C    0.7614450185   -0.4160977740   -1.2625650399
 C    0.2850050326    0.2949107873   -2.5594778878
 O    1.6245846597    0.7267368844   -2.8705806884
 C    2.1130336616    0.2732966020   -1.5933627098
 C    0.7811929529   -1.9646772564   -1.3934580179
 C    1.4733339441   -2.4877085869   -2.6652931558
 C    1.4046636957   -2.6578190942   -0.1690578726
 H    0.6146139358    2.1465571818    0.0293600478
 H   -1.0475884958    1.8163948579   -0.4663426146
 H   -0.5958257624    1.6990901423    1.2321977629
 H    0.7542359614   -0.2734664380    0.8806000988
 H   -0.8257825875   -0.5747921114    0.1935056851
 H   -0.1392051107   -0.3429511969   -3.3434501979
 H   -0.3865811715    1.1478684762   -2.4081858752
 H    2.3732184013    1.1129255694   -0.9349436599
 H    2.9930766705   -0.3722202747   -1.6941778014
 H   -0.2749801617   -2.2698198555   -1.4466560320
 H    1.2910303730   -3.5622257167   -2.7670036829
 H    1.1204831459   -2.0035905593   -3.5782221924
 H    2.5583740015   -2.3491551044   -2.6170392843
 H    0.8385979345   -2.4835789322    0.7487359950
 H    1.4474602996   -3.7400709325   -0.3278165034
 H    2.4325415486   -2.3131759607   -0.0019724076