19

 C   -0.0303590951    1.6463156929    0.1769164358
 C    1.4590248722    1.2349774106    0.0537657747
 C    1.1216474479    0.0233849050    1.0072954451
 C   -0.0013046217    0.0905039833   -0.0458330774
 O   -1.0681352622   -0.7517010473   -0.2957595661
 C   -1.5638884715   -0.4553201098   -1.6048683806
 O   -0.5879725298   -0.4623881460   -2.6098244476
 C    0.4111225189    0.5662599585   -2.4598116619
 C    1.0852115127    0.2788178144   -1.1266577983
 H   -0.3604058690    1.9791577785    1.1637287035
 H   -0.4424190554    2.2827548700   -0.6056109823
 H    2.3243221315    1.8885661371    0.1364401239
 H    1.7882330475   -0.8407729568    0.9544423167
 H    0.8638771433    0.2818129704    2.0373763682
 H   -2.2736642207   -1.2472634443   -1.8471355232
 H   -2.0739122115    0.5232953083   -1.5763582454
 H    1.0774450028    0.4565412118   -3.3183579672
 H   -0.0591977332    1.5568119131   -2.5171439964
 H    1.7515874131   -0.5831245098   -1.2286434918