25

 C   -0.0703460226    1.4233120933    0.0517076080
 O    0.0155681835    0.0215915426   -0.0064116375
 C    0.6564822171   -0.5380118865    1.1194799824
 C    0.6966746344   -2.0517047687    0.9572978820
 C    1.3965144819   -2.7466001258    2.1305763095
 C    1.3697637160   -4.2837707567    2.0688213755
 C    2.1272468634   -4.8488954486    0.8601840561
 C    1.9205109812   -4.8660886238    3.3722522976
 O    1.7411636860   -6.2753940457    3.3515114012
 H    0.9249971598    1.8944385359    0.0989590330
 H   -0.5758616937    1.7601869197   -0.8568832144
 H   -0.6487862955    1.7639665464    0.9259387633
 H    1.6801338329   -0.1339682352    1.2175742766
 H    0.1165949474   -0.2636214681    2.0434719076
 H   -0.3323541185   -2.4194964078    0.8617949487
 H    1.2005564853   -2.2803080902    0.0123578845
 H    2.4411194834   -2.4069902640    2.1853583164
 H    0.9221518016   -2.4223553112    3.0675231298
 H    0.3213152195   -4.6071401550    2.0016925794
 H    2.1466942850   -5.9399938334    0.9039117981
 H    1.6636433730   -4.5527137450   -0.0846104396
 H    3.1649899675   -4.4917636572    0.8506069558
 H    2.9877482513   -4.6034596261    3.4694737272
 H    1.3926591459   -4.4164072287    4.2288711100
 H    2.1599045241   -6.6443222102    4.1340661188