22

 C   -0.1551185168    1.6451089713   -0.1281970008
 C   -0.0638323918    0.1274244338   -0.0587845255
 C    1.1708963962   -0.5836422308   -0.6539744709
 C    2.0521925222   -0.2980688956    0.5988755270
 C    0.6036993839   -0.5334176429    1.1684791251
 C    1.0357713042   -1.7999487848    0.3209791864
 C    0.3067852560   -3.0947419910    0.1143421796
 N    2.4941131717   -1.7213536042    0.6757737257
 C    2.8554881587   -2.2004592826    2.0060937565
 H    0.7884071189    2.1219031581    0.1575918915
 H   -0.4024830419    1.9794465233   -1.1420343346
 H   -0.9352100666    2.0237134700    0.5417548000
 H   -1.0204929172   -0.3280446948   -0.3438596244
 H    1.5281213728   -0.6354795928   -1.6834202598
 H    2.7296147869    0.5378711509    0.7779246276
 H    0.2765093468   -0.5021648773    2.2087129517
 H   -0.7245825514   -2.9132682969   -0.2048993360
 H    0.8044365875   -3.6954447851   -0.6538724014
 H    0.2725908833   -3.6828365980    1.0378992909
 H    2.8990056736   -3.2947306076    1.9991866183
 H    3.8556160634   -1.8330060861    2.2600616497
 H    2.1649586396   -1.8905811670    2.8092859836