19

 C    0.3844396824    1.6418838006   -0.1392625908
 O    1.6972983548    1.3557971418    0.4039609231
 C    1.3385170174   -0.0168476276    0.6659473044
 C   -0.0159159074    0.1616299588   -0.0795280034
 C    0.5043079295   -0.7667015337   -1.2275734589
 C    1.0050658292   -0.1797992399   -2.5574923748
 C    2.4827565414    0.1801755165   -2.2755746960
 O    2.9186248605   -0.6887891378   -1.2268987868
 C    1.8183095476   -1.0265583026   -0.4261157021
 H   -0.1917393125    2.2825787878    0.5409466888
 H    0.4351186102    2.1265950881   -1.1207877471
 H    1.4612008429   -0.2871281350    1.7188848853
 H   -0.9882810842   -0.0876804449    0.3419339308
 H   -0.1349053915   -1.6375729318   -1.3782736428
 H    0.9455639837   -0.9459160923   -3.3358598489
 H    0.4289582375    0.6827665683   -2.9033622333
 H    3.1334357862    0.0040009252   -3.1374380717
 H    2.5890890603    1.2250794820   -1.9651478889
 H    1.9706684419   -2.0355729637   -0.0300307769