24

 C   -0.0915631414    1.5195967654    0.1391932415
 C   -0.0085170133    0.0014446344   -0.0592703475
 C    0.7481916088   -0.4913065559   -1.3294751037
 C    0.0457070862    0.0185562932   -2.5998028352
 C    2.2116158977    0.0095139252   -1.3346933156
 C    0.7556630441   -2.0204636087   -1.2878113949
 C    1.4536725646   -2.7607559075   -0.1731439605
 N    0.1447756445   -2.6346154150   -2.2277459970
 O    0.2176845445   -4.0318832040   -2.0722310541
 H    0.8980463879    1.9771712522    0.2331401019
 H   -0.6137195430    2.0156578032   -0.6840219119
 H   -0.6424945788    1.7457045119    1.0577122000
 H    0.4628209913   -0.4359469247    0.8286259032
 H   -1.0248965355   -0.4099234931   -0.0968343603
 H    0.0866791180    1.1104882893   -2.6438884460
 H    0.5276984607   -0.3760495067   -3.4972844355
 H   -1.0014549835   -0.2920852947   -2.6295499242
 H    2.7487385527   -0.2621206464   -0.4210884696
 H    2.7580426665   -0.4104636642   -2.1851751704
 H    2.2455556877    1.0986028539   -1.4264603941
 H    0.7421172897   -3.4036045828    0.3547568213
 H    2.2174169590   -3.4265574023   -0.5875800711
 H    1.9236483399   -2.0903067872    0.5456907771
 H   -0.2743924682   -4.3422673156   -2.8393080932