17

 C   -0.0466221055    1.3919031873    0.0858615076
 C    1.3513114237    2.0039038555   -0.0171615541
 C    2.0917353173    1.5534336531   -1.2842286129
 O    1.1996607474    1.4737780662   -2.3892976340
 C    0.7708665121    0.1377072463   -2.4625566467
 C    1.7711122157   -0.6735039775   -1.6715025751
 O    2.6648601000    0.2609695847   -1.1259141818
 C    0.3305392067   -0.5945661531   -1.1986046316
 O   -0.0403198771   -0.0280039906    0.0161895198
 H   -0.4927500140    1.6302075100    1.0549894506
 H   -0.6909000132    1.8059243608   -0.7000324772
 H    1.2523952828    3.0962686970   -0.0307198057
 H    1.9643243414    1.7324621429    0.8477695895
 H    2.8979051178    2.2481287805   -1.5407334625
 H    0.3621991837   -0.1073870524   -3.4350285661
 H    2.2568464657   -1.5922304614   -1.9762021939
 H   -0.2557901144   -1.4879398194   -1.4071320558