18

 C    0.6467507382    1.3986649352    0.2510800238
 O    0.9273320984    0.0214690779    0.3389515408
 C   -0.1700140455   -0.7339073501    0.8042253122
 C    0.2554573997   -2.1610380243    0.8500007202
 C    1.0176053677   -3.0377850406   -0.1074874996
 C    0.1323877866   -4.2146084306    0.3725371644
 C    0.5990842320   -4.0304208841    1.7707194577
 C    1.5017310097   -2.8466841444    1.3430271689
 N   -0.6442338695   -3.3142917293    1.3022728321
 H    0.3791401671    1.8237574876    1.2311446037
 H    1.5502955323    1.8925964122   -0.1141414863
 H   -0.1789945925    1.6028774319   -0.4484165184
 H   -0.4846879177   -0.3994571744    1.8084863178
 H   -1.0423096567   -0.6192080754    0.1368707109
 H    1.5251733521   -2.8020102417   -1.0310221063
 H   -0.3297717222   -5.0567234734   -0.1288397155
 H    0.5902754710   -4.6936407352    2.6275693797
 H    2.4368534693   -2.4419949411    1.7006510740