15

 O   -0.0302750868   -0.1045088685    0.5886956458
 C    0.0345382564    1.0041083757    0.1084052884
 C    1.2320831091    1.8001327256    0.0563120492
 C    2.2210062084    2.4943443464   -0.0023038985
 C    3.4214884550    3.2667475813   -0.0585643022
 C    3.7127942192    4.1386429501   -1.2554467754
 C    3.3899612804    4.8065215875    0.0578835698
 C    2.0893978577    5.5100614133    0.2045077243
 O    1.9408283356    6.5115886948    0.8566278655
 H   -0.8539566071    1.4952729408   -0.3381569364
 H    4.2802558028    2.8112334611    0.4248461537
 H    4.7362962947    4.1863642031   -1.6069113764
 H    2.9567095069    4.1729609471   -2.0319680729
 H    4.2034073142    5.2498467429    0.6207419838
 H    1.2460286934    5.0446694689   -0.3518692987