19

 C   -0.2652852473    1.4790513398   -0.6173395115
 C   -0.1101113416    0.0346742097   -0.1749404773
 O   -1.4006078042   -0.5204175510   -0.0006049617
 C   -1.3549891817   -1.8705046577    0.4136039332
 C   -2.7056053361   -2.3922331365    0.5768869707
 C   -3.8140762927   -2.8339113728    0.7329616255
 C   -5.1503566351   -3.3934244601    0.8650731292
 C   -5.5302052522   -4.2874785552   -0.3181411201
 O   -6.1714569807   -5.2964523593   -0.2100551127
 H    0.7162697474    1.9398526196   -0.7626066652
 H   -0.8185946762    1.5339318563   -1.5589374257
 H   -0.8118438302    2.0537243494    0.1355109295
 H    0.4538365443   -0.5440527854   -0.9265227165
 H    0.4592557622   -0.0242499238    0.7685167077
 H   -0.8068660915   -2.4829702550   -0.3239863380
 H   -0.8043498868   -1.9651092541    1.3661622851
 H   -5.2741634302   -3.9714752285    1.7866768191
 H   -5.8925913581   -2.5807633352    0.8969185835
 H   -5.1723009094   -3.9161553402   -1.3027808948