21

 C   -0.0154147102    1.7640011312   -0.2384918451
 C   -0.0102954820    0.2451109976   -0.1285187237
 C   -1.3991994862   -0.3606243981    0.0928301677
 C   -2.0234010971    0.0274001027    1.4496699770
 C   -3.2792931661   -0.6664897514    1.7041877607
 C   -4.3137456940   -1.2510139945    1.8874515364
 C    0.8388413811   -0.4971190460   -1.1959037089
 C    1.7015080767   -0.9480627585   -0.0028619243
 O    0.9029862109   -0.1890286034    0.9269671722
 H    0.9988463498    2.1352491454   -0.4094570049
 H   -0.6493200379    2.0906331098   -1.0702312838
 H   -0.3879132629    2.2268034300    0.6800091507
 H   -2.0644732233   -0.0621458181   -0.7262302082
 H   -1.3160478755   -1.4517902006    0.0528762636
 H   -1.2990211095   -0.2058198571    2.2389076187
 H   -2.1957768576    1.1093814568    1.4949057520
 H   -5.2276491091   -1.7612846545    2.0641680969
 H    0.3196004779   -1.2895934349   -1.7376247114
 H    1.3422064344    0.1560419264   -1.9109404481
 H    1.6787059726   -2.0223991470    0.2180557544
 H    2.7460146478   -0.6147176858   -0.0104506322