20

 C    0.0832211358    1.4974717344   -0.1686746153
 N    0.0082075459    0.0483439390    0.0180847170
 C    0.7493937355   -0.3383843530    1.2182339754
 C   -1.3284655122   -0.5169388503   -0.0570401821
 C   -2.1665738748    0.0614005250   -1.1988365110
 C   -1.4246653488   -2.0673907388    0.0178894145
 O   -2.2518969595   -1.9785597027    1.2188059355
 C   -2.1581079025   -0.6072034172    1.2607596149
 O   -2.5918094398    0.1251111687    2.0918472901
 H    1.1359119958    1.7925745101   -0.1346258483
 H   -0.3053831213    1.7876525256   -1.1456349630
 H   -0.4531525693    2.0675484285    0.6084002699
 H    0.3325321477    0.0961016795    2.1423565668
 H    0.7708290833   -1.4239845141    1.3340265719
 H    1.7845217824   -0.0000912962    1.1193477285
 H   -1.6163255218   -0.0016584281   -2.1427724469
 H   -3.0962695387   -0.5046651568   -1.3010820009
 H   -2.4366044834    1.1029533058   -1.0137861594
 H   -1.9708532208   -2.5482529159   -0.7960449941
 H   -0.4974391534   -2.6035944235    0.2195809566