16

 O    0.0909483809    1.2947322763   -0.3244411626
 C    0.0512684788   -0.0062523687    0.2381317600
 C   -1.3327692916   -0.6151064856    0.1471286065
 C   -1.8836065020   -1.2778081161   -1.0822080094
 O   -0.8198635662   -2.0025705794   -1.7648223053
 C   -0.6798527997   -2.8563873539   -0.6680325815
 N   -0.0592456039   -3.9360661152   -0.5418366480
 C   -1.6484742160   -2.0993444955    0.1885756005
 O   -2.4428080905   -2.6225115442    1.1706278569
 H   -0.0659204988    1.2048672057   -1.2703130782
 H    0.7897620607   -0.6719720023   -0.2270796305
 H    0.3294789237    0.1100804867    1.2899654855
 H   -2.1036815715   -0.0590939736    0.6793707027
 H   -2.7619847540   -1.0238012658   -1.6583708473
 H    0.4462161926   -4.1843246693   -1.3937312058
 H   -2.6834329125   -3.5218209192    0.9159665964