18

 C   -0.0183700959    1.5200646994   -0.0419075591
 C   -0.0246658615    0.0275707454    0.0446157743
 N   -0.0365271826   -0.6860720672   -1.0656197630
 O   -0.0363051576   -2.0426777879   -0.6718134281
 C   -0.0326011958   -2.0646556466    0.6595919163
 C   -0.0263415985   -0.8207667187    1.1880612843
 C    0.0263242743   -0.8659466087    2.6876713461
 C   -0.2472786491   -2.3875513297    2.9719005246
 C    0.0139676477   -3.1822496607    1.6458330494
 H    0.8719774469    1.9359109963    0.4416448486
 H   -0.0294097470    1.8368440275   -1.0864321220
 H   -0.8922095985    1.9447306069    0.4634544640
 H    1.0076560196   -0.5576070743    3.0703206875
 H   -0.7151598318   -0.2305639330    3.1827430960
 H    0.3561577824   -2.7663910970    3.7997930332
 H   -1.2959304548   -2.5123114212    3.2555077810
 H   -0.7346994808   -3.9605133654    1.4703025409
 H    0.9945070330   -3.6746287352    1.6432585361