13

 C   -0.0691164433    1.5103657762    0.1402228595
 C    0.0250158537   -0.0049886620   -0.0517598664
 C    0.7386585556   -0.3991746079   -1.2949688657
 N    1.2524336919    0.3832878266   -2.1708853740
 O    1.8057449047   -0.4902604972   -3.1453048793
 C    1.5780613811   -1.7740391214   -2.7737619939
 O    1.8982645850   -2.7603250961   -3.3462624957
 O    0.8862453411   -1.7191685725   -1.5742092643
 H    0.9238351027    1.9628315177    0.1943434514
 H   -0.6045229729    1.9797147083   -0.6884230691
 H   -0.6022001632    1.7325809319    1.0674095425
 H    0.5423720472   -0.4791410788    0.7916406287
 H   -0.9718209235   -0.4623369249   -0.0828769137