15

 N    0.0321514445    1.1032846223    1.3942203367
 C   -0.0489065964   -0.0714001365    0.7223775742
 N    1.1337736788   -0.7436027459    0.4864771328
 N   -1.1874848944   -0.5552147600    0.2747139982
 H   -1.1702002540   -1.5034044062   -0.0801951616
 C   -2.4766609073    0.0695198302    0.2302422483
 C   -3.5822967384   -0.7756385783    0.3197954575
 C   -4.5085782500   -1.5582364831    0.3380682305
 C   -2.5013274875    1.4487916353    0.0826698337
 N   -2.3840815900    2.6136941338    0.0173073410
 H    0.9287451747    1.5638246628    1.3457657758
 H   -0.7559534456    1.7418308657    1.3022160345
 H    1.7911632161   -0.7091968188    1.2548452646
 H    1.0392588992   -1.6755231805    0.1089993607
 H   -5.3297477797   -2.2096918308    0.5017703130