19

 C    0.5252291528    2.1911051375    0.6823981956
 C    0.1156456122    0.7170811210    0.6523929110
 C    0.0446479077    0.1103127347   -0.7721691126
 O    0.5466354730   -1.2302327198   -0.7083045208
 C    1.1665654071   -1.4473714244    0.5257998411
 C    2.4211380556   -0.6399515940    0.8799881460
 C    3.2187213520    0.0956256619   -0.1263701989
 O    4.4153169469    0.2450228918   -0.0369789157
 C    1.0159081651   -0.2610728940    1.3991426749
 H    1.5144558136    2.3431380003    0.2394939171
 H   -0.1898255669    2.8065696366    0.1262955966
 H    0.5580741535    2.5673878372    1.7092379668
 H   -0.8722928670    0.6269371408    1.1212599435
 H   -0.9765515095    0.0706165813   -1.1647504875
 H    0.6494674747    0.6964572008   -1.4767239988
 H    1.1003891442   -2.4797692056    0.8496482497
 H    3.0514021571   -1.0853169787    1.6443907721
 H    2.6686236589    0.4932378983   -1.0031914019
 H    0.8844568090   -0.3506979458    2.4711091520