17

 C    0.0309565011    1.5491310961   -0.1084657893
 C    0.0044059910    0.0558557943    0.0016914286
 C    0.4242750740   -1.0825256981   -0.9487272627
 C    1.2085671081   -1.7586891623    0.1687363592
 C    0.4665932390   -0.8276203619    1.1986392943
 C   -0.7792445450   -1.5854653491    1.6254837851
 O   -1.0630914684   -2.0807943602    2.6749985715
 O   -1.5695440686   -1.7098647539    0.5063543166
 C   -1.0186588658   -0.8925954762   -0.5157243462
 H    1.0449026232    1.9441153213    0.0178834150
 H   -0.3312042888    1.8714096515   -1.0901288022
 H   -0.6069414916    2.0141695044    0.6518789994
 H    0.7011531526   -1.0369283039   -1.9958515832
 H    1.1064541558   -2.8404112103    0.3013443631
 H    2.2673868441   -1.4965767299    0.1255110708
 H    1.0406849046   -0.4127093895    2.0220246122
 H   -1.7575317750   -0.5970679724   -1.2488350323