16

 C    1.1918240563   -0.3979866809    0.7683753327
 C    0.5372854167    0.5539515998    0.4395818170
 C   -0.2490993526    1.7180253431    0.0422883655
 O    0.4669998552    2.6195283389   -0.8056709358
 C    1.4121573985    3.3690758182   -0.1934370718
 N    2.1151642145    4.1532942357   -0.8804368662
 C    3.1181296794    4.9828411123   -0.2248001851
 C    3.2561107841    4.8736149289    1.2311185729
 C    3.3523878389    4.7700799818    2.4254622591
 H    1.7694825804   -1.2417063257    1.0563184634
 H   -1.1191782182    1.4092629279   -0.5434412457
 H   -0.6200698662    2.2458870596    0.9315079495
 H    1.4834083680    3.2313606339    0.8916184923
 H    4.0865444590    4.7619238991   -0.6929384080
 H    2.9039919599    6.0278301471   -0.4854394906
 H    3.4548694260    4.6920516903    3.4797356106