18

 C   -0.0480494874    1.5281669801    0.2842757012
 C    0.0071010361    0.0487370751   -0.1245139900
 C   -1.3484658837   -0.5821924557   -0.1817199174
 O   -2.0395406316   -0.8486407582    1.0386280503
 C   -1.8712242286   -1.9293794101    0.1108555053
 C   -2.9991171209   -1.8079380979   -0.9177694834
 C   -2.4475967836   -0.3717164575   -1.2688685067
 C   -3.3372202722    0.7662824727   -1.1050393941
 N   -4.0417858126    1.6741607842   -0.9780367511
 H    0.9581890651    1.9544145149    0.3209904573
 H   -0.6388343189    2.1178481836   -0.4232888853
 H   -0.5041646077    1.6372189945    1.2719912836
 H    0.4884379172   -0.0562462330   -1.1047694809
 H    0.6132340051   -0.5172982030    0.5914693580
 H   -1.3676129114   -2.8187160603    0.4709222840
 H   -2.9148869695   -2.4928271123   -1.7633264675
 H   -4.0078378808   -1.8444281791   -0.5039095581
 H   -2.0158341546   -0.3549948181   -2.2732361451