23

 C   -0.1770288952    1.5658124129   -0.0487161024
 C    0.1209917968    0.0612300119   -0.0433322854
 C    0.7766472727   -0.4759322772    1.2356405365
 C    2.1292266753    0.1723217400    1.5020556922
 O    2.7140725819   -0.4101701458    2.6466312452
 C    3.9633412438    0.1471484783    2.9757260703
 C   -0.1834809579   -0.5674144203    2.4514768493
 O   -0.2694944270   -2.0006660240    2.3339067546
 C    0.7512372731   -2.0251960854    1.3166625867
 H    0.7365836652    2.1677668159   -0.0376214931
 H   -0.7390059172    1.8427286366   -0.9457187681
 H   -0.7783156395    1.8574849467    0.8194015159
 H   -0.8154366306   -0.4900049946   -0.1917594010
 H    0.7593560727   -0.1891774917   -0.9017739329
 H    2.7880762432    0.0384579526    0.6247784187
 H    2.0129436037    1.2584623874    1.6532007160
 H    4.6965522219    0.0141829144    2.1644809905
 H    3.8859622860    1.2242603168    3.1931602968
 H    4.3263803830   -0.3683598573    3.8680196631
 H    0.2638387429   -0.2627122459    3.4045750953
 H   -1.1630655950   -0.0863989963    2.3346696682
 H    0.4180181398   -2.5462073863    0.4098708841
 H    1.6805178604   -2.4756533985    1.6818911695