23

 C   -0.4443776369    1.3894214737    0.1138218847
 C   -0.0673164962   -0.0703137122    0.0246341476
 C   -0.3898678037   -0.9845625891    1.1903763066
 C    1.0502166729   -0.6672055316    0.8590957651
 C    1.8164396243   -1.6698450107    0.0090109389
 C    0.8496847748   -2.0160707220   -1.1467712223
 C   -0.0149277874   -0.7635836516   -1.3259449494
 C   -1.1708458652   -0.7656919335   -2.2896833636
 C    0.0735295574    0.0316953933   -2.6079233966
 H    0.2500806264    2.0246305987   -0.4466961583
 H   -1.4538942696    1.5729928068   -0.2743812409
 H   -0.4323530625    1.7275691312    1.1544438894
 H   -0.8050644180   -0.5161274349    2.0768975159
 H   -0.7757442491   -1.9814698815    1.0026865542
 H    1.6068316592   -0.0470449406    1.5546025028
 H    2.7230977840   -1.1922086568   -0.3811995982
 H    2.1326652304   -2.5593932641    0.5648574345
 H    1.3742875951   -2.2941857838   -2.0651172292
 H    0.2230078544   -2.8723082725   -0.8726360737
 H   -1.3626971870   -1.6710322624   -2.8572463032
 H   -2.0671895997   -0.2157531803   -2.0206909561
 H    0.0043043460    1.1128176556   -2.5660202792
 H    0.7338841803   -0.3380262215   -3.3860394388