17

 C   -0.2275325335    1.4111695681   -0.0280799772
 C    0.0597970195   -0.0844560298    0.0195559690
 C    1.2870163806   -0.5815621158   -0.7951962083
 C    2.1758277229   -0.2880823861    0.4353164620
 C    0.8873086619   -0.5937464580    1.2331666423
 O    0.7335847839   -2.0243831114    1.3153759128
 C    0.8919114228   -2.7341531616    0.1676150714
 O    0.7859388677   -3.9208434818    0.1396033457
 O    1.1792340451   -2.0107979920   -0.9461170919
 H    0.6618487468    2.0224187903    0.1508509912
 H   -0.6301029713    1.6915275097   -1.0066054447
 H   -0.9718696544    1.6811081775    0.7277447365
 H   -0.8561978926   -0.6534383302   -0.1643669408
 H    1.5177479260   -0.1858888271   -1.7837834148
 H    3.0389886642   -0.9345413617    0.6015267474
 H    2.4683239280    0.7597318420    0.4992499866
 H    0.7248465424   -0.2100594719    2.2398887528