15

 N    0.0959406429   -1.0584410196   -0.0346475452
 C    0.0238035305    0.0960016583   -0.0190571038
 C   -0.0370423301    1.5257212597   -0.0094474166
 N   -1.1042301565    2.1855031350   -0.7287298163
 C   -0.7447086768    3.5653968643   -0.4957894023
 C   -0.1750036487    3.7377082722    0.8875102397
 C    0.7632927419    3.7741993718   -0.3141046891
 C    1.2686303508    2.3664860666    0.0435893235
 C    0.3396931836    2.3236697349    1.2331921879
 H   -1.0465141584    1.9615525714   -1.7204552795
 H   -1.3644428898    4.3314722199   -0.9432692124
 H   -0.4625366585    4.5091172902    1.5869942273
 H    1.3359985281    4.5871111213   -0.7364910486
 H    2.2540527261    1.9464572747   -0.0963075693
 H    0.4591831749    1.8779439292    2.2100038345