19

 O    0.1433922344    1.3105073151    0.3246154821
 C    0.0700017271   -0.0827668121    0.2558546252
 C   -0.6584635959   -0.8366314388    1.3449626360
 C   -1.2670117063   -0.6725119122   -0.0271536957
 C   -2.5900129350    0.0258599428   -0.3358637253
 O   -2.3775995436    0.9241061776   -1.4237346175
 C   -3.1236491394   -1.3509113114   -0.8309739225
 C   -1.6408916882   -1.8188686053   -0.9831441113
 O   -1.1094680331   -1.6842920250   -2.2816456220
 H    0.8073064662    1.5357313918    0.9850127008
 H    0.9234867256   -0.5724742258   -0.2144950619
 H   -0.3017272114   -1.8190615760    1.6394253611
 H   -1.0807408507   -0.2390615004    2.1472464611
 H   -3.1151521978    0.5199069361    0.4900823639
 H   -3.2408986348    1.1585347648   -1.7818759571
 H   -3.6514691901   -1.8984092105   -0.0452161801
 H   -3.7224333586   -1.3436765900   -1.7458428238
 H   -1.4102204762   -2.8356741993   -0.6550475973
 H   -1.2460823924   -0.7611489515   -2.5347409556