19

 O   -0.0725332408    1.4020532015   -0.1571548709
 C   -0.0008458970   -0.0054888688    0.0250154427
 C   -1.4083662364   -0.5416479678    0.0274569842
 C   -2.3060816797   -0.5022074687   -1.2482694105
 C   -3.0952121239   -1.6291896281   -0.5020912871
 C   -1.7003421074   -2.0721705144    0.0556263126
 C   -3.6216222591   -0.8413983736    0.6901888882
 O   -4.7148771555   -0.8551650983    1.1876496379
 C   -2.3827043702   -0.0171118529    1.1038950596
 H    0.8214384120    1.7557527601   -0.1431089010
 H    0.5743013691   -0.4842766483   -0.7843886186
 H    0.4941485002   -0.2622553046    0.9765829963
 H   -2.8276705634    0.4276363046   -1.4871262985
 H   -1.7900636150   -0.8864916356   -2.1315871619
 H   -3.7863654945   -2.3095262485   -0.9943047258
 H   -1.1255030378   -2.6236719840   -0.6928155928
 H   -1.6670331324   -2.5916160140    1.0179222019
 H   -2.0758291339   -0.2503801640    2.1291052053
 H   -2.5659262643    1.0580331056    1.0353449185