23

 C    0.2283580034    1.6052767013    0.4013739647
 C    1.6935833899    1.8546043867   -0.0674358807
 C    1.9824298188    0.7559004669   -1.1093830922
 C    1.0849077750   -0.4375751389   -0.6877025004
 C   -0.2178317381    0.2960199525   -0.2924831328
 C    0.9053205157   -1.5401903325   -1.7678299598
 C    1.8429290920   -2.7077101055   -1.3685169797
 C    2.1165755976   -2.4322899190    0.0908150009
 C    1.7067865511   -1.2196355643    0.4560403613
 H    0.1854522962    1.5052391479    1.4901685815
 H   -0.4317757966    2.4378426053    0.1427737200
 H    1.8357950320    2.8576175146   -0.4789780221
 H    2.3828856883    1.7654022366    0.7782774670
 H    1.6700432877    1.0920267270   -2.1063600451
 H    3.0419121741    0.4903662097   -1.1710113438
 H   -0.8669334112   -0.3223924417    0.3350302313
 H   -0.7799552996    0.5253956096   -1.2062253500
 H   -0.1325276039   -1.8903462229   -1.7499619569
 H    1.0991004509   -1.1646477105   -2.7768170262
 H    1.3855688871   -3.6891140003   -1.5390784841
 H    2.7779343136   -2.7040138348   -1.9464557805
 H    2.6195366776   -3.1437562141    0.7373866391
 H    1.8244453584   -0.7971557736    1.4489239086