17

 C    0.0257163901    1.5717084518    0.0045270418
 O    1.3740852361    1.9962006904   -0.2249587266
 C    2.0235163348    0.9945522310   -0.9712194962
 C    2.5545851489   -0.2234361778   -0.2474588634
 O    2.6784803680   -0.3675358031    1.1326643910
 C    1.5413042377   -0.0315848573    1.9075160475
 O    0.3339108720   -0.4836030408    1.3576355666
 C    0.0724722093    0.0368353239    0.0518058187
 C    1.2069347497   -0.2829182359   -0.9265452284
 H   -0.3281016337    2.0184620816    0.9376962736
 H   -0.6230188971    1.9035125828   -0.8196488064
 H    2.5182561071    1.3544035407   -1.8687955700
 H    3.3760706989   -0.7404974054   -0.7338885937
 H    1.6619132538   -0.5543323856    2.8590988744
 H    1.5190467800    1.0538199304    2.0742403758
 H   -0.8750812235   -0.4145432749   -0.2463551401
 H    1.0205461680   -0.9254216618   -1.7779480846