16

 N    0.8139859440    0.0852165179   -0.3087008628
 C   -0.2825201879    0.3831464182    0.4344427646
 O   -0.3309012410    1.2690144650    1.2628097532
 C   -1.5160692154   -0.4780517080    0.1309797437
 N   -1.1701649968   -1.7258315644   -0.5489554457
 C   -1.0677665757   -2.9287084999    0.2574340751
 C   -2.2063074128   -2.7551728414   -0.7048172873
 C   -3.5376093573   -2.5470458415   -0.1883073098
 N   -4.6141971447   -2.3735342433    0.1969993995
 H    1.6359634169    0.6570309265   -0.2098740671
 H    0.7674321346   -0.6303733396   -1.0144487198
 H   -2.0558257532   -0.6208195382    1.0757529212
 H   -2.1670272098    0.1058767971   -0.5291802165
 H   -0.2664018795   -3.6156982988    0.0030613695
 H   -1.3058624119   -2.8568722311    1.3164515952
 H   -2.1833729494   -3.2786806783   -1.6564226629