19

 C   -0.0516055257    1.3357237924    0.0501558453
 O    0.0308258070   -0.0905990342   -0.0232410352
 C    0.6791892145   -0.5736899820   -1.1097863242
 O    1.1602344980    0.1365781189   -1.9622974781
 C    0.7098189652   -2.0499797071   -1.0965428680
 C    1.2469893307   -2.7723608593   -2.0861988880
 C    1.1058554281   -4.2513442486   -1.8510451396
 C    0.6590932433   -4.3347099691   -0.3666663231
 C    0.1088454714   -2.9268679295   -0.0172937641
 H    0.9468699355    1.7797609739    0.0816616734
 H   -0.5828590812    1.7377370449   -0.8166008141
 H   -0.5967473773    1.5560354814    0.9682617769
 H    1.6983092320   -2.3386237845   -2.9708361719
 H    0.3528640486   -4.6698674541   -2.5347494994
 H    2.0316626876   -4.8027179849   -2.0497426808
 H   -0.0697763389   -5.1289010909   -0.1892581964
 H    1.5296498754   -4.5508106078    0.2602852506
 H    0.3830381322   -2.6029447365    0.9906139025
 H   -0.9875707363   -2.8896045528   -0.0618820859