20

 C   -0.2557402571    1.3684050111   -0.0698215301
 C    0.0322327634   -0.1200282853    0.0745025851
 C    0.8664646582   -0.8380042866   -1.0193737507
 O    1.8756669389   -1.1906616391   -0.0000109943
 C    1.1816827754   -0.5162226184    0.9800827226
 N    1.4612438788   -0.3081701503    2.1853331071
 C    0.2957755062   -2.0376209492   -1.7011817846
 C   -0.3138452357   -1.8861328694   -3.0766870079
 C    0.9878849259   -2.6218529468   -2.9077034785
 H    0.6504266370    1.9225952189   -0.3339635243
 H   -1.0080922622    1.5501177376   -0.8437897900
 H   -0.6304146588    1.7725998998    0.8745437176
 H   -0.8826650239   -0.6697657249    0.3170194753
 H    1.3187829504   -0.1515457640   -1.7447280743
 H    2.3582620512   -0.7281776048    2.4360050469
 H   -0.1869487155   -2.7421366258   -1.0294298735
 H   -1.2090861052   -2.4551886465   -3.2989106458
 H   -0.2871290732   -0.9052916923   -3.5402307977
 H    1.8950972361   -2.1373207289   -3.2528384983
 H    0.9912611103   -3.7002127351   -3.0161939445