20

 C   -0.0277000828    1.5133453549    0.0549059423
 C   -0.0292348188    0.0037094000    0.0002809297
 C    0.3523896085   -0.8069061201   -1.2771808095
 C   -0.4199182781   -1.9569090798   -0.5719270444
 C    0.4754582420   -2.2331706021    0.6511635449
 C    0.7679846631   -0.7579673494    1.0844307767
 C   -1.3547083791   -0.8279047280   -0.0472023259
 O   -2.1615067371   -0.9925562900    1.0881408344
 H    0.9908225935    1.9164514626    0.0109873093
 H   -0.5934640737    1.9435204917   -0.7783673551
 H   -0.4848610033    1.8689155284    0.9855888880
 H   -0.1496951715   -0.4398792426   -2.1758318534
 H    1.4160029538   -0.9629323268   -1.4774920803
 H   -0.8066439764   -2.8168423833   -1.1189093553
 H   -0.0359845684   -2.8166929704    1.4247990750
 H    1.3824233055   -2.7819194156    0.3838346953
 H    1.8332642494   -0.5110442850    1.0543572984
 H    0.4138002992   -0.5263101327    2.0956503440
 H   -2.0199802416   -0.4607013951   -0.8330637128
 H   -1.6241796943   -1.3424529568    1.8056294288