15

 N   -0.0479446416   -1.1640399134   -0.1237349297
 C   -0.0439593167   -0.0099894658   -0.0640574360
 C   -0.0112704453    1.4477396094    0.0176483958
 C    1.4332538774    2.0019181771    0.0216295716
 C    1.4434378748    3.4967152884    0.0719967395
 C    2.0787273274    4.3548405966    0.9391879333
 N    1.7316232369    5.5853290956    0.4938371023
 N    0.9265250884    5.5134518456   -0.5800468414
 N    0.7524818752    4.2503102074   -0.8359197674
 H   -0.5585697314    1.8715645237   -0.8298514844
 H   -0.5386608750    1.7624656771    0.9246610152
 H    1.9842798206    1.5949642391    0.8739167995
 H    1.9434280918    1.6531759730   -0.8827442412
 H    2.7192542170    4.1995787808    1.7908445683
 H    1.9923537906    6.4892240155    0.8550550948