10

 N   -0.0292034834    1.4156406994   -0.1493859100
 C    0.0039019986    0.1489195186   -0.1275872899
 O   -1.1397809223   -0.6033362305   -0.2277582774
 C   -2.3530833971   -0.0161780414    0.0723596348
 O   -3.3685536813   -0.5995693599   -0.1296008938
 C    1.1659706995   -0.6819823985   -0.0292557618
 C    2.1674715761   -1.3417112797    0.0509504171
 H    0.9075385027    1.8028894772   -0.0580655964
 H   -2.2399967463    0.9828059127    0.5104657519
 H    3.0498270735   -1.9303609879    0.1227353254