19

 C   -0.0971163726    1.4311428051   -0.1160887210
 O   -0.2114902719    0.0291534374   -0.1895931947
 C    0.6286110687   -0.5843829760   -1.1632984019
 C    2.0774538735   -0.7071074011   -0.6694527154
 C    0.0253678472   -1.9400718917   -1.4597646061
 C   -0.2877615979   -2.8766364897   -0.3268372453
 N   -0.1624912525   -2.1926368238   -2.6975178241
 O   -0.6733363521   -3.4857559805   -2.8959301168
 H    0.8933737117    1.7598570457    0.2310086333
 H   -0.2960171814    1.9054133413   -1.0895893477
 H   -0.8454482068    1.7756400122    0.6021086733
 H    0.6082777216   -0.0038948571   -2.0962067403
 H    2.1246806401   -1.3031738321    0.2466645408
 H    2.6950228318   -1.1881872736   -1.4335875560
 H    2.5067140835    0.2767942093   -0.4596778095
 H   -0.3401916132   -2.3298567828    0.6151178497
 H   -1.2370292670   -3.3843901370   -0.5118063504
 H    0.4785656302   -3.6563421920   -0.2446020390
 H   -0.8000503429   -3.5069459234   -3.8502090290