19

 O    0.1476912537    1.3542146407   -0.0878189262
 C    0.0337188170   -0.0394797980   -0.0012391828
 C   -0.4241420173   -0.7437419954    1.2676799910
 C   -1.2785730822   -0.7419621186    0.0322916969
 C   -2.6884241654   -0.1373811624   -0.2250522603
 C   -2.5129470925   -0.7095750125   -1.6754830260
 C   -1.8208514257   -1.8749789254   -0.8816098877
 C   -3.0056393131   -2.3661632472   -0.0322136401
 C   -3.5693085051   -1.2342640432    0.3986231602
 H   -0.6299192070    1.7483095986    0.3201732208
 H    0.8494569389   -0.4961824272   -0.5546474581
 H    0.0832558227   -1.6552747392    1.5698667521
 H   -0.7416197249   -0.1176708910    2.0979036240
 H   -2.9337174255    0.9084725639   -0.0340741177
 H   -3.4246304583   -0.9562573697   -2.2244763288
 H   -1.8170137729   -0.1277987015   -2.2866294873
 H   -1.1676046908   -2.6047034560   -1.3593424142
 H   -3.2791776808   -3.3948472690    0.1538639872
 H   -4.4316528208   -1.0807121366    1.0312916371