21

 C   -0.2368534420    1.5127463087   -0.3041260880
 C   -0.1951768668   -0.0283943828   -0.2763029144
 C    0.9669256921   -0.5420661285    0.5968623360
 C   -1.4754516850   -0.5811863417    0.1696020116
 C   -2.5286862066   -1.0209319616    0.5570432137
 C   -3.7935122562   -1.5727136707    1.0225124954
 C   -4.1138942105   -3.0078532915    0.5521532059
 C   -3.6797947047   -3.3922558771   -0.8454220188
 O   -4.7187501490   -3.7566739176    1.2794652250
 H    0.7107429858    1.9108065445   -0.6808674023
 H   -1.0439946217    1.8735701572   -0.9469427810
 H   -0.4008861981    1.9109958842    0.7018870868
 H   -0.0199968513   -0.3759100764   -1.3044008241
 H    0.8442755260   -0.2127574860    1.6332453302
 H    1.0105665059   -1.6343025675    0.5920546751
 H    1.9208588555   -0.1554517362    0.2242141697
 H   -3.8574125057   -1.5761853368    2.1151745923
 H   -4.6270564080   -0.9472121193    0.6672030078
 H   -2.5865841449   -3.4042636767   -0.8998570264
 H   -4.0785766436   -4.3751227743   -1.0975775742
 H   -4.0174100714   -2.6459175398   -1.5728832403