19

 C    0.8592329730    1.0871578259    0.5551579112
 O    0.4906988503   -0.2110717063    0.0717749239
 C    1.3996282304   -0.8064299489   -0.7041165143
 O    2.4438383947   -0.3004693434   -1.0400047141
 C    0.9674983532   -2.2195683870   -1.0760742553
 N    0.4450842302   -2.9018392560   -0.1263493222
 N    1.3087888669   -2.6456188843   -2.3408473225
 C    1.0726248281   -4.0379857115   -2.6700152005
 C    1.4111513262   -1.7440776934   -3.4811122237
 H    1.7548215342    1.0235491980    1.1782404504
 H    1.0576024415    1.7677860231   -0.2768630891
 H    0.0092088196    1.4338208861    1.1420352646
 H    0.2152924775   -3.8512105456   -0.4182921571
 H    0.0042133687   -4.2757455851   -2.7918916155
 H    1.5808394239   -4.2686370485   -3.6090913805
 H    1.4848354548   -4.6881852384   -1.8924372885
 H    2.2080244366   -2.0875941150   -4.1489760317
 H    0.4743368552   -1.7108669109   -4.0570775396
 H    1.6638131351   -0.7396913086   -3.1514294057