16

 C   -0.1126931395    1.5146754261    0.0469728372
 C    0.1407897696    0.0458640120   -0.0084050276
 O   -0.7621139691   -0.8444089769    0.6797868783
 C    0.6457721638   -0.9282269463    0.9549786890
 C    1.3456071759   -1.7374047173   -0.1962112920
 O    2.6448859722   -2.1916015760   -0.0896801299
 C    0.3593854978   -2.1855106024   -1.2371465080
 C    0.8108171122   -0.7351261261   -1.1930107346
 H    0.7887079002    2.0717027208   -0.2287352354
 H   -0.9097414946    1.7989827578   -0.6496109133
 H   -0.4147791452    1.8102887172    1.0550945950
 H    0.9788389189   -0.8359021630    1.9831785183
 H    2.6213971501   -3.0970311995    0.2410501239
 H    0.8140693714   -2.7500269235   -2.0456147756
 H   -0.6563765795   -2.4576164194   -0.9789765174
 H    1.3268539857   -0.2576102133   -2.0151584481