22

 O   -0.0811533319    1.4061942847   -0.1252950960
 C   -0.0010041206    0.0116630644    0.1497492302
 C   -1.4077419888   -0.5514521176    0.0226080854
 C   -1.9234297558   -0.5996450395   -1.4448802025
 C   -1.5461982476   -2.1060716331   -1.5020815569
 C   -1.4821239718   -2.1089250352    0.0463543495
 N   -0.3722770446   -2.8193237032    0.6535802751
 C   -0.5473441501   -3.2336932678    2.0442399884
 C   -0.5985778712   -4.2329799787    0.9434419525
 H    0.8092675649    1.7671230906   -0.0912699586
 H    0.6789907040   -0.4948818214   -0.5508321905
 H    0.3855785673   -0.1746601408    1.1629593954
 H   -2.0533907071   -0.0344980280    0.7383228816
 H   -3.0020936155   -0.4375388618   -1.5122457165
 H   -1.4272129249    0.0733379560   -2.1462596300
 H   -2.2496507086   -2.7940459254   -1.9769243126
 H   -0.5534474540   -2.2697376722   -1.9288558096
 H   -2.4508368543   -2.4302571384    0.4679023740
 H    0.3321945207   -3.1526148376    2.6764590020
 H   -1.4868776565   -2.9859319620    2.5359824684
 H   -1.5729680051   -4.6529429708    0.6983203900
 H    0.2419695112   -4.8952945923    0.7574265905