22

 C   -0.0671482793    1.4558208449   -0.1806152460
 C    0.1230566865   -0.0331436074   -0.0232970269
 N    1.5203472888   -0.5241168439    0.0195203332
 C    0.6780038872   -0.6423352179    1.2026011918
 C    1.0108303607   -0.0476644359    2.5620059014
 O    0.5600275106   -1.2529536446    3.2190394263
 C    0.2498018320   -1.9173321683    1.9562273532
 C   -1.2290564396   -2.2760083997    1.8905249167
 C    1.1524721481   -3.1284706039    1.7512463654
 H    0.6906656599    2.0025572901    0.3870275961
 H    0.0223821649    1.7513856666   -1.2312430244
 H   -1.0567963322    1.7635619685    0.1744077474
 H   -0.5906470106   -0.6459720293   -0.5740653984
 H    1.6026474598   -1.4220681399   -0.4527199543
 H    2.0771122120    0.1475022050    2.7297307039
 H    0.4291521851    0.8307365553    2.8692860053
 H   -1.8494671763   -1.3910219875    2.0536375300
 H   -1.4877933673   -2.7087706059    0.9178780308
 H   -1.4715482922   -3.0125135725    2.6636401264
 H    0.9545254197   -3.8761647319    2.5256336681
 H    0.9703355796   -3.5979908079    0.7775919041
 H    2.2062855128   -2.8436184240    1.8097169399