23

 C   -0.0417334617    1.5308569238   -0.1481578641
 C    0.0911217299    0.0125212742    0.0074857291
 C    0.7148937915   -0.4910195606    1.3338631805
 C    2.1821487762   -0.0389481234    1.4599058611
 C   -0.0922721471    0.0177281339    2.5540742103
 C    0.5753219513   -2.0328406795    1.3603517744
 O   -0.3370078012   -2.5982422457    0.8104649905
 C    1.6122119388   -2.8284831226    2.1565839021
 O    1.2080089436   -4.1709281474    2.2309020369
 H    0.9221872139    2.0461260848   -0.0845258914
 H   -0.4690880316    1.7667099542   -1.1277671212
 H   -0.7041759389    1.9664884667    0.6059493614
 H   -0.8911066686   -0.4555685856   -0.0951436105
 H    0.6942905607   -0.3802381303   -0.8211558211
 H    2.2439156041    1.0529656933    1.4487285964
 H    2.6404313042   -0.3705964094    2.3964087605
 H    2.7922589266   -0.4115142922    0.6300754145
 H   -1.1491819103   -0.2471413356    2.4581545188
 H    0.2805185313   -0.4126855056    3.4894710933
 H   -0.0140298360    1.1050645212    2.6420366477
 H    2.5845833500   -2.7091111452    1.6496601354
 H    1.7238486651   -2.3659783265    3.1516799022
 H    1.8960820081   -4.6602387126    2.6910397035