15

 C    0.0239296211    1.5303709581   -0.0135262574
 C   -0.0057305484    0.0408827639   -0.0016258659
 C    0.5759836132   -0.9880812253   -0.9847350694
 C    0.9784618742   -0.9968728184    0.4714310923
 N   -0.1192918336   -2.0020061695    0.8317511015
 C   -0.5454910760   -1.9783426221   -0.6006245608
 C   -1.1339836643   -0.9801205673    0.3483449746
 C   -2.4390172318   -0.8335517986    0.8883353731
 N   -3.5077106738   -0.6736839029    1.3040851363
 H    1.0181441760    1.8880306712   -0.3012833756
 H   -0.6987938064    1.9397747579   -0.7275015721
 H   -0.2071920260    1.9406846455    0.9754623624
 H    1.1459141555   -0.8228123956   -1.8871824958
 H    1.9323462830   -0.9272792241    0.9776284143
 H   -1.0109318226   -2.8269820727   -1.0867428374