14

 C   -0.0141482384    1.5216748764    0.0471635236
 C   -0.0035660077    0.0271891868   -0.0491512756
 C   -0.0413103687   -0.6784028294   -1.2161176568
 N   -0.0286145255   -2.0466241269   -1.2468574684
 C    0.0210484891   -2.7015121534   -0.1275750300
 C    0.0658897993   -2.0842130895    1.2003588733
 O    0.1125850441   -2.6589713797    2.2723737325
 N    0.0484251709   -0.6845846400    1.1175738069
 H    0.8891659367    1.8919316952    0.5458039052
 H   -0.0624121417    1.9673077325   -0.9475738267
 H   -0.8770503653    1.8745198714    0.6238323525
 H   -0.0832294669   -0.1657314291   -2.1691089929
 H    0.0311076451   -3.7886295707   -0.1503036004
 H    0.0777290290   -0.2050466836    2.0086738167