19

 C    0.0676136675    1.5201532836   -0.2184360758
 N    0.0334563892    0.0709890218   -0.0509572660
 C   -1.1110341145   -0.4676347419    0.7459692176
 C   -0.2772128247   -1.7111477237    1.1935773710
 C    0.6553104739   -0.4546872207    1.2017030864
 C   -0.5399623033   -0.0630182286    2.1632587878
 C   -0.6599071087   -1.4995589600    2.6511116288
 C   -1.5650265407   -2.2127672850    3.5639697089
 N   -0.1113816347   -2.0652948861    3.8697476986
 H    1.0653121233    1.8183218838   -0.5574631983
 H   -0.6470236334    1.8089219828   -0.9964087886
 H   -0.1693022209    2.0917954948    0.6947028208
 H   -2.1469894604   -0.4463999718    0.4041357584
 H   -0.1242005467   -2.6220663196    0.6158110194
 H    1.7261181972   -0.4134513425    1.4059000623
 H   -0.6891509447    0.8601054944    2.7196235097
 H   -2.2236217469   -1.6689022447    4.2361121059
 H   -1.9337747392   -3.1918449804    3.2666940176
 H    0.3718183877   -2.9396671062    3.6748918055