22

 C   -0.3103197876    1.4039693394    0.1035769841
 C    0.0862838530   -0.0706392170   -0.0141384629
 C    0.8208407304   -0.4480125514   -1.3173518654
 C    2.1282592599    0.3245590831   -1.5011784858
 C    0.9397769870   -2.0084732972   -1.4969317882
 C   -0.1136880084   -1.9713607559   -2.6474842330
 C   -0.0965443186   -0.4630135367   -2.5381265242
 N   -0.5723650126    0.5045553497   -3.2027414530
 O   -1.3514518549    0.0408620566   -4.2836361457
 H    0.5651957369    2.0566535075    0.1715515064
 H   -0.8973575862    1.7192825556   -0.7641320071
 H   -0.9128691173    1.5688645833    1.0023176739
 H    0.7302466360   -0.3557917046    0.8290619021
 H   -0.8148768594   -0.6917104520    0.0678143780
 H    2.7922868001    0.1661741179   -0.6433192364
 H    2.6543050660   -0.0057494145   -2.4021813740
 H    1.9471531078    1.3979393771   -1.6016562655
 H    1.9310484247   -2.3283253730   -1.8256177733
 H    0.6558303919   -2.5933307642   -0.6193555088
 H    0.2008731189   -2.3651766427   -3.6176455620
 H   -1.0815175388   -2.4198443751   -2.4029413039
 H   -1.6257741687    0.8640993141   -4.7014599154