15

 C    0.1174719519    1.4328563147   -0.3219601556
 C    1.4568358349    1.9999252816    0.2662377994
 C    2.1497625177    0.7378888396    0.6737798411
 N    3.3614893149    0.3584316029    1.0630694742
 N    3.1801735699   -0.9493215799    1.2845911300
 N    1.9559666997   -1.4456469917    1.0674640644
 C    1.2907471868   -0.3647125414    0.6764657006
 C   -0.1033965247   -0.0027331546    0.2711163394
 H   -0.7300430381    2.0936149795   -0.1264738765
 H    0.2188494680    1.3512286273   -1.4083489775
 H    2.0071224474    2.5966682408   -0.4661240421
 H    1.2715962790    2.6467458481    1.1325471704
 H    3.9421401509   -1.5422594642    1.5701043357
 H   -0.7738302936    0.0213093336    1.1389429272
 H   -0.5491524800   -0.6844745402   -0.4581310008