21

 C    0.0761343112    1.4668766135   -0.0010690068
 C    0.0325368529   -0.0284104841   -0.0385826376
 C    0.0090196643   -0.8187056750   -1.1225561994
 C    0.0207434951   -2.2657773697   -0.7764083462
 C    1.2425354636   -2.7358780822    0.0000500560
 O    2.4364317176   -2.0181552451    0.0361451306
 C    0.0109228402   -2.3185919751    0.7627182411
 C   -0.7857179516   -3.3369200242    1.5412315295
 C    0.0057190653   -0.8594252725    1.2330467396
 H    0.9719861970    1.8316625335    0.5171473103
 H    0.0686354432    1.8964274595   -1.0066232833
 H   -0.7835650616    1.8708658324    0.5491582899
 H    0.0128803441   -0.4594226960   -2.1466084460
 H   -0.5192232887   -2.9796084667   -1.3906930402
 H    1.4464878487   -3.8028964522   -0.0313709426
 H    2.2588238581   -1.1481422888   -0.3451777381
 H   -0.7186391629   -4.3289840531    1.0826453179
 H   -0.4192147326   -3.4252065243    2.5711168749
 H   -1.8471590904   -3.0649475143    1.5879743421
 H    0.8745524181   -0.6424043728    1.8699961674
 H   -0.8854211418   -0.6322216927    1.8347366111