16

 N    0.0267329835    1.0253508834   -0.7117810406
 C   -0.0493207316    0.0568176486    0.2343537369
 O    0.8046507950   -0.1516365991    1.0807228180
 C   -1.2969237561   -0.7715730870    0.1455073475
 C   -1.8351549326   -1.3762393187    1.4311664375
 C   -1.2956319844   -2.3038065327    0.3942764824
 N   -2.2557162840   -2.7645760128   -0.5755336375
 C   -2.6896532997   -1.6711885905   -1.2901900635
 N   -2.2164741490   -0.5282113932   -0.9369973656
 H    0.8095398143    1.6563874750   -0.7042854655
 H   -0.7420483824    1.1548627230   -1.3497088650
 H   -1.1982908373   -1.2091341920    2.2915297835
 H   -2.9066670236   -1.3422844921    1.5964555683
 H   -0.4021064939   -2.8929842697    0.5579333837
 H   -2.1884883651   -3.6778589740   -0.9942503019
 H   -3.4161848931   -1.8022311082   -2.0853122481