18

 C   -0.2521566879    0.7376725308    0.2950770424
 O    0.9584554759    0.4358700798   -0.3764840183
 C    0.7946116217   -0.4171696694   -1.4876839217
 C    0.5898312240   -1.8641097532   -1.1202431184
 C    1.6893890115   -2.7232024499   -0.4754261666
 C    1.0713615540   -3.1595319049   -1.7491602777
 O   -0.1972876604   -3.8103219558   -1.4717343712
 C   -0.6987186424   -2.6113285110   -0.9658937666
 N   -1.8567370777   -2.3078865473   -0.5955198219
 H   -0.9514752595    1.2715083201   -0.3664644567
 H   -0.7597606333   -0.1607423966    0.6683097711
 H    0.0070751141    1.3862203723    1.1352134454
 H   -0.0398023234   -0.0787547111   -2.1214894974
 H    1.7177837311   -0.3275796344   -2.0713687954
 H    2.6772386210   -2.2772709075   -0.5433275587
 H    1.4922327401   -3.2815127656    0.4339269002
 H    1.5413894662   -3.3710359143   -2.6996440162
 H   -2.4957418650   -3.1005457119   -0.6736168822