23

 C   -0.0717667050    1.5217208236    0.0721748223
 C    0.0123937889    0.0054927660    0.0108898922
 C    0.6975681488   -0.5018911450   -1.2576046674
 O    0.8882769892   -1.9070075298   -1.2175195101
 C    1.5972088518   -2.3582749478   -0.0581240788
 C    3.0802991303   -1.9784830991   -0.1084600775
 C    0.8589898528   -1.8567452258    1.1959231800
 C    1.5182776185   -2.2239234002    2.5163676873
 O    0.7439604970   -0.4367752913    1.1514251233
 H    0.9281849265    1.9641813211    0.0241430884
 H   -0.6653829361    1.9102150080   -0.7611307962
 H   -0.5395177950    1.8367840027    1.0084646621
 H   -1.0008425843   -0.4310418205    0.0509715577
 H    0.0763929664   -0.3053675187   -2.1373922732
 H    1.6542597563    0.0270269882   -1.3912575431
 H    1.5054631173   -3.4498437149   -0.0991188249
 H    3.2347605606   -0.9198856547    0.1156353990
 H    3.6522771002   -2.5619884223    0.6184628769
 H    3.4782392344   -2.1907945933   -1.1044313547
 H   -0.1544333117   -2.2921244215    1.1599249335
 H    2.4988796017   -1.7502134011    2.6103119048
 H    0.8974287093   -1.8837439858    3.3493474990
 H    1.6439009520   -3.3081706777    2.5983929395