16

 C    0.0396695269    1.4006297486   -0.0933158518
 O    0.0023707527   -0.0045516795    0.0015016384
 C    0.6172002160   -0.6357391903   -1.0765921660
 C    0.5439115871   -2.1507715822   -0.9164585923
 O    0.0195379043   -2.6969533009    0.0250617380
 C    1.1659410699   -2.8799517314   -2.0057459812
 C    1.6830988649   -3.4879246671   -2.9110950617
 C    2.3025975015   -4.2318596298   -3.9941406312
 H    1.0728181477    1.7820518841   -0.1171339692
 H   -0.4812903951    1.7641778432   -0.9932484571
 H   -0.4636182756    1.7965115369    0.7913732746
 H    0.1444772183   -0.3728752293   -2.0413722320
 H    1.6827892361   -0.3557283851   -1.1741157814
 H    2.2103506355   -5.3114439885   -3.8379700184
 H    1.8347522450   -3.9860500474   -4.9536108769
 H    3.3680474148   -3.9900146814   -4.0733158618