19

 O    0.0674860803    1.4704150340    0.0411196962
 C   -0.0022838970    0.0559846946    0.1543149515
 C   -1.4230608253   -0.4961075022    0.0743785117
 C   -2.5176759967    0.2504221975    0.7949340933
 C   -2.4633837242    0.2692672349   -0.7131423044
 C   -1.5334937135   -1.9937713487    0.0387101741
 N   -0.5779058468   -2.7429763746   -0.7960018145
 C   -0.5652238357   -2.9324405086    0.6657583481
 H    0.0075917808    1.6929851635   -0.8922110146
 H    0.6185531090   -0.4393525524   -0.6032580479
 H    0.4232138844   -0.1784767665    1.1367591865
 H   -3.3019644322   -0.3218761889    1.2797466964
 H   -2.2323572830    1.1622948874    1.3069830220
 H   -2.1744460970    1.2017356147   -1.1844020824
 H   -3.2003314474   -0.3010532565   -1.2688380511
 H   -2.5669389820   -2.3406733817    0.0238172458
 H   -1.0392657439   -3.5246381006   -1.2521666851
 H    0.3258682097   -2.5613547092    1.1627615235
 H   -0.9526027594   -3.8596564570    1.0805808509