13

 N    0.0147488011    1.5229417792   -0.0231315377
 C    0.0018420107    0.0678796785    0.0425163013
 C    0.5900971750   -0.5978141348   -1.1478052814
 N    1.0406542614   -1.0570314592   -2.1079856255
 C    0.7089473556   -0.4242753214    1.2797813557
 N    1.5799840430    0.3020098201    1.9238267159
 O    1.9889718166   -0.5356204214    2.9638685532
 C    1.3067644456   -1.6721829000    2.8147091269
 N    0.5001904163   -1.6805052760    1.8022129692
 H    0.9693715226    1.8664592998    0.0230246400
 H   -0.3803184007    1.8314576909   -0.9053773505
 H   -1.0374127494   -0.2743447167    0.1144854682
 H    1.4859235722   -2.4539916091    3.5378595547