22

 C    2.6711913497    0.3769692031    0.8909110882
 C    1.4888163193   -0.5375431144    0.5313094780
 C    0.1656350673    0.0286362023    1.0672108955
 C    1.4155208160   -0.7648172604   -0.9744817315
 O    1.1583777866    0.4060269444   -1.7190416353
 C    2.2913486032   -1.8018380062   -1.6399644427
 C    0.7834612632   -1.9864777452   -1.5819882900
 C    0.1562451736   -3.1101347663   -0.7868588526
 H    3.6161693705   -0.0202811027    0.5052807127
 H    2.5308650270    1.3842955158    0.4814263719
 H    2.7679675693    0.4828153130    1.9758587699
 H    1.6703726565   -1.5105688411    1.0031259888
 H   -0.0797706667    0.9636099206    0.5552379634
 H   -0.6612518745   -0.6683796616    0.9013034737
 H    0.2291529187    0.2299013422    2.1415626001
 H    1.9620358586    0.9372045345   -1.7194049298
 H    2.7367436396   -1.5476627362   -2.5957329358
 H    2.9029509243   -2.4383832856   -1.0066802525
 H    0.2763357998   -1.7635506143   -2.5167853402
 H    0.6990891793   -3.3114397191    0.1413033718
 H   -0.8834192895   -2.8862786973   -0.5238011749
 H    0.1568695483   -4.0376526855   -1.3701970687