21

 C   -0.0128076834    1.3963213449   -0.0859736405
 O   -0.0277661180    0.0213683154    0.2157512450
 C   -1.3033375902   -0.5931849816    0.0651290479
 C   -1.7047578661   -0.8662510185   -1.3773753500
 C   -1.9569267583   -2.1599900794   -1.5808384466
 C   -1.7182472910   -2.9688790082   -0.3495079831
 C   -0.2797755820   -2.9510547066    0.1427539370
 C   -1.2841521935   -1.9813869497    0.7153036111
 C   -1.6923571590   -2.0842854115    2.1641053695
 H    0.9901074404    1.7660147274    0.1429553075
 H   -0.2242837727    1.5997216031   -1.1466110492
 H   -0.7430044618    1.9555338777    0.5211040279
 H   -2.0533163884    0.0477913958    0.5636206372
 H   -1.7487213934   -0.0881240789   -2.1300828204
 H   -2.2571446599   -2.6018268116   -2.5251367207
 H   -2.3473553846   -3.8210383174   -0.1162374722
 H    0.0354719742   -3.7588123328    0.7963248366
 H    0.4841141681   -2.5801377093   -0.5306273323
 H   -1.0101972328   -1.5070984252    2.7991079228
 H   -2.7058597581   -1.6976688391    2.3237815981
 H   -1.6727414895   -3.1218896447    2.5120522444