18

 O   -0.1118556371    1.4247373115    0.0901780344
 C    0.0152484581    0.0170872084   -0.0483321519
 C   -1.3952520542   -0.5616612570    0.0020970494
 C   -1.4062544074   -2.0839941831   -0.1179814544
 O   -2.7088247920   -2.5790528807    0.1076188150
 C   -3.1236678776   -2.3651052228    1.4445083080
 C   -2.8916610865   -0.9513424969    1.9806773043
 O   -3.4243718887   -0.5752398251    3.0074939601
 N   -2.0269193596   -0.1867230480    1.2586847744
 H    0.7624665535    1.8028241014    0.2193903810
 H    0.4880289901   -0.2527585523   -1.0052584591
 H    0.6152279557   -0.4125939429    0.7677584559
 H   -1.9606917519   -0.1407812788   -0.8426187436
 H   -1.1191710278   -2.3889370881   -1.1277163964
 H   -0.6915385005   -2.5261026431    0.5974483100
 H   -4.1948034756   -2.5707270793    1.4906958464
 H   -2.6173122734   -3.0628477264    2.1320838111
 H   -1.8937906450    0.7650319831    1.5722011651