15

 O   -0.0896717501    1.3389788350    0.2312101391
 C   -0.0534437618   -0.0432027196   -0.0757861350
 C    0.5863138704   -0.8956187949    1.0385554642
 O   -0.4216781790   -1.0459878262    2.0404430965
 C   -1.6507405448   -1.1494622314    1.3728094179
 C   -1.5084884553   -0.5021088650   -0.0232891886
 O   -1.7245142093   -1.7961911268   -0.6653456127
 C   -1.8701088324   -2.4488524553    0.5441504411
 O   -2.0737573465   -3.6026687360    0.7228627100
 H    0.8097293518    1.6439407511    0.3851344847
 H    0.4019063465   -0.2410450392   -1.0551047997
 H    0.8926088180   -1.8740640634    0.6403929453
 H    1.4534841224   -0.4206589372    1.5047460031
 H   -2.4621258841   -0.8673474657    2.0429553889
 H   -2.2198983759    0.2460813547   -0.3672538947