16

 C   -0.2974086133    1.3659164766   -0.2472311677
 C    0.3679780090    0.0623765940    0.1985377235
 N    1.0838478397   -0.5951754933   -0.8795328439
 C    0.7459762096   -1.7943611631   -1.3839455545
 O   -0.1733466457   -2.5125221884   -1.0166785126
 C    1.6862144576   -2.2060085010   -2.5399755643
 N    1.3516562453   -3.4102022802   -3.0378166933
 O    2.6013060781   -1.4929331316   -2.9160147242
 H    0.4414601757    2.0793231400   -0.6274323893
 H   -1.0283027352    1.1784661254   -1.0389033075
 H   -0.8134438159    1.8351144118    0.5960263390
 H    1.0613040102    0.2564856150    1.0263229999
 H   -0.3773671167   -0.6541495197    0.5518833672
 H    1.8753007757   -0.1543002460   -1.3308449633
 H    0.5639696533   -3.8857264632   -2.6250895792
 H    1.8722527126   -3.8119007663   -3.7982344998