18

 C    0.2533886065    1.4677393528   -0.0145159720
 C    0.1936392751   -0.0312996270   -0.0286032350
 C    0.8351129278   -0.9771424031   -1.0548930547
 C   -0.0031680886   -1.8680746045   -0.1462127514
 C    0.3275644120   -1.0661718004    1.1469677657
 C   -1.1670951931   -0.9789569487    1.4186873006
 C   -1.7968149319    0.1423128396    2.1997109649
 O   -1.2238639103    0.8130771374    3.0226134704
 N   -1.1614621742   -0.8320594997   -0.1098073717
 H    1.2960813394    1.7953072088    0.0603355239
 H   -0.1614291120    1.8681890824   -0.9453610513
 H   -0.2926175106    1.8989037354    0.8266776965
 H    0.4882488711   -0.8731508003   -2.0868711662
 H    1.9202351506   -1.0964082591   -0.9998570186
 H   -0.2373755263   -2.9314797299   -0.2175684610
 H    1.1661514646   -1.2009910187    1.8353882098
 H   -1.6704353774   -1.9135761007    1.7119854336
 H   -2.8758775228    0.3021723757    1.9710461066