21

 C    0.0294685577    1.4654359606    0.0811391981
 C    1.3380928205    0.7524501239    0.2080774244
 O    1.4488093707    0.0933210029    1.4710429719
 C    0.3084496784   -0.7630721448    1.1350615003
 C    0.1083537305   -0.0243791595   -0.1901030379
 C    0.7007297951   -2.2207305783    1.0462005796
 C    1.9476072767   -2.6479627343    0.2204695576
 C    2.2873888705   -3.6692987826    1.3391798133
 C    1.3566032616   -2.8767432757    2.2954548150
 H   -0.4663483670    1.8398570740    0.9728797664
 H   -0.0837121848    2.0830152523   -0.8049141091
 H    2.2529508382    1.0106645685   -0.3128527005
 H   -0.4952163934   -0.6358870585    1.8745053790
 H   -0.1730071900   -0.4787370366   -1.1307066999
 H   -0.1834662136   -2.7899236938    0.7321137987
 H    1.7847208029   -3.0293194133   -0.7904486772
 H    2.6821522673   -1.8399047726    0.1845698620
 H    1.8880804702   -4.6633415022    1.1168971633
 H    3.3361814004   -3.7736242656    1.6264972539
 H    1.9129815481   -2.1310559817    2.8698343114
 H    0.7114898599   -3.4411817826    2.9731409998