15

 N    0.3326727945    0.6033292854   -0.3163225702
 C   -0.6605503376    0.3850075633    0.5853642005
 O   -0.7723329486    0.9719542920    1.6420848401
 C   -1.7172175978   -0.6408559988    0.1328142589
 C   -1.1703215651   -1.9401480597   -0.4461302627
 O   -0.2897188577   -1.9706295027   -1.2749722510
 C   -1.8222342767   -3.2025816478    0.0926888515
 O   -1.3048300377   -4.3276645639   -0.5586365940
 H    1.0997115579    1.1857262025   -0.0196207164
 H    0.4803052359   -0.0783333534   -1.0490062682
 H   -2.3779241748   -0.8196930822    0.9825092988
 H   -2.3138722557   -0.1716218739   -0.6605781362
 H   -1.6413817518   -3.2098420315    1.1830266036
 H   -2.9140584304   -3.0901712419   -0.0345920444
 H   -1.7170447943   -5.1101544074   -0.1811634904