21

 C   -0.3886435101    1.5957824195   -0.9269610059
 C   -0.3832937333    0.0795515008   -0.7490875337
 C   -1.6300059887   -0.4404762960   -0.0504710922
 O   -2.4745044260    0.3031841039    0.4052658686
 C   -1.8204996975   -1.9349783999   -0.0006105245
 C   -2.8294459738   -2.4849878650    0.9880014510
 C   -3.1837548177   -2.4181067542   -0.4657979165
 O   -0.7392411079   -2.7279901092   -0.3911516230
 C    0.1846098651   -3.0258016571    0.6421147736
 H    0.5336485632    1.9299215978   -1.4104002323
 H   -1.2352627606    1.9152694384   -1.5404621603
 H   -0.4801894944    2.1016967092    0.0372636007
 H   -0.2874340585   -0.4477832657   -1.7061251722
 H    0.4921447781   -0.2426641493   -0.1696100139
 H   -2.6138486799   -3.4594315465    1.4103837600
 H   -3.2821627842   -1.7624822228    1.6562931457
 H   -3.8872543834   -1.6604169856   -0.7893783156
 H   -3.1735932462   -3.3399577735   -1.0353671982
 H    0.9777602638   -3.6253229383    0.1898808387
 H    0.6294776940   -2.1205071407    1.0778181186
 H   -0.2823243219   -3.6018758058    1.4517271214