19

 C   -0.0539498808    1.5156929954   -0.0628895012
 C   -0.0600811246    0.0145697369   -0.0601161402
 C    0.8171641520   -0.9587523225   -0.9119798686
 C    1.9662113808   -0.9505045691    0.1556291639
 C    0.6607437130   -0.9311250608    0.9812989915
 C   -0.1676670570   -0.9031890958    2.2500957299
 C   -1.4172657430   -0.9038166033    1.7553886389
 C   -1.2748839851   -0.9350655169    0.2145471409
 C   -0.0664644293   -1.8819531921   -0.0262653474
 H    0.9669652554    1.9123941086   -0.0925387656
 H   -0.5891574721    1.9116058921   -0.9332265512
 H   -0.5452445800    1.8999650324    0.8384606424
 H    0.9228101468   -0.9815181212   -1.9972446556
 H    2.5775675350   -1.8561454667    0.2201163709
 H    2.5999706524   -0.0591614748    0.1964553520
 H    0.1626071525   -0.8776830009    3.2782874625
 H   -2.3498153132   -0.8860989092    2.3031404708
 H   -2.1847213914   -0.9447410813   -0.3897570306
 H   -0.0395655912   -2.9733121508    0.0236945566