18

 O    0.5740307808   -0.6920203330    0.5054029873
 C   -0.2110176405    0.1088476295   -0.3788573764
 C   -1.6480050265   -0.2135829746   -0.1536441970
 C   -2.7820517036    0.5693466679   -0.1875303242
 C   -3.9008447277   -0.2922937751   -0.0140902917
 C   -3.4161194400   -1.5736506525    0.1386518238
 C   -4.0954319574   -2.8622284492    0.4510142280
 O   -3.4349608739   -3.9051155977   -0.2672290249
 N   -2.0500467209   -1.5082062237    0.0482331970
 H    1.4941658249   -0.6136583436    0.2357632866
 H   -0.0547569243    1.1841251296   -0.2074320371
 H    0.0777086633   -0.0977794577   -1.4236493082
 H   -2.8038481894    1.6385802729   -0.3360658639
 H   -4.9416287450   -0.0061661166    0.0122136078
 H   -4.0563855923   -3.0733403708    1.5333833006
 H   -5.1574256535   -2.7823004680    0.1757197861
 H   -3.7569530581   -4.7460108905    0.0714736107
 H   -1.4311431459   -2.2978301170    0.1188631655