18

 N    0.0391699321   -0.4905012934    1.6517995286
 C    0.0683064358    0.3368632432    0.8470061117
 C    0.0887835114    1.3873451127   -0.1807187247
 C    1.4065945750    1.9926769552   -0.3555953252
 C    2.4934244071    2.4861708192   -0.5017892426
 C    3.8050339837    3.1072293920   -0.6693214038
 C    3.8814977814    4.5140317205   -0.0932379710
 C    4.1767644929    4.7172284658    1.3684366512
 C    5.2137314440    5.0750635455    0.3305475029
 H   -0.2648491224    0.9479766566   -1.1225848788
 H   -0.6522901236    2.1482535428    0.0969174371
 H    4.5640286559    2.4766090530   -0.1878319623
 H    4.0629411789    3.1275090261   -1.7366719871
 H    3.1827028020    5.2116792186   -0.5451038970
 H    3.6694004390    5.5204869688    1.8905345472
 H    4.3508523962    3.8353471650    1.9762865172
 H    6.0856455556    4.4345438297    0.2436987456
 H    5.4150722949    6.1230702790    0.1391010911