15

 C   -0.0473473423    1.4291340207   -0.0228859983
 N   -0.0014945820   -0.0132831279    0.0395583976
 N    0.0130133227   -0.7658062580   -1.1080911482
 N    0.0263130434   -2.0079414109   -0.7614739714
 C    0.0350112426   -2.1042076018    0.6088571008
 C    0.0562269270   -3.3061629139    1.3445528694
 C    0.0801336101   -4.3036381144    2.0207107450
 C    0.0173189763   -0.8130073570    1.1256697244
 N   -0.0637414874   -0.3501007000    2.4247250149
 H    0.8951003843    1.8746827513    0.3146479962
 H   -0.2146387363    1.7013706302   -1.0649161572
 H   -0.8668844775    1.8092907679    0.5940366980
 H    0.0944025857   -5.1956198083    2.5962260903
 H    0.0591373164   -1.0972440885    3.0965051139
 H    0.5408891370    0.4321329606    2.6406917445