23

 C    0.1195810423    1.3807240982   -0.4414488737
 C   -0.0719802534    0.0394537073    0.2777226299
 C   -1.4968588961   -0.5037938932    0.2064978547
 C   -2.5159861983    0.3143262952    0.9832387212
 C   -1.9344044583   -1.1480966388   -1.1037856831
 C   -1.6555711473   -2.0024249421    0.1157472281
 O   -0.4684832812   -2.7500272253    0.1334515017
 C   -2.7733198590   -2.7570561699    0.7963491668
 O   -2.8580895051   -4.0215178623    0.1313818647
 H    1.1667374762    1.6960796489   -0.3950854545
 H   -0.1601454135    1.3039535509   -1.4976492435
 H   -0.4816030237    2.1799931627    0.0035630309
 H    0.6102319599   -0.7016475886   -0.1440179240
 H    0.2117517406    0.1472565217    1.3333822344
 H   -2.5289924418    1.3502939754    0.6287728809
 H   -3.5332878833   -0.0700192347    0.8760310060
 H   -2.2748363538    0.3351613689    2.0528684969
 H   -2.9618327238   -1.0191525266   -1.4305652398
 H   -1.2046874908   -1.2026629114   -1.9045840374
 H   -0.7264480497   -3.6335442444   -0.1604846646
 H   -2.5275569603   -2.8971967007    1.8592231896
 H   -3.7263641860   -2.2188062777    0.7281132624
 H   -3.3256362937   -4.6350487633    0.7045268824