17

 C    0.1060580457    1.5376357453    0.0182501249
 C   -0.1021382086    0.0605032318    0.0647448331
 C   -1.4083612644   -0.7373674960   -0.1211322173
 C   -0.8223109587   -1.8016611726    0.8646281257
 O   -0.7078701073   -3.1301913573    0.3769695477
 C   -1.3169857675   -4.1196546136    1.0593731329
 O   -1.2792489694   -5.2617741780    0.7168500372
 C    0.4770582522   -0.9976060828    0.9240027292
 O    0.9341976445   -0.8032448126   -0.4165595666
 H    1.1206240977    1.7901337520    0.3366235387
 H   -0.0359287446    1.9147888206   -1.0005739075
 H   -0.6078954246    2.0521301545    0.6691916625
 H   -2.3093025706   -0.2537135785    0.2627700597
 H   -1.5727294645   -1.0938273677   -1.1393355523
 H   -1.3462326010   -1.7948558497    1.8276210758
 H   -1.8470836597   -3.7543144881    1.9619584373
 H    1.2175935708   -0.9627597275    1.7152840790