11

 N    0.0612413595   -3.7222696575   -0.0188483288
 C    0.0400001866   -2.5600800987   -0.0120182832
 C    0.0145292982   -1.1975810243   -0.0040037764
 C   -0.0139672352    0.0129180732    0.0031940782
 C   -0.0237558914    1.4163171632    0.0112451517
 C   -1.0973865203    2.2675796321    0.0301191821
 O   -0.6887271142    3.5318885874    0.0319188068
 N    0.7086828685    3.5683461639    0.0138034879
 C    1.0892485026    2.3214334209    0.0017472950
 H   -2.1629552579    2.0999187305    0.0431376251
 H    2.1420551736    2.0802467794   -0.0134250484