17

 C    0.2004365973    1.5062432338    0.0366013671
 C   -0.1067108184    0.0203485834    0.0485402693
 O   -0.4427759428   -0.5526639283    1.0532706693
 C   -0.0088459132   -0.7408262073   -1.3057206101
 C   -1.3337849403   -0.4919416027   -2.0760519920
 C    1.2031993762   -0.2959755397   -2.1552202787
 C    0.1092997784   -2.1802714049   -1.0298101474
 N    0.2222578907   -3.3192326033   -0.8751010389
 H    1.2818521901    1.6599417378   -0.0493844536
 H   -0.2657405934    2.0201585752   -0.8088669989
 H   -0.1439304282    1.9423281744    0.9746488892
 H   -1.4476473873    0.5719268578   -2.3015446403
 H   -1.3253969542   -1.0435396740   -3.0195569938
 H   -2.1926091965   -0.8227343870   -1.4878261263
 H    2.1426965090   -0.4431587064   -1.6160619128
 H    1.2468243335   -0.8823174716   -3.0764680551
 H    1.1148825492    0.7584431628   -2.4275420570