18

 O   -0.0115973009   -0.0928203618    0.0364805928
 C   -0.0228330558    1.1143855935    0.0233762716
 C   -1.3235418022    1.9073678148    0.0117104794
 C   -1.5253966178    2.8288108307    1.2292312192
 C   -0.4028609956    3.8548236252    1.4453201009
 N    0.8249237682    3.2921315538    1.9897179956
 C    1.6939437607    2.4257967867    1.3858453898
 O    2.7275136808    2.0771007728    1.9181520428
 C    1.2816764279    1.9152263329   -0.0022075603
 H   -1.3315968955    2.5221914011   -0.8995327134
 H   -2.1437076010    1.1892959800   -0.0602833930
 H   -2.4682385512    3.3707731180    1.0924844263
 H   -1.6304536612    2.2275046541    2.1390940316
 H   -0.2005154088    4.3909494297    0.5064168128
 H   -0.7407310490    4.6088671502    2.1605633324
 H    1.1394712464    3.6124161005    2.8931003694
 H    2.0853740004    1.2664250435   -0.3457830519
 H    1.1796134046    2.7697072842   -0.6818575360