16

 O   -0.4598870211    0.4613490406    0.7385618331
 C    0.0931936002    1.0112927021   -0.1837882291
 C    1.2837236200    1.8892210763   -0.0440032347
 C    1.5701998286    2.9756194764   -1.1146094931
 O    2.8650274504    2.4121693997   -1.4408331515
 C    2.7035805117    1.3736211921   -0.4757118105
 C    3.2022849297    1.6359049205    0.9664080283
 N    2.9566178467    3.0628542892    1.2729368911
 C    1.8442288896    2.1027046321    1.3791861645
 H   -0.2564788417    0.8681780956   -1.2317489274
 H    0.8953965842    2.9278435512   -1.9782016508
 H    1.6477919671    3.9976819303   -0.7388962309
 H    2.8816163059    0.3673776885   -0.8642774930
 H    3.9496526532    1.0707058963    1.5092714375
 H    3.3099583465    3.2279044967    2.2145035384
 H    1.2949561790    1.9405547722    2.2963418582