18

 C    0.0850128035    1.5447439905    0.0191756414
 C    0.1092811213    0.0291462926   -0.0438519185
 O    0.7529309291   -0.4481179927    1.1352375720
 C    0.8678253923   -1.7920377128    1.2512982170
 C    1.4527970138   -2.4393743135    2.3027261544
 C    2.0966589517   -1.9544621364    3.5489986839
 O    1.3881566409   -3.7697693213    2.0826003341
 N    0.7558612649   -4.0209258891    0.8754066239
 C    0.4491867765   -2.8415939024    0.3865345023
 H    1.1016230280    1.9439123030    0.0706967321
 H   -0.4030043092    1.9496085936   -0.8720109415
 H   -0.4645912866    1.8843672765    0.9012591464
 H   -0.9107598121   -0.3780061908   -0.0993030187
 H    0.6578445710   -0.3182461381   -0.9313777895
 H    1.5836359591   -2.3363773355    4.4382423335
 H    3.1431032878   -2.2727671703    3.6079291937
 H    2.0632030413   -0.8631985144    3.5696456464
 H   -0.0590024832   -2.7835367789   -0.5643696730