22

 C    2.2692463352    0.0312000831    0.6357505122
 C    2.0300319124   -1.4730512862    0.4703543242
 C    1.7785036098   -1.8252515424   -0.9925743534
 N    1.1510192839   -3.1233345079   -1.2962001593
 C    0.4329313517   -1.8811830115   -1.6318580787
 C   -0.8727498404   -1.6216079284   -0.9198414559
 C    3.2483646226   -2.2903676494    0.9271999077
 C    2.9549159307   -3.6657232791    1.4869420500
 O    4.3737537410   -1.8616890211    0.8028684915
 H    3.1838275631    0.3279430301    0.1165531098
 H    1.4305335133    0.6057300760    0.2318658527
 H    2.3900976016    0.2949770673    1.6904824449
 H    1.1612013288   -1.7917340261    1.0542758877
 H    2.5973643849   -1.5118642136   -1.6400986190
 H    1.5679521067   -3.5406937577   -2.1232277197
 H    0.4208606136   -1.6018965042   -2.6853511912
 H   -0.8348623616   -1.9490838752    0.1212120953
 H   -1.1249271455   -0.5559562554   -0.9421491490
 H   -1.6856299973   -2.1694915170   -1.4081969922
 H    2.4338017941   -3.5659694437    2.4471908257
 H    2.2759693198   -4.1993349285    0.8131107703
 H    3.8812747415   -4.2227967693    1.6341872062