16

 O    0.2966541907    1.1989996780   -0.7846853133
 C    0.0893935314    0.1403517717    0.1273457113
 C   -1.3568498156   -0.2498967523    0.2095891208
 C   -2.1894610207   -0.6969306575    1.2128201306
 C   -2.7477795905   -1.1153172024    2.5723185299
 C   -4.1189010708   -1.3073284427    1.8123786778
 N   -3.3717489347   -0.8828946285    0.6058928409
 N   -3.3680151854   -0.5831469185   -0.6968692767
 N   -2.1273104998   -0.2078829415   -0.9259333594
 H   -0.3229602630    1.0540610913   -1.5109595790
 H    0.6914383159   -0.7418213569   -0.1509592738
 H    0.4469172979    0.4708239072    1.1088803602
 H   -2.3315846557   -2.0320734650    2.9936011437
 H   -2.7599266765   -0.3356458902    3.3359280604
 H   -4.4957414641   -2.3296116666    1.7524169450
 H   -4.9184343491   -0.6186941060    2.0902248416