20

 O    0.0641401835    1.4958088825    0.1941141076
 C    0.1015870282    0.0842252380    0.0382983363
 C   -1.3371833558   -0.4192368867    0.0391637180
 C   -1.4215899750   -1.9311933129   -0.0785623937
 C   -2.8058473963   -2.6185553884   -0.3300247710
 O   -3.9363652552   -1.8193184112   -0.6061691678
 C   -2.1827439278   -3.2242150084   -1.5749419733
 C   -1.6575762991   -2.1677188474   -2.4589485331
 N   -0.8271542623   -2.5799736138   -1.3119873382
 H    0.9650320860    1.8267899818    0.1365643359
 H    0.5933238806   -0.2049891541   -0.9020789092
 H    0.6632392988   -0.3930009033    0.8583231576
 H   -1.8150873064   -0.1095837431    0.9777805287
 H   -1.8908532760    0.0772379841   -0.7627438421
 H   -0.9234216450   -2.3934934591    0.7803570662
 H   -3.0313612866   -3.3693270004    0.4371785455
 H   -4.2860375468   -1.4895334430    0.2278779676
 H   -2.2734411393   -4.2599659491   -1.8834295638
 H   -1.2343019143   -2.4841374135   -3.4071060497
 H   -2.1330391411   -1.1926208121   -2.4765960414