20

 C    0.0589589261    1.4411461635    0.0629279723
 C    0.0369227523   -0.0667646244   -0.0148381384
 C    0.0001259953   -0.7577646063   -1.3805160432
 C   -0.7732278277   -2.0711344978   -1.0686080467
 N   -0.7038579010   -2.2566585438    0.3978494365
 C    0.7504188249   -2.3128690016    0.8120623118
 C    0.7005975293   -0.8282236209    1.1273491310
 O    1.5050086672   -0.1536311515    2.0247917804
 C   -0.8058241552   -0.8758645477    0.9539234384
 H    0.9797835203    1.8456463716   -0.3716392846
 H   -0.7867039405    1.8684523681   -0.4873725366
 H    0.0101000072    1.7888516190    1.0974222349
 H   -0.5208126897   -0.1370032730   -2.1171629170
 H    1.0034684946   -0.9507334062   -1.7753380910
 H   -1.8274390324   -1.9728309682   -1.3476061740
 H   -0.3722528027   -2.9516012788   -1.5785559636
 H    0.8627318453   -2.9342125408    1.7082232649
 H    1.4454013235   -2.6692318186    0.0421073539
 H    1.3991599976   -0.5609851669    2.8920693199
 H   -1.6496327643   -0.5314305057    1.5394394410