14

 C   -0.0830694787    1.5742389758    0.0230085322
 C    0.0354514962    0.0443106202   -0.0397560973
 C    0.8621634724   -0.5144472086   -1.1732045905
 C    1.8391040315   -1.2700249480   -0.6630971905
 N    1.7770870998   -1.3012769286    0.7390308603
 C    0.7426933208   -0.5144410158    1.2137662965
 O    0.4751982719   -0.3102601747    2.3756301624
 H    0.9047111045    2.0436779127   -0.0066080831
 H   -0.6665241931    1.9546238086   -0.8202362980
 H   -0.5755721560    1.8672586978    0.9540750075
 H   -0.9775738271   -0.3824949086   -0.0480413832
 H    0.6806653906   -0.3336309501   -2.2218656455
 H    2.6133026745   -1.8286941337   -1.1697115673
 H    2.4362024526   -1.7571219470    1.3476258065