14

 N    0.1577160351    1.3826648867    0.1357696532
 C   -0.0121905861   -0.0046542173    0.0285226752
 C   -1.1467580995   -0.7951701906   -0.0132542521
 C   -0.7187282204   -2.1460215435   -0.0296232794
 C    0.6647293056   -2.1595914022   -0.0089751928
 N    1.0750094303   -0.8291808743    0.0292039157
 C    1.5879950750   -3.2184059065   -0.0262579918
 C    2.3951148079   -4.1155554282   -0.0356664048
 H    0.6880507853    1.7778229868   -0.6343693958
 H   -0.7361345259    1.8543483710    0.1832372940
 H   -2.1631610428   -0.4338866625   -0.0454890894
 H   -1.3430019349   -3.0244521526   -0.0745005503
 H    2.0269591150   -0.5305260167    0.1552832579
 H    3.0946070355   -4.9135476002   -0.0471767494