15

 O    0.0324461536    1.3685200980    0.0880805449
 C    0.0198983452   -0.0163269208    0.0682356193
 C    0.8310485154   -0.7451089997    1.1638080922
 O    1.0128397091   -2.0852730848    0.6194217571
 C    0.3624191598   -2.1073726314   -0.6362660003
 O   -1.0421726607   -2.0511420942   -0.4814191721
 C   -1.3600024756   -0.7086196496   -0.0099683777
 C    0.6581147441   -0.6994160633   -1.1445150185
 O    1.1776654418   -0.1962965415   -2.0991915354
 H    0.4723749509    1.6567122123   -0.7257999572
 H    1.8046871890   -0.2677195748    1.3154002292
 H    0.3037237869   -0.8139509367    2.1208146431
 H    0.6476860998   -2.9930746574   -1.1961938970
 H   -1.8663320160   -0.7777801042    0.9582692940
 H   -2.0128598034   -0.2042458020   -0.7298312918