18

 C   -0.0428988643    1.4943563624   -0.1818397705
 C    1.5174713570    1.5565644129    0.0751917925
 C    1.3295810391    0.2792630987    0.9277117447
 C    1.7771889435   -1.1607786538    1.3145934125
 C    0.3664638440   -1.0888884643    2.0256842983
 C    0.7143123114    0.3703395986    2.3634609007
 O   -0.6364997939   -0.9197747775    0.9863652889
 C    0.0868756888   -0.0349751923    0.1200715354
 H   -0.6021054510    2.0488543179    0.5722167284
 H   -0.3998941537    1.7717597162   -1.1753127866
 H    2.0791604138    1.3831702520   -0.8468301859
 H    1.9163147782    2.4407140649    0.5756722660
 H    1.9097270743   -1.8810933797    0.5037896055
 H    2.5847695094   -1.2384829376    2.0454309242
 H    0.0273007690   -1.8296509768    2.7477447761
 H    1.4863898444    0.4822323560    3.1280786003
 H   -0.1261231595    1.0398177754    2.5538388395
 H    0.3002735692   -0.5569938931   -0.8213862901