17

 C    0.0881628724    1.5930671430   -0.0438818128
 C   -0.0388886861    0.0572886600   -0.0293818655
 C    0.4200540223   -0.5123555388   -1.3007429461
 N    0.7733160089   -0.9592352948   -2.3060913382
 C    0.6968063689   -0.5668464155    1.1725595805
 C    0.8810451660   -2.1130095613    1.2181520452
 C    2.3984581329   -1.8131216751    1.2942462004
 O    3.4033786011   -2.4470234462    1.4430231443
 N    2.1577780543   -0.4585764658    1.1591257410
 H    1.1332147493    1.8937466710   -0.1591507096
 H   -0.4801001742    2.0254017692   -0.8703138522
 H   -0.2945582001    2.0067875704    0.8936690286
 H   -1.0997920262   -0.2057626266    0.0756249174
 H    0.2423856352   -0.1606622242    2.0844953036
 H    0.4779739591   -2.6089155154    2.1020887306
 H    0.5759329084   -2.6461291114    0.3162646880
 H    2.7710303378    0.3304141813    1.3050852549