12

 O    0.0798158623   -0.0318578030    0.0529409897
 C    0.0014971436    1.1510808527   -0.0375184589
 O    1.1093672866    1.9422209145    0.1730334724
 C    0.9481529327    3.2902749681    0.1148881212
 N   -0.1574650643    3.9771249788    0.1781510636
 C    0.2525815409    5.2967232266    0.0814719568
 C    1.6103575749    5.3768105431   -0.0300306108
 N    2.0548058733    4.0630397135   -0.0093820614
 H   -0.8892903821    1.7441978940   -0.2821120580
 H   -0.4636211235    6.1026556916    0.1065340013
 H    2.2921899510    6.2055912225   -0.1121829581
 H    3.0023154145    3.7307259976   -0.0735571878