19

 C    0.0102568726    1.3975122455   -0.2653550893
 C    1.3408301932    0.8212095981    0.0585442887
 N    0.1525416861   -0.0246878754    0.0391565264
 C   -0.3056034374   -0.5479646381    1.3135989276
 C   -1.2896886066    0.2212987224    2.2667413518
 C   -2.4237137160   -0.0875324483    1.2387517162
 C   -1.6045750655   -1.4059155636    1.3588995465
 C   -1.5971917339   -1.1675762024    2.8953316919
 H   -0.4418987729    2.0424194851    0.4844830943
 H   -0.2593453591    1.6345737246   -1.2912820794
 H    2.0711215662    0.6290109585   -0.7231276986
 H    1.7681569295    1.0807831863    1.0265200119
 H    0.5475836102   -1.0143645284    1.8185855025
 H   -1.1171698115    1.1551929259    2.8052598626
 H   -3.4399604255   -0.1123449595    1.6425589669
 H   -2.3949854327    0.4284357288    0.2789407340
 H   -1.7819770261   -2.3456302740    0.8345653462
 H   -0.7964248954   -1.6417084480    3.4703504157
 H   -2.5620092051   -1.2585680074    3.3995301739