19

 C   -0.4775861948    1.1551631198   -0.2178385221
 O    0.4235697318    0.1016943816    0.0869654847
 C    0.9038584391   -0.5513320760   -1.0315481743
 C    1.5390482202   -1.8795574141   -0.8022214708
 N    1.5428107326   -2.4004290164    0.5296483377
 C    0.1743468019   -1.8066016116   -1.5509944224
 C   -1.0741631619   -2.2992708827   -0.8435609830
 C    0.2253181447   -2.0103580073   -2.9710140252
 N    0.2838405560   -2.1649730725   -4.1176965995
 H   -0.0018401249    1.9096265968   -0.8602234340
 H   -1.3784190991    0.7820399809   -0.7212304342
 H   -0.7581627165    1.6168415476    0.7306828431
 H    1.3400710225    0.1011253235   -1.7889085006
 H    2.3901074464   -2.1054811926   -1.4421692159
 H    2.1414755362   -3.2113259914    0.6095930876
 H    1.8408040458   -1.6986860188    1.1967470730
 H   -1.0008207325   -2.0842279170    0.2217814780
 H   -1.9689149370   -1.8193894872   -1.2505077411
 H   -1.1824078905   -3.3806102226   -0.9672857510