21

 C    0.3028559773    1.5073349186    0.2051899052
 C   -0.2871236183    0.1485892750   -0.1874682644
 C    0.4031238713   -0.4546622863   -1.3899019129
 N    1.7122495218   -1.1039360273   -1.1347083823
 C    0.5793549127   -1.9124428113   -1.5729096171
 C    0.1036928544   -3.1445502895   -0.7943237512
 N    0.1260458000   -3.9888060647   -2.0492321630
 C   -0.8251627623   -3.3517651041   -2.9763075024
 C    0.5155244040   -2.7444838192   -2.8315841007
 H    1.3678363990    1.4077726863    0.4357963434
 H    0.2007850868    2.2348005071   -0.6080523364
 H   -0.1998076643    1.9196109006    1.0853166530
 H   -0.1998098405   -0.5485277897    0.6534554348
 H   -1.3584372276    0.2511307867   -0.4049672858
 H    0.3195738563    0.1312449206   -2.3065738165
 H    2.3536085586   -0.9404757048   -1.9078416049
 H    0.8501324908   -3.5033513831   -0.0832035717
 H   -0.8790887643   -3.1035221641   -0.3123780273
 H   -1.0181010483   -3.9494049037   -3.8624327288
 H   -1.6961836856   -2.8369429443   -2.5746252026
 H    1.2681967681   -2.7695146627   -3.6150405584