23

 C   -0.0198446340    1.4983574713   -0.2785986567
 C   -0.0872785759    0.0269229282    0.1514988365
 C   -1.4880198356   -0.5512454954    0.1276677449
 C   -2.5242436227    0.0118469791    1.1012566643
 C   -3.6037813684   -1.0814148591    1.2891135336
 C   -2.9159263817   -2.4182685383    0.9225893928
 C   -1.7544467629   -2.0502804361    0.0099142579
 C   -2.0122307565   -1.1479340198   -1.1629547329
 O   -3.3281014052   -0.9733720905   -1.6138516676
 H    1.0098081455    1.8690128687   -0.2599718703
 H   -0.4035048507    1.6284602990   -1.2967101224
 H   -0.6141548421    2.1358858599    0.3839969352
 H    0.5609089477   -0.5702995740   -0.5019438622
 H    0.3278060568   -0.0754061092    1.1639605218
 H   -2.0157768594    0.2252427386    2.0503993105
 H   -2.9619549145    0.9586845256    0.7640906612
 H   -4.0039180519   -1.0885814951    2.3071414537
 H   -4.4347946369   -0.9009492424    0.6070413306
 H   -2.5133490928   -2.9093233872    1.8163552465
 H   -3.6148617328   -3.1206565896    0.4572438648
 H   -0.9333771840   -2.7555661608   -0.0782739348
 H   -1.2802549946   -1.2149105745   -1.9701710163
 H   -3.4151885374   -0.0677567285   -1.9289152011