17

 O    0.1672433576    1.4523495523    0.2338688599
 C    0.0529114166    0.0597791755    0.0772876452
 C   -1.3668935579   -0.5975652474    0.0875786394
 C   -2.7829229761   -0.1991111059   -0.4524444513
 C   -2.0824639217    0.6305316802   -1.5455136240
 C   -1.2910153325   -0.7346622910   -1.4560115591
 C   -2.6826951345   -1.4479347163   -1.4356071634
 C    0.2295057882   -0.5375254044   -1.4098101725
 O    1.1858548142   -0.7678373499   -2.0831209226
 H    1.0733581603    1.6991279232    0.0147147222
 H    0.7195817481   -0.4726167273    0.7725088442
 H   -1.3391053175   -1.5345673474    0.6504557945
 H   -3.6659902947    0.0754612504    0.1301659379
 H   -2.6209406349    0.7760321910   -2.4851446328
 H   -1.5634650336    1.5301578935   -1.2242866168
 H   -2.7013674250   -2.4395367038   -0.9773298415
 H   -3.3016278668   -1.4014010825   -2.3350598195