18

 O   -0.1380851579    1.4209461865   -0.1811931832
 C    0.0016966974    0.0385263120   -0.0244806787
 C   -0.3629149923   -0.6288582236    1.2904522799
 C   -0.9054605097    0.1904239607    2.4279499201
 O   -2.0305235079   -0.4349244652    3.0737171800
 C   -3.1848541763   -0.6349005805    2.3809403245
 N   -3.5142766142   -0.5049370975    1.1706848659
 C   -2.6181063949   -0.0789783160    0.0978680653
 C   -1.2604556975   -0.7671073376    0.0712913425
 H    0.6397473475    1.8473937928    0.1935528999
 H    0.8307834719   -0.3964462959   -0.5813209917
 H    0.2201112427   -1.4981164805    1.5796005721
 H   -0.1678134778    0.3007162936    3.2274044493
 H   -1.1878979613    1.1916691307    2.0910997079
 H   -3.9327198143   -0.9854503687    3.0936933592
 H   -3.1297396857   -0.2920055456   -0.8464390338
 H   -2.4903954041    1.0078819756    0.1235420134
 H   -1.2485092956   -1.7339374210   -0.4218659526