17

 C   -0.1582630134    1.5496065308    0.0173096643
 C   -0.1678826097    0.0122431166    0.0109678471
 N    0.2399337013   -0.4809025944    1.3290975314
 C   -1.5914084902   -0.5282137453   -0.2862113269
 O   -2.5393174897    0.0395109226    0.6014045374
 C   -2.8183515117   -0.6336504087    1.7451384991
 O   -3.5184727582   -0.1780854610    2.5943794698
 C    0.7189450395   -0.4877919035   -1.0671921494
 N    1.4165482746   -0.9169217302   -1.8835356665
 H    0.8526688478    1.9225007243    0.2036611412
 H   -0.4942335145    1.9429849408   -0.9447627151
 H   -0.8261798491    1.9070093916    0.8022409689
 H    0.4900276798   -1.4645897728    1.2870417173
 H    1.0592730275    0.0195092676    1.6585366253
 H   -1.8963793297   -0.2507462205   -1.2975072550
 H   -1.5911846512   -1.6234135304   -0.2135049573
 H   -2.3561001030   -1.6363374373    1.7740729784