16

 C   -0.0671963744    1.4838462076    0.0969435278
 C    0.0198428602   -0.0402354142   -0.0262284943
 C    0.7399573963   -0.4582574884   -1.2952465311
 O    0.7741217468   -1.9044899040   -1.3261518707
 C    1.3672592913   -2.4446426994   -2.3675225252
 N    1.9275121189   -1.8283421205   -3.3741771810
 O    2.3803855375   -2.8528419057   -4.1569984015
 N    2.0571757378   -4.0583768828   -3.5579531923
 N    1.4488297117   -3.8209431775   -2.4840403493
 H    0.9278329462    1.9406146074    0.1236036518
 H   -0.6130428423    1.9228119613   -0.7449549631
 H   -0.5879923955    1.7676250027    1.0150485562
 H    0.5488763143   -0.4630658444    0.8348989033
 H   -0.9832135558   -0.4807737787   -0.0286605762
 H    0.2258835461   -0.1013973503   -2.1952818356
 H    1.7696965510   -0.0835182532   -1.3251193588