16

 N   -0.2577590606    1.2863514479   -0.2286801104
 C   -0.0465126186    0.0797437218    0.0903185151
 C   -1.1319568833   -0.9594495951   -0.0790236132
 C   -1.0431442104   -2.0786771758    0.9393244542
 C    0.1637715836   -2.4199081597    1.4059652092
 C    1.3867636769   -1.6886913678    0.9506304753
 O    1.1541949909   -0.3222494175    0.5907513011
 C   -2.2417746245   -2.7366719430    1.3200300677
 C   -3.2865653542   -3.2616634117    1.6100579348
 H    0.5831458986    1.8445040210   -0.0668701926
 H   -2.0929402060   -0.4468798460   -0.0382858516
 H   -1.0519334119   -1.3887583605   -1.0882296788
 H    0.2931749747   -3.2376844489    2.1057741445
 H    2.1386987025   -1.6542716325    1.7450359399
 H    1.8508407441   -2.2043550828    0.0943491596
 H   -4.1992923917   -3.7349254994    1.8759830253