23

 C    0.2216376300    1.3728984656    0.3192971876
 C   -0.1324467653   -0.0770123818   -0.0458963309
 C   -1.6476755716   -0.2719313543   -0.2088469455
 C    0.6438808497   -0.5508141190   -1.2765250751
 C    0.3489794552    0.1428644939   -2.5958410498
 C    2.0831644481   -1.0174647898   -1.0861955602
 O    2.6545615845   -1.0734284092    0.1860632327
 C    0.9937555451   -2.0206871391   -1.3993793194
 O    0.6223516023   -2.8585224091   -0.3275693558
 H    1.2993152874    1.4810165287    0.4705055959
 H   -0.0898311574    2.0788939681   -0.4583494684
 H   -0.2830963622    1.6674447885    1.2455461093
 H    0.1812615958   -0.7027299582    0.7938627148
 H   -2.0559486719    0.3570205536   -1.0076239560
 H   -1.8867806001   -1.3144448945   -0.4395415104
 H   -2.1695103746   -0.0023195797    0.7155115697
 H    0.5291531856    1.2206390850   -2.5297606716
 H    0.9917133116   -0.2436575076   -3.3939531070
 H   -0.6886720477   -0.0095235181   -2.9117021612
 H    2.8157172942   -0.7565052009   -1.8456346753
 H    2.1991929654   -1.7882152691    0.6525405353
 H    0.9301386681   -2.4892598433   -2.3799876584
 H    1.1131261179   -3.6827945597   -0.4177066004