21

 C   -0.0740748028    1.5489714181    0.0165900954
 C    1.4336871730    1.9072330033    0.0238455409
 C    2.1295252327    0.6591928894    0.6336729799
 C    3.5031288678    0.3433046263    0.1037622493
 C    3.8263315087   -0.8406378967   -0.4189347400
 C    2.8761975547   -2.0085536156   -0.5312948949
 C    1.6390948256   -1.8590033054    0.3852344393
 C    1.1407341383   -0.4514261514    0.3303671664
 C   -0.0537105688    0.0360331029   -0.0030337508
 H   -0.5859275124    1.9268996192    0.9141104030
 H   -0.6012860383    1.9817365243   -0.8410397277
 H    1.7801658579    2.0359109243   -1.0073091945
 H    1.6578939616    2.8299733007    0.5660775325
 H    2.2038330006    0.7940061710    1.7272957347
 H    4.2493833332    1.1337449894    0.1580745635
 H    4.8323622077   -0.9984158249   -0.8019037984
 H    2.5488144937   -2.1084241358   -1.5762959204
 H    3.4036755612   -2.9413474360   -0.2964444473
 H    0.8600470575   -2.5750318848    0.1054083766
 H    1.9438751073   -2.0978855443    1.4141893231
 H   -0.9256779992   -0.5631249539   -0.2451410407