20

 C   -0.0201035584    1.4566796229   -0.1861438712
 O    1.2992041966    1.6018062154    0.3742624036
 C    1.4405701459    0.1776700591    0.5402247299
 C    0.0131548715   -0.0805488309   -0.0019206097
 C   -0.9812635935   -0.6685689270    0.9624463564
 C   -1.3284223233   -0.2406004043    2.4135824953
 N   -2.2720566104   -1.4370651907    2.2051121724
 C   -2.5163582719   -0.8252322930    0.8149498000
 C   -1.0549915497   -2.1044321309    1.5418287746
 H   -0.7784533224    1.9864052869    0.4047025789
 H   -0.0679086724    1.8094558704   -1.2237009943
 H    2.2593602937   -0.2283689651   -0.0663856341
 H    1.6041302072   -0.0998576159    1.5895248164
 H   -0.0075368402   -0.6383147283   -0.9424525265
 H   -0.5828316355   -0.4071332760    3.1960347877
 H   -1.8547105759    0.7062054268    2.5634161496
 H   -3.1340422569    0.0772846231    0.8392694831
 H   -2.8926488830   -1.5446639486    0.0816843412
 H   -1.3207706263   -2.9206015368    0.8635345636
 H   -0.2865185751   -2.4152702573    2.2556144530