16

 C    0.0579233966    1.4435205499    0.0499251011
 N    0.0402246276   -0.0113153899    0.0560571060
 C    0.4244403479   -0.6475706046   -0.9546925078
 O    0.8796848122   -0.1418750475   -2.1404874240
 C    1.3190795302   -1.2331658112   -2.9527701808
 O    0.7069895085   -2.3929417248   -2.4447554208
 C    0.4939906275   -2.1647945215   -1.0710460936
 C    1.6343720223   -2.6821219921   -0.1877868971
 O    2.6763329626   -3.0885957080   -0.6239681711
 H    0.5918212001    1.7933244485    0.9396080650
 H    0.5209082406    1.8837626598   -0.8399094692
 H   -0.9706899710    1.8124460336    0.1309058223
 H    0.9841358455   -1.0694298870   -3.9799435991
 H    2.4135290389   -1.2984388381   -2.8982624560
 H   -0.4472552061   -2.6275010874   -0.7586201694
 H    1.4184198266   -2.6191628698    0.8999802645