17

 C    0.0333731897    1.5168367497   -0.0747409527
 N    0.0425029116    0.0710130570    0.1014620897
 C   -0.8993981099   -0.5560627299    0.9973945940
 C    0.0470946465   -1.6228375759    1.3958318618
 C    1.1243641709   -0.5889088750    0.8880412622
 C    1.1225872264    0.0461501109    2.3121813077
 C   -0.2713117673   -0.5667911202    2.4582633410
 C   -1.0707980421   -0.6994999850    3.6231738408
 N   -1.7329659449   -0.7975071914    4.5693199750
 H    0.9110138939    1.8093460266   -0.6596273879
 H   -0.8575514267    1.7931877341   -0.6473684867
 H    0.0265803692    2.0957195594    0.8609111963
 H   -1.9725490008   -0.5734342537    0.8547989431
 H   -0.0160694439   -2.7001367800    1.4191409633
 H    2.0540703595   -0.8044753306    0.3658965256
 H    1.8370717946   -0.4675103941    2.9589607812
 H    1.2454099130    1.1280319980    2.4081458956