17

 C    0.0052736709    1.6159320794   -0.0031376539
 C    0.0139750383    0.0782122165   -0.0555414659
 C    0.6454052791   -0.5258341776    1.2275034140
 C   -1.4268722897   -0.4694865639   -0.1420702374
 O   -2.4149198705    0.2067628921   -0.0656781588
 C    0.7193066224   -0.4147120099   -1.2353376318
 C    1.2726613438   -0.8441470542   -2.2235349858
 C    1.9037313002   -1.3184264239   -3.3314789261
 C    2.4628928145   -1.7410902535   -4.3147165871
 H    1.0257571490    1.9969602530    0.0828680271
 H   -0.4507947723    2.0328596834   -0.9031002571
 H   -0.5769307440    1.9525669694    0.8579540485
 H    0.1171362633   -0.1576111510    2.1121205484
 H    0.5970019192   -1.6183369563    1.2167227557
 H    1.6958571469   -0.2331094666    1.2975845583
 H   -1.4757367606   -1.5731667247   -0.2686699754
 H    2.9550161195   -2.1108225322   -5.1799174327