18

 C   -0.3505433275    1.3165072702    0.6621543831
 N    0.0328666321    0.1080406986   -0.0636085337
 C   -1.1493071783   -0.7454044138   -0.3690461584
 C   -1.1542975324   -1.7814948403    0.7227573324
 C   -1.8941172513   -2.7385774330    1.3313602350
 O   -1.1573895051   -3.3216432212    2.3259071273
 C    0.0710596224   -2.7194548470    2.3376932172
 C    0.1177481588   -1.7691169190    1.3741498590
 C    0.9846750459   -0.7246390823    0.7237292196
 H    0.5381540876    1.9263445736    0.8505753511
 H   -1.0321540468    1.9110646663    0.0464471222
 H   -0.8451415636    1.1213653209    1.6317178996
 H   -2.0531423553   -0.1319237851   -0.4170952640
 H   -1.0214667360   -1.2131380512   -1.3547556042
 H   -2.8946052835   -3.1202168650    1.2143517561
 H    0.7565416462   -3.0846885725    3.0840407646
 H    1.7169180687   -1.1864912946    0.0475238334
 H    1.5423838682   -0.0969364545    1.4241116294