16

 C   -0.0405133723    1.5482498304    0.0387471635
 C    0.0600621910    0.0472046147    0.0251922230
 C   -0.7994983530   -0.8324509490    0.9190446665
 C    0.6878967510   -0.8560775386    1.0945705067
 O    1.3827318900   -1.8611724284    0.3777170098
 C    1.1181555224   -1.6052341063   -0.9381847092
 C    1.7240409499   -2.5836148673   -1.8879997651
 O    1.5906906162   -2.5312655405   -3.0813030409
 N    0.4282641433   -0.5713745808   -1.2265038859
 H    0.8888603731    2.0051898455   -0.3138760163
 H   -0.8515631895    1.8803203357   -0.6166706229
 H   -0.2455088034    1.9152519470    1.0485192535
 H   -1.3555059560   -0.3205842999    1.6970924794
 H   -1.2948851096   -1.6933165489    0.4826843733
 H    1.1902452390   -0.5571719393    2.0054294440
 H    2.3215304983   -3.3694173043   -1.3820065293