20

 C    0.0835484992    1.5031940762   -0.0834518848
 C   -0.0370719236   -0.0274300347   -0.0378016324
 C   -1.5173895921   -0.4466943391   -0.0267597298
 C    0.8503212247   -0.6356571561   -1.1312704251
 C    1.5837498337   -1.6467160252   -0.6167593551
 C    2.9344479115   -1.2293181569   -0.0380863099
 N    2.1770921371   -1.0687705620    1.2927968060
 C    1.1286829908   -2.0037099053    0.8036196773
 C    0.6746632173   -0.6668727929    1.1872657542
 H    1.1302062550    1.8216628060   -0.0839726234
 H   -0.3988810140    1.9087913372   -0.9788853870
 H   -0.4031177824    1.9487193359    0.7910602902
 H   -2.0246539570   -0.0650291755   -0.9186219756
 H   -1.6200131411   -1.5353259825   -0.0196714226
 H   -2.0371455157   -0.0479933701    0.8522833916
 H    1.2652245554    0.0219847926   -1.8921305452
 H    3.6784336275   -2.0109710002    0.1435330463
 H    3.4072797672   -0.3322564837   -0.4475690415
 H    0.9411456151   -2.9733853053    1.2504044455
 H    0.3242497915   -0.4415906883    2.1917987016