17

 N   -0.0029271081    1.4567692616   -0.0709383071
 C   -0.0369161760    0.0538481011   -0.0782847516
 C   -1.0961581115   -0.8426259155   -0.0748364721
 C   -0.5625939991   -2.1725730161   -0.2276457140
 O   -1.2692829083   -3.3359999137   -0.3469683785
 C    0.7993667306   -2.0493546605   -0.2166037330
 C    2.1667758830   -2.3913454181   -0.7819674949
 C    2.4007209415   -0.8383625618   -0.8074191886
 N    1.1041110334   -0.6889522714   -0.1014473690
 H    0.5949427381    1.8268072559    0.6601727337
 H   -0.9300867896    1.8470256940    0.0394673819
 H   -2.1323927850   -0.5908460307    0.1070138886
 H   -2.2023052038   -3.1148132295   -0.4147221744
 H    2.8444681281   -2.9431815527   -0.1236867325
 H    2.1718410120   -2.8621159042   -1.7681150296
 H    3.2573068920   -0.4508162741   -0.2497201714
 H    2.3871005227   -0.4070600541   -1.8121644874