14

 O    0.5074195450    1.7999654141    0.6001005850
 C    0.0241827147    0.6487332625   -0.0612481994
 C    0.4467817568    0.6034628192   -1.5391019690
 C   -0.3470863997   -0.3969785248   -2.3510466044
 O   -1.3405219407   -0.9603008493   -1.9565258782
 C    0.1477753996   -0.6818921250   -3.7756042960
 O    1.1318796023   -0.1712059794   -4.2399093613
 C    0.4389738441   -0.5836698332    0.6402263136
 N    0.8166393055   -1.5274204710    1.1892245707
 H    1.4670319779    1.7363222742    0.6709332671
 H   -1.0668482018    0.7083260604   -0.0120116467
 H    0.2833882871    1.5998843213   -1.9693426149
 H    1.5165298374    0.3990393432   -1.6556393973
 H   -0.4944997581   -1.4020250221   -4.3225161792