19

 C   -0.1162597646    1.3696876779    0.1108219438
 O    0.4202809383    0.0930514093   -0.1483762452
 C    0.7960031235   -0.5931028950    1.0106706468
 C   -0.2956625020   -1.2036536032    1.9674048306
 C    0.4005347329   -2.5595977393    1.8087443548
 C    0.3447873253   -3.0048562754    0.3642828448
 C   -0.7755469694   -2.7676209188   -0.5036787164
 C   -1.7312596440   -2.6325638479   -1.2212855295
 C    1.3809798644   -1.9781124448    0.7874277676
 H    0.6028958559    2.0128645187    0.6437248146
 H   -0.3504724033    1.8262529276   -0.8535641888
 H   -1.0378946403    1.3160044126    0.7094314220
 H    1.4947336568    0.0188271565    1.6033396538
 H   -0.2568947948   -0.7948926556    2.9785469659
 H   -1.3227185413   -1.1687160450    1.5949524556
 H    0.5950004967   -3.2686186004    2.6036169748
 H    0.8058287386   -3.9791952980    0.2152057555
 H   -2.5602294364   -2.4875145831   -1.8682808767
 H    2.4338002236   -2.1891341062    0.6424182461