16

 C   -0.5132499572    1.2664538215   -0.0175319638
 N    0.0201153319   -0.0890845959    0.0509403998
 C    1.4107046656   -0.2845892952   -0.3081636953
 C    0.9801009034   -0.4444004331    1.1150140767
 C    1.4220809263    0.5074887477    2.1539467411
 N    1.9987227615    1.6617762271    1.9182707341
 O    2.2032128512    2.1975867654    3.1959524090
 C    1.7356698970    1.2913489259    4.0540547669
 N    1.2423458460    0.2327455370    3.4997268950
 H    0.2105766438    2.0511440076    0.2422306463
 H   -0.8617379565    1.4378570457   -1.0404440501
 H   -1.3741422418    1.3464057750    0.6534678500
 H    1.6365009777   -1.1695070139   -0.8975341573
 H    2.0129736842    0.5934653250   -0.5350472365
 H    0.8215089041   -1.4381890819    1.5221591451
 H    1.8132540331    1.5238862720    5.1061150291