16

 N    0.2133007786    0.7837811543    1.1915333374
 C    0.1108154463   -0.1335988371    0.3294013359
 O    1.1138149155   -0.4804616812   -0.5253315064
 C    0.7867525758   -1.5431357991   -1.4308009501
 O    0.3308310130   -2.6625184510   -0.7470639758
 C   -0.9116529469   -2.4248139912   -0.0807907303
 C   -1.1447145947   -0.9431998004    0.1568254744
 C   -2.4171301071   -0.4408220892    0.6681107171
 O   -2.1055051106   -0.3185734981   -0.7240299884
 H    1.1309257241    1.2301973931    1.1286480384
 H    0.0505031039   -1.1755719442   -2.1600766885
 H    1.7198152240   -1.8108430789   -1.9262301722
 H   -1.7496168402   -2.8187894132   -0.6706040217
 H   -0.8584640935   -2.9662503940    0.8692311435
 H   -3.2092099812   -1.1507916012    0.9036523719
 H   -2.4145636970    0.4857306213    1.2351431248