22

 C   -0.1055056176    1.5677562054    0.1027741996
 C    0.0257801395    0.0378998568    0.0593893345
 C    0.6611977030   -0.4991654736    1.3506609405
 C   -1.3457390626   -0.6055665332   -0.1637696824
 O    0.7787698340   -0.3814144908   -1.0976290664
 C    2.1138202228    0.0419330877   -1.2174363728
 C    2.6257492075   -0.5623247356   -2.5336191940
 C    4.0158120907   -0.2063674382   -2.7988944084
 N    5.1169023228    0.0860180770   -2.9917412603
 H    0.8498380704    2.0601363894    0.3072433058
 H   -0.4931210043    1.9438120823   -0.8487624071
 H   -0.7990518684    1.8635813283    0.8956442576
 H    0.0047187721   -0.3018659260    2.2034644516
 H    0.8135353260   -1.5802495337    1.2790275755
 H    1.6240217565   -0.0265822851    1.5664518329
 H   -1.7841581570   -0.2471807040   -1.0991427463
 H   -1.2478561021   -1.6927776455   -0.2267292975
 H   -2.0264063580   -0.3627791934    0.6569605325
 H    2.2024037811    1.1363144262   -1.2597639879
 H    2.7397789576   -0.3110890768   -0.3862439417
 H    2.5299218513   -1.6522031172   -2.4924375933
 H    1.9964818645   -0.2152905000   -3.3596358924