26

 C    0.0361437262    1.5622822828    0.0590194586
 C   -0.0201623549    0.0276403875   -0.0170932503
 C   -1.4892235448   -0.4244825897    0.0553289093
 C    0.7171112622   -0.5222916891   -1.2673787316
 C    2.1843960248   -0.0706401381   -1.3254767479
 C    0.6142581217   -2.0566708513   -1.3493982169
 N    1.2589787715   -2.5955200258   -2.5461188230
 C    2.5731529113   -3.2096532183   -2.3846034299
 C    1.3662707177   -4.0484798500   -2.6112588907
 H    1.0565458041    1.9411261342    0.1516897499
 H   -0.4103473348    2.0149270377   -0.8348785762
 H   -0.5264264680    1.9233498396    0.9262182285
 H    0.4966791564   -0.3692021605    0.8702979245
 H   -2.0326197965   -0.1376909324   -0.8533947883
 H   -1.5944036849   -1.5051339395    0.1805459248
 H   -1.9939152122    0.0501190753    0.9032197371
 H    0.2077787443   -0.1246798011   -2.1573685497
 H    2.6770106297   -0.4795050821   -2.2101030637
 H    2.2737925690    1.0169603799   -1.3757163283
 H    2.7378977544   -0.4105044000   -0.4406956849
 H    1.0266376308   -2.5072130653   -0.4251914214
 H   -0.4381314656   -2.3495753573   -1.4032527620
 H    3.2842870007   -3.0327825897   -3.1869570100
 H    3.0087478627   -3.2262875213   -1.3864672224
 H    0.9984271960   -4.6263838536   -1.7642059265
 H    1.1749973281   -4.4958716918   -3.5828071289