15

 C   -0.6850729483    0.7122951497    2.4021978652
 N   -0.4254512817   -0.5260502244    1.6911495558
 C   -1.0049862782   -0.8197960920    0.6190545262
 C   -0.7814282393   -2.1519294885   -0.0675003677
 C   -0.2127282276   -1.9780105102   -1.4044123039
 N    0.2414602887   -1.8114371654   -2.4532777408
 O   -1.9589008451   -0.0503857512   -0.0450598019
 C   -1.5625350968    1.1083639021   -0.6656252502
 O   -2.3460956097    1.8419171466   -1.1730938934
 H   -0.8795849607    0.4662774165    3.4504422978
 H    0.2215333867    1.3261090707    2.3845256752
 H   -1.5240782704    1.3005570107    2.0142396439
 H   -0.1127116633   -2.7541332837    0.5502865762
 H   -1.7402374956   -2.6757404936   -0.1594035994
 H   -0.4691610886    1.2462823028   -0.6371256629