19

 C   -0.2043767485    1.5726600661    0.1187762467
 C   -0.0266356959    0.0547460923    0.0184507063
 C    0.6810345168   -0.3957142055   -1.2775013975
 N    2.0733751654    0.0531079601   -1.3027424690
 C    2.7763727014   -0.1763228407   -2.5591510744
 C    4.2654579182    0.0700017582   -2.3822268358
 O    4.9781223691    0.5440623502   -3.2265083765
 C    0.6462888127   -1.8656964539   -1.3801905675
 N    0.6034217697   -3.0167506670   -1.4702243711
 H    0.7493039112    2.1026489970    0.2120909679
 H   -0.7311735360    1.9719688782   -0.7547380302
 H   -0.7929553570    1.8246434881    1.0051810609
 H    0.5464188082   -0.3243795593    0.8705251780
 H   -1.0070650683   -0.4304895316    0.0478600579
 H    0.0983144010   -0.0124896455   -2.1368351114
 H    2.0922471386    1.0404407865   -1.0738857481
 H    2.6686284902   -1.2390339860   -2.8216896462
 H    2.4132513428    0.4113527742   -3.4168502573
 H    4.6503302304   -0.2425423915   -1.3861307228