17

 C   -0.1129798312    1.5533594937    0.0777809712
 C    0.1478158476    0.0886748311   -0.0223426472
 O   -0.7496957857   -0.8417488672    0.6358648902
 C    0.6335941476   -0.9374939612    0.9455698332
 C    1.2825455865   -1.8097404802   -0.1394337627
 C    2.8112789330   -1.7773430621   -0.1372491388
 O    0.7745514058   -3.1193327419   -0.1783329158
 C    0.7101263367   -0.7564741916   -1.1631732247
 O    0.8055311051   -0.6328593103   -2.3490068762
 H    0.7717049042    2.1233246483   -0.2218092212
 H   -0.9373655662    1.8398533083   -0.5827941030
 H   -0.3815439275    1.8250575655    1.1018784716
 H    0.9424786185   -0.7940284042    1.9748650846
 H    3.1903024272   -2.3999910909    0.6783757090
 H    3.1952906220   -2.1698703290   -1.0842508343
 H    3.1996942436   -0.7609436662   -0.0145540693
 H    0.9476914626   -3.4771186920   -1.0565060166