21

 C   -0.0709489959    1.5727658317   -0.0234429533
 C   -0.0115350991    0.0490636089    0.0129695903
 C   -1.3836539593   -0.5537866565   -0.3022505340
 C    1.1637959651   -0.6456803717   -0.7522103200
 O    2.3124692190    0.0787990670   -0.2910308925
 C    2.2334840939   -0.3259837490    1.0897434550
 C    2.5126398195   -1.8389431448    0.9871397096
 C    1.1400190705   -1.8370791827    0.2996432897
 C    0.6792477636   -0.6407524991    1.2125665374
 H    0.9168611372    2.0132976844    0.1186772593
 H   -0.4644922170    1.9261949045   -0.9839886212
 H   -0.7381814890    1.9497210305    0.7604961658
 H   -1.7203336140   -0.2384538186   -1.2965765623
 H   -1.3869459301   -1.6464408406   -0.2797050992
 H   -2.1309797746   -0.2069858286    0.4201649053
 H    1.1875757937   -0.7743008232   -1.8344102548
 H    2.7821679315    0.3609016668    1.7317063240
 H    3.4061124534   -2.1381697385    0.4336323169
 H    2.4608348100   -2.3468316905    1.9542593510
 H    0.5548169358   -2.7291600943    0.0942553872
 H    0.2410709860   -0.7567812455    2.2035438860