19

 C    0.0118307226    1.5860190063    0.1799756669
 C    0.0004457919    0.0606997843   -0.0321632291
 C   -1.3774733662   -0.5248784262   -0.1001053136
 C   -2.1613505454   -0.8163121822   -1.2039023531
 C   -3.3601508326   -1.3125504137   -0.6575245543
 O   -4.4369133571   -1.7253289619   -1.3605817833
 N   -3.3452157694   -1.3372714996    0.6659774028
 N   -2.1203927800   -0.8355371162    0.9962535054
 C   -1.7284654836   -0.8421392654    2.3869246309
 H    1.0375657520    1.9673340657    0.1941696631
 H   -0.5316662339    2.0907101386   -0.6238039149
 H   -0.4648036046    1.8644377731    1.1252141263
 H    0.5110874927   -0.1756765926   -0.9708976125
 H    0.5815442697   -0.4261532617    0.7599181544
 H   -1.9086993747   -0.6834797361   -2.2426085778
 H   -5.0975603229   -2.0104613345   -0.7169491790
 H   -1.3055428076   -1.8092680886    2.6851448027
 H   -0.9905521679   -0.0600889035    2.5737531330
 H   -2.6144860731   -0.6476761657    2.9930407623