17

 O    0.1345381670    1.2239516268   -0.4106600362
 C    0.0265055196   -0.1755607027   -0.2724272079
 C   -1.3776005128   -0.5780890210    0.1810767181
 O   -2.3519596541   -0.0955218273   -0.7507980793
 C   -3.1299372908   -1.1619846183   -1.2488853811
 C   -2.4365685736   -2.1507460675   -2.1205062736
 C   -2.6853544391   -2.4656797488   -0.6374956942
 C   -1.5848335386   -2.0954157719    0.3028500826
 O   -0.9915035236   -2.8115954877    1.0686010280
 H   -0.5832922963    1.4955736679   -0.9949762462
 H    0.2763480273   -0.6949025659   -1.2116605947
 H    0.7481587629   -0.4908163254    0.4866476679
 H   -1.5762966952   -0.1154121520    1.1571592611
 H   -4.1694359647   -0.8944493361   -1.3978964266
 H   -3.0333560374   -2.7287379674   -2.8173687768
 H   -1.4270974742   -1.9362273411   -2.4527045564
 H   -3.3394712364   -3.2855586516   -0.3722360148