23

 C   -0.1128944143    1.6956827736   -0.0097336820
 C   -0.0343262201    0.1726891041   -0.1454341312
 C   -1.3901134372   -0.5164854178    0.0396762230
 C   -1.3162225344   -2.0423024647   -0.1019565336
 C   -2.6619880545   -2.7309778108    0.1124309635
 C   -2.7602352940   -4.2919807655    0.0940361447
 C   -3.6106968041   -4.2704190953    1.3997638359
 C   -3.2311371455   -2.7876883716    1.5442744176
 O   -3.2512517898   -2.0107495074    2.4563979615
 H    0.8694243005    2.1606078312   -0.1399676955
 H   -0.7866776987    2.1259757055   -0.7592148661
 H   -0.4910597784    1.9844814450    0.9770406142
 H    0.3756135234   -0.0880735370   -1.1306882554
 H    0.6758680190   -0.2242643855    0.5921039819
 H   -1.8009383527   -0.2704550688    1.0257209216
 H   -2.1026254569   -0.1193671265   -0.6974169456
 H   -0.9349455093   -2.3070544488   -1.0975946219
 H   -0.5910246240   -2.4422896199    0.6198239603
 H   -3.4194390743   -2.2922481239   -0.5517321583
 H   -3.2326920331   -4.7338594941   -0.7840003000
 H   -1.7850916915   -4.7620271591    0.2445165042
 H   -4.6842382690   -4.3949583499    1.2233522681
 H   -3.3177684311   -4.9250195028    2.2242266232