14

 C    0.0702636224    1.4806850212   -0.0074931949
 C   -0.0528167059    0.0031083197    0.0693866749
 N   -1.1375788399   -0.7140448170    0.1005896345
 C   -0.6812806509   -2.0138092991    0.1687203905
 O   -1.5026057990   -3.0943877509    0.2598613077
 C   -2.7800473509   -2.9974873368   -0.2279710451
 O   -3.5403739425   -3.9079850852   -0.1295859687
 C    0.6713794007   -2.0367913605    0.1790313538
 O    1.0827108372   -0.7284001324    0.1196754799
 H    0.6073989433    1.7824160850   -0.9124321562
 H   -0.9267910732    1.9206876384   -0.0206242398
 H    0.6242784842    1.8719419000    0.8516447083
 H   -2.9834048080   -2.0218835383   -0.6896176598
 H    1.4255251925   -2.7999453140    0.2285194449