20

 C    0.2604647297    0.6701030446    1.0030586831
 C   -0.4053706107    0.3328609518   -0.3334072411
 C    0.5557452403   -0.0602122186   -1.4090850780
 C    1.9058780402   -0.1679257692   -1.3835111506
 O    2.3310470653   -0.5653353181   -2.6252536277
 C    1.1915081318   -0.6804611759   -3.3556400635
 C    1.3226223998   -1.0940578752   -4.7812662295
 C    2.0974429311   -0.0773902301   -5.6369359211
 N    0.1163272366   -0.3944987199   -2.6917722289
 H    0.8207501167   -0.1855487253    1.3943215194
 H    0.9574143813    1.5082919138    0.8990327019
 H   -0.4879380947    0.9487223911    1.7498382320
 H   -1.1296337797   -0.4805389319   -0.1979189506
 H   -0.9942564083    1.1887741137   -0.6871816634
 H    2.6702834425   -0.0191790150   -0.6414565093
 H    1.8257651797   -2.0677522440   -4.8270434732
 H    0.3096586889   -1.2317181875   -5.1665966178
 H    1.5913570388    0.8924607339   -5.6444961118
 H    3.1084450634    0.0703985631   -5.2476459215
 H    2.1768345475   -0.4292805014   -6.6694217482