21

 O   -0.2922615681    1.2841692953    1.1320383182
 C    0.1404916329    1.3145261758    0.0084302047
 C    1.5388164341    1.7544090807   -0.3701525302
 C    1.4797404910    2.9446277770   -1.3189432038
 C    1.1628825001    4.3679995158   -0.9086056314
 C    1.2956975168    4.7892195742    0.5511004667
 C    2.7503682220    4.4521003956    0.9782071085
 C    3.5583426130    4.2258839854   -0.3289663832
 C    2.5379756618    4.0206572205   -1.4419527701
 H   -0.5015411403    1.0267039379   -0.8577047383
 H    2.0900165057    1.9605226722    0.5468571280
 H    2.0335272650    0.9161490038   -0.8816150539
 H    1.0400862068    2.6755953358   -2.2776921560
 H    0.4477631440    4.9085650760   -1.5199174017
 H    1.1150193687    5.8675239241    0.6179828874
 H    0.5610901303    4.3041055819    1.2021504046
 H    3.1855778017    5.2535216806    1.5815876789
 H    2.7697828087    3.5592872937    1.6080325048
 H    4.1560210390    5.1118194146   -0.5700039605
 H    4.2629474909    3.3918448313   -0.2342789423
 H    2.8349468659    4.3006746278   -2.4475198205