17

 C    0.0328194363    1.4372132755   -0.0244789529
 N    0.0142438311   -0.0152702591   -0.0048165106
 C    0.0168191315   -0.8553230737   -1.1182336798
 C    0.0389121581   -0.4062639192   -2.4957975480
 O    0.0402314111   -1.1492365739   -3.4561958243
 C   -0.0056642609   -2.1347246955   -0.5930503537
 N   -0.0212541819   -2.1049873120    0.7638427479
 C   -0.0088282818   -0.8175499005    1.0949853815
 C   -0.0191324232   -0.3181623729    2.5016639552
 H    0.9333488949    1.8096578323   -0.5213700513
 H   -0.8450335141    1.8320197426   -0.5441400078
 H    0.0243352773    1.8083953558    1.0001005394
 H    0.0540704572    0.6986639420   -2.6357576351
 H   -0.0107857108   -3.0583742791   -1.1513221316
 H    0.8700200896    0.2780700235    2.7357062450
 H   -0.8996136196    0.2982123624    2.7155155737
 H   -0.0365879349   -1.1844943382    3.1632893325