22

 C    0.1028046972    1.5071468166    0.1673490671
 C    0.0801584998   -0.0072167056   -0.0443443875
 N    0.9043960232   -0.3702753833   -1.1949663533
 C    1.7736443418   -1.2608401618   -1.0805570173
 O    2.1326564389   -2.0439604544    0.0072147624
 C    3.1657242774   -2.7172499339   -0.7728127348
 C    2.7980330690   -1.8753692245   -2.0247618182
 C    2.1808237949   -2.6592328643   -3.1834200935
 C    3.8714765699   -0.8962243179   -2.5000123466
 H    1.1124241078    1.8501442898    0.4144300360
 H   -0.2158802596    2.0260419432   -0.7412655676
 H   -0.5653001476    1.7928377554    0.9861634484
 H    0.3911373554   -0.5235457268    0.8733031195
 H   -0.9484169645   -0.3244307152   -0.2602265416
 H    4.1567014068   -2.5384308216   -0.3462217941
 H    2.9683912402   -3.7908852334   -0.8374533834
 H    1.4226031640   -3.3649941872   -2.8307691764
 H    1.6995267612   -1.9749093253   -3.8880952885
 H    2.9494877676   -3.2226564902   -3.7237063411
 H    4.6720212602   -1.4245605868   -3.0293399821
 H    3.4359897987   -0.1616797936   -3.1836107625
 H    4.3160439677   -0.3511934691   -1.6617703149