15

 C   -0.2351202764    1.4172051314    0.0055030324
 C    0.0171969047   -0.0654146743    0.1220222831
 N    1.2921675848   -0.5899592882   -0.2991706075
 C    0.9833768755   -0.6713565081    1.1439277660
 C    1.7696220624    0.2103444161    2.0543844792
 O    1.7567379978    0.1009005044    3.2560202569
 C    0.5649777986   -2.0052602463    1.6725021003
 O    0.2028170938   -2.9003390442    0.9434743621
 H    0.6857747692    1.9926981174    0.1167484144
 H   -0.6505042195    1.6374955993   -0.9835916947
 H   -0.9576531408    1.7517646479    0.7559714403
 H   -0.8516244598   -0.7016642266   -0.0443379727
 H    1.1712042451   -1.5324610726   -0.6739415603
 H    2.3809817121    0.9774053118    1.5355331166
 H    0.6210370226   -2.1179915480    2.7697984838