17

 O   -0.0554866367    1.5225396351   -0.1839918124
 C    0.0529533453    0.1288560728   -0.0305074905
 C   -1.3305637184   -0.5695995597    0.0290755531
 C   -1.2568768433   -2.1079736738   -0.0597911000
 N   -1.0145753452   -2.8184632295    1.1936618225
 C   -1.4316810749   -2.2609545228    2.2496435749
 N   -2.0432778506   -1.0044957811    2.3240498199
 C   -2.0089458804   -0.0856213254    1.2961931099
 O   -2.4086093001    1.0548265143    1.4505558414
 H   -0.7639506371    1.8261976091    0.4015448865
 H    0.5928321356   -0.2525021483   -0.9045666230
 H    0.6439460413   -0.1445474512    0.8605060256
 H   -1.9068120095   -0.1765408000   -0.8141432409
 H   -2.1996682694   -2.4951349401   -0.4706630813
 H   -0.4774085877   -2.3960941711   -0.7732089473
 H   -1.3319575485   -2.7586765342    3.2132071611
 H   -2.3640618005   -0.6544990741    3.2163588803