18

 O   -0.0033880019    0.0595389081   -0.2857468479
 C   -0.0122951066    1.2428964036   -0.0692697495
 C   -1.2625483730    2.1162352325    0.1075772597
 C   -0.7382717015    3.4497714441    0.6655775328
 C    0.6732813685    3.5550006052    0.0863938304
 C    0.9455361569    4.4827244226   -1.0740217887
 C    1.5312597395    4.7674505335    0.2913797102
 C    1.2265320511    2.1388534019    0.0817311038
 H   -1.7027160370    2.2512320150   -0.8890122347
 H   -2.0096097713    1.6104313212    0.7233755935
 H   -1.3642949377    4.3063096464    0.4018438024
 H   -0.6911256727    3.4050576235    1.7612404567
 H    1.6182207857    4.1448725979   -1.8558057797
 H    0.1396750099    5.1194747477   -1.4250071810
 H    1.1178310871    5.5947794886    0.8598022304
 H    2.5984500178    4.6261426848    0.4285915401
 H    1.6964728953    1.8856054034    1.0431406144
 H    1.9616210597    1.9284402899   -0.6991878429