21

 O   -0.1385462620    1.4005558022   -0.2346990135
 C    0.0148571837    0.0047226621   -0.0194421403
 C   -1.3764195001   -0.6145106254   -0.0211576334
 C   -1.3738136917   -2.1503472018    0.1461096143
 C   -0.7747647845   -2.5576231375    1.4198832951
 C   -0.3043273953   -2.8851175320    2.4771466545
 C   -2.7821661542   -2.7203103444    0.0068491539
 C   -3.3540059420   -2.9901151473   -1.3607276520
 C   -2.9913952878   -4.1380112794   -0.4487245719
 H    0.7274151096    1.8113999916   -0.1597504054
 H    0.6270621230   -0.4549489879   -0.8140786122
 H    0.5129793822   -0.2026112594    0.9385345821
 H   -1.9679912632   -0.1587691441    0.7804557099
 H   -1.8712398194   -0.3701800215   -0.9671087210
 H   -0.7635671370   -2.5772603423   -0.6641921026
 H    0.1166613033   -3.1822001727    3.4055504790
 H   -3.4746520032   -2.3488532905    0.7571406219
 H   -4.4024906832   -2.7744576959   -1.5332295271
 H   -2.7189493628   -2.8092102636   -2.2224876554
 H   -2.1121348660   -4.7235508077   -0.6971689231
 H   -3.7909169397   -4.7128311424    0.0048220071