17

 C    0.1154417888    1.4797647723   -0.2096812148
 C   -0.0499847208    0.0069309674    0.1080624899
 O    1.1610208119   -0.7806487777    0.1336643881
 C    0.4509974767   -0.6211654804    1.3555247108
 C    1.1304391259    0.1436257355    2.4815360753
 C    2.0059934673   -0.7156201652    3.2717685554
 C    2.7141980671   -1.4425796942    3.9143983235
 C   -1.1724686147   -0.6244036973   -0.5526638902
 C   -2.1170350476   -1.1171410151   -1.1091460180
 H    1.0003843382    1.8952987145    0.2740832323
 H    0.2224743356    1.6124923040   -1.2899570369
 H   -0.7670382356    2.0405019411    0.1128130215
 H   -0.0659326471   -1.5220476003    1.6875006911
 H    1.7051964291    0.9796318628    2.0726199618
 H    0.3549281328    0.5738441667    3.1295774905
 H    3.3487916637   -2.0780101859    4.4809117873
 H   -2.9468543911   -1.5644476082   -1.5985351876