20

 C    0.2526350240    1.5095701867   -0.2137599758
 C    0.0188159101    0.0088013135    0.0067717613
 C   -1.4666042716   -0.3075670178    0.1343794662
 O    0.5265400877   -0.7541240166   -1.0883374331
 C    1.9309379651   -0.9394494300   -0.9397698944
 C    2.2584396002   -0.7647025150    0.5644292406
 C    0.8596979933   -0.5609899192    1.1962662030
 C    0.8594675762    0.2571974903    2.4007772716
 N    0.8486876645    0.9121645819    3.3536441671
 H    1.3167950018    1.7482417776   -0.2996508919
 H   -0.2386097339    1.8172935935   -1.1405684929
 H   -0.1563962617    2.0978793070    0.6118896025
 H   -2.0052375074    0.0439272307   -0.7498395162
 H   -1.6209747023   -1.3865370642    0.2219092599
 H   -1.8914579708    0.1843946899    1.0141926311
 H    2.1685533829   -1.9412717496   -1.3096066156
 H    2.4876248720   -0.2149161571   -1.5487824833
 H    2.7675300292   -1.6310363526    0.9901071072
 H    2.8915960056    0.1074822825    0.7392560268
 H    0.4334802353   -1.5366073612    1.4532719959