18

 O    0.1547067986   -0.1809528015   -0.3591057312
 C    0.0759798826    1.0097132590   -0.2140670362
 C    1.2686671838    1.9479100170   -0.0643413409
 C    1.2875606558    2.9630516317   -1.1706519953
 C    0.9825716920    4.2626104895   -1.1075446114
 C    1.0613774814    4.9024019960   -2.4748402667
 N    1.5119585553    3.8342830312   -3.3985872121
 C    2.8522819211    3.3141224292   -3.1151813173
 C    1.6531773027    2.6088878699   -2.5779881247
 H   -0.9086118250    1.5299680323   -0.1911533269
 H    1.1658936691    2.4581862032    0.9016575776
 H    2.1777209586    1.3386398608   -0.0497700435
 H    0.7352938100    4.8109979207   -0.2052847767
 H    0.0829460246    5.2740000569   -2.8081260157
 H    1.7516349556    5.7548964083   -2.5123900951
 H    3.3733610478    2.9240755296   -3.9853697344
 H    3.4783784230    3.8407811245   -2.3971873831
 H    1.3231479430    1.6657632019   -3.0070755564