17

 O    0.1379959614   -0.1153943915    0.4398118981
 C    0.0631527142    1.0278627934    0.0539566672
 C    1.2462723888    1.9231907798   -0.0293494571
 C    1.4426879554    2.9217074873   -1.1773746333
 C    0.4159717946    3.1387230233   -2.2752440172
 O   -0.8661901308    3.4804548829   -1.7571104835
 C   -0.7632976292    4.4593274623   -0.7614998374
 O   -0.1646804379    3.9552369218    0.4119276486
 C    1.1129994116    3.4298347099    0.1893248488
 H   -0.8988823150    1.4713447160   -0.2625378759
 H    2.1521943768    1.4625823697    0.3504645143
 H    2.4705482668    3.0262827454   -1.5099635537
 H    0.7741948231    3.9501540561   -2.9287648370
 H    0.2727707475    2.2466052243   -2.8906532077
 H   -0.1902248231    5.3249053064   -1.1385233045
 H   -1.7759425176    4.7579610599   -0.4877623722
 H    1.8773735533    3.9080380130    0.7961016225