19

 C   -0.4847273273    1.4511879533    0.2510957362
 C   -0.0810576874    0.0458907434   -0.0547055894
 C   -0.3604711717   -0.7815509476   -1.1226301803
 C    0.3074440472   -2.0010381819   -0.8464906779
 C    0.3408093904   -3.2405765521   -1.6908225067
 C    0.9744711807   -4.4415948427   -0.9992086021
 O    0.9200545215   -5.5270263832   -1.9171156057
 N    0.9558886520   -1.9358823181    0.3140758503
 N    0.7066352704   -0.6892030618    0.7728480573
 H   -1.0301949901    1.5219892266    1.1992775227
 H    0.3817172306    2.1193553774    0.3190555794
 H   -1.1370996104    1.8327485157   -0.5368542853
 H   -0.9647927504   -0.5385018495   -1.9825470502
 H   -0.6778143897   -3.5097661791   -1.9958673398
 H    0.8893162367   -3.0480851384   -2.6220527379
 H    2.0085698702   -4.2043485865   -0.7134141641
 H    0.4276276093   -4.6680661969   -0.0722579701
 H    1.3384546074   -6.2863241603   -1.5019614298
 H    1.0979157507   -0.4099405083    1.6563472537