21

 C   -0.0432109006    1.4818101565    0.0309970471
 C   -0.0305842804   -0.0280532479    0.1936633754
 O   -1.3140475187   -0.5221534047   -0.1601843295
 C   -1.4542531993   -1.9282291069   -0.0665576919
 C   -1.3756664972   -2.4034556981    1.3201455499
 C   -1.3040339902   -2.7613777729    2.4652875170
 C   -2.8096085185   -2.2955469990   -0.7220562336
 C   -2.8772397233   -1.8257392609   -2.1720306470
 O   -3.0582843225   -3.6853609871   -0.5982252320
 H    0.9342306308    1.8986561276    0.2916221188
 H   -0.2745617231    1.7587320724   -1.0016135952
 H   -0.7970576503    1.9307855410    0.6837347267
 H    0.7353982017   -0.4844982897   -0.4554375338
 H    0.2083616283   -0.3074620301    1.2294233725
 H   -0.6528280205   -2.4204760361   -0.6501779671
 H   -1.2500469021   -3.0896760619    3.4738963071
 H   -3.5949858438   -1.8077209456   -0.1355483705
 H   -3.8496972428   -2.0821190498   -2.6004193308
 H   -2.7254332939   -0.7469175799   -2.2384880098
 H   -2.0984851559   -2.3147054252   -2.7725353806
 H   -2.4560351678   -4.1493365716   -1.1906551827