18

 C   -0.0077393085    1.6570942780    0.0841579513
 C   -0.0247195685    0.1362197753    0.0070083889
 C    1.0514579696   -0.4832929931   -0.9340287990
 C    1.9293735330   -0.7516709770    0.3187621813
 C    0.6641640055   -0.5640461158    1.2007932445
 O   -1.3832297160   -0.3259075876   -0.1545618364
 C   -1.9446018253   -0.2287820566   -1.3701978831
 O   -3.0766808639   -0.5489805608   -1.5877070861
 H    1.0030939640    2.0202908018    0.2926274024
 H   -0.3396683225    2.1074229296   -0.8571131980
 H   -0.6705900417    2.0001501635    0.8840113552
 H    0.6922856976   -1.4152659993   -1.3778141234
 H    1.4572391926    0.1553211235   -1.7223829494
 H    2.4286313337   -1.7201804578    0.3707219958
 H    2.6748126416    0.0303931196    0.4816939394
 H    0.7556363662    0.0101957693    2.1255382162
 H    0.1700757924   -1.5139913482    1.4156625411
 H   -1.2561384099    0.1623516257   -2.1428243107