18

 C   -0.2692071653    1.3117761245    0.4519543284
 O   -0.1696520834   -0.0876907469    0.5616944380
 C    1.1592227370   -0.5534847475    0.4932195056
 C    1.1141473290   -2.0634069548    0.6318832029
 O    2.4155666084   -2.6847749843    0.4354190643
 C    2.2528167064   -3.4255521687    1.6515973189
 C    2.2103604295   -2.5093693286    2.8294994271
 C    0.9591283191   -2.7281652799    1.9994162974
 H    0.1299911735    1.6753139309   -0.5082054942
 H   -1.3289880321    1.5706577936    0.5146884929
 H    0.2710414503    1.8249843536    1.2631696092
 H    1.6252395643   -0.2939837283   -0.4728870484
 H    1.7777297638   -0.1048254982    1.2867014264
 H    0.3953170543   -2.4669283939   -0.0918265890
 H    2.5597450130   -4.4646199747    1.6561040790
 H    2.1850388090   -2.9952713925    3.8001256321
 H    2.7567655324   -1.5709632861    2.8013556563
 H    0.0363910308   -3.1117241880    2.4107391530