24

 C   -0.4337953849    1.5046223811   -0.1244443838
 C   -0.1575345130    0.0006495477   -0.2102440359
 C    0.7862179356   -0.4620012979   -1.3156945741
 C    1.0904211557    0.4001131644   -2.4847018281
 N    2.1232865967    0.1406752958   -1.4593838251
 C    0.8207722722   -1.9719614313   -1.5376686255
 C    1.3464014615   -2.7381199963   -0.3193723224
 O   -0.5008045991   -2.3545191749   -1.9019252474
 C   -0.6121578078   -3.6348456552   -2.4750889579
 H    0.4861221098    2.0959719539   -0.0438374946
 H   -0.9895717000    1.8658961178   -0.9945134370
 H   -1.0327843928    1.7259126022    0.7637616859
 H    0.2497014415   -0.3391908947    0.7511157813
 H   -1.1032693715   -0.5341405018   -0.3448293559
 H    1.2844599910   -0.0525742674   -3.4535570759
 H    0.6512723632    1.3911701737   -2.5341159639
 H    2.2072671041    0.9510877249   -0.8499742247
 H    1.5005645601   -2.1605215187   -2.3838114899
 H    1.4856766218   -3.7992320385   -0.5440285467
 H    2.3168577973   -2.3282721700   -0.0254979972
 H    0.6554330075   -2.6581270989    0.5247070679
 H    0.0621462216   -3.7534433597   -3.3382964718
 H   -0.3978905412   -4.4422726868   -1.7600173134
 H   -1.6439494590   -3.7447577894   -2.8193625437