19

 C   -0.1012558963    1.5676517729    0.0375971650
 C   -0.0295034004    0.0478786686    0.0464071259
 C    0.9169768909   -0.6673762250   -0.9915047091
 C    1.6677610527   -1.2984536193    0.1940667758
 C    2.4263137785   -2.5915780663    0.2510415146
 C    3.7589159095   -2.5012714756   -0.4758960836
 O    4.1441454128   -3.2983013747   -1.2906561082
 O    2.1611659091   -0.2033762946    0.9888984490
 C    0.7970114755   -0.6138231781    1.1651832050
 H    0.9005312094    1.9948268886    0.1364900425
 H   -0.5401319012    1.9350018314   -0.8958568005
 H   -0.7157032546    1.9402131836    0.8645317288
 H   -1.0305566489   -0.3931013140    0.0035565941
 H    0.3908131684   -1.3949463660   -1.6139868978
 H    1.5251078603   -0.0164318802   -1.6249332425
 H    2.6421759677   -2.8198397097    1.3035177194
 H    1.8487806946   -3.4160519772   -0.1768534838
 H    4.3754388483   -1.6219481905   -0.1860016840
 H    0.4964982738   -0.8943039641    2.1694729394