14

 O    0.1018071966    1.4020282916   -0.0191986404
 C    0.0424840399    0.0008183863   -0.0435486501
 C   -1.4152443590   -0.5292040249    0.0033281979
 C   -1.4419571830   -2.0763185855   -0.0749855809
 C   -2.7895830567   -2.6212022291   -0.2121150147
 N   -3.8578418703   -3.0430366882   -0.3331825033
 C   -2.0608158690   -0.0348669557    1.2215187531
 N   -2.5039116967    0.3892396337    2.2011632983
 H   -0.1826475178    1.7069273383    0.8504212262
 H    0.4905512396   -0.3150168809   -0.9908994328
 H    0.6187878547   -0.4589086988    0.7737259887
 H   -1.9525006576   -0.1133972189   -0.8556134908
 H   -0.8479074435   -2.3923515777   -0.9396534701
 H   -0.9710131371   -2.5059333903    0.8154085890