15

 N   -0.8172458690    0.2221951969    1.4766440952
 C   -0.2465944326    0.4508913176    0.4982784629
 C    0.4967603371    0.7649034717   -0.7186367404
 C    1.6683393960    1.6989291158   -0.4714709016
 C    2.5438342641    1.6360730999    0.7625362351
 C    1.7437284486    2.8779454488    0.4866803790
 O    2.4003469950    3.9065480936   -0.2427327775
 C    2.7072365527    3.3466507418   -1.4388055942
 N    2.3356800307    2.1521067651   -1.6751034185
 H    0.8640177182   -0.1665064869   -1.1649492939
 H   -0.1861125564    1.2172467649   -1.4464731088
 H    2.1821664983    1.0342698783    1.5893612747
 H    3.6198893658    1.6534707635    0.6271201251
 H    0.9763003919    3.2468389688    1.1538342394
 H    3.2570296694    3.9879037602   -2.1164076665