20

 C   -0.1377455813    1.5100625033    0.0992422892
 C    0.1377195902    0.0052750275   -0.0315292259
 C    0.7529501951   -0.5744123463    1.1999648699
 C    0.1094512535   -1.0374494615    2.4615162774
 C    1.0490211265   -1.9817631519    1.6897781016
 C    0.6763739689   -3.3541742349    1.2149908634
 C    2.4348497002   -1.4578667388    1.8874555301
 N    3.5390909419   -1.9727115671    2.1835932316
 O    2.1162015250   -0.1491003864    1.5305482607
 H    0.7879440328    2.0551398460    0.3043081561
 H   -0.5695800166    1.9067555540   -0.8239572109
 H   -0.8362083838    1.7125162656    0.9171579689
 H   -0.7951294858   -0.5340502116   -0.2341097439
 H    0.8045921705   -0.1806110287   -0.8817445895
 H    0.4075481574   -0.6113654978    3.4145730054
 H   -0.9383090752   -1.3160270041    2.3864299687
 H   -0.3731071642   -3.3925268537    0.9070813209
 H    1.2953232298   -3.6598165770    0.3660953703
 H    0.8176821953   -4.0914406726    2.0120562820
 H    4.2867794598   -1.2768724741    2.1665810039