18

 C   -0.1003642855    1.4910577721   -0.0026369889
 C    0.0835517408    0.0036336611   -0.0507846156
 C   -0.0270028635   -0.8866109842   -1.2820860313
 C   -0.2493473460   -2.0123519828   -0.2570889726
 C    1.0965506772   -2.1932902466    0.4633386229
 C    0.8162506965   -0.8062150457    1.0091224376
 C    1.3675617533   -0.2344651351    2.2500139337
 O    2.3453131242   -0.6794250297    2.8034343957
 N   -0.6939985975   -0.9400332531    0.7985340276
 H    0.7780541594    2.0078088203   -0.4037684489
 H   -0.9695075337    1.7812885614   -0.6018985416
 H   -0.2685242882    1.8433943760    1.0181438893
 H   -0.9413752039   -0.6493220453   -1.8330603116
 H    0.8166598071   -0.9677208728   -1.9746542177
 H   -0.9105143286   -2.8517519632   -0.4594916831
 H    1.0459068246   -2.9330838114    1.2649859876
 H    1.9899290617   -2.3624563420   -0.1442465332
 H    0.8138796620    0.6366042811    2.6616978602