13

 N    0.0437783709    1.3428084113    0.1651388022
 C    0.0348732554   -0.0216117983    0.0378201916
 N   -1.0833633078   -0.7087382754    0.0092936415
 O   -0.6644553044   -2.0799094561   -0.0448774310
 C    0.6592659083   -2.1346905917   -0.0632723561
 N    1.2368789010   -3.3526754724   -0.1700386193
 C    1.1985616093   -0.8636225669   -0.0117484691
 C    2.5541075414   -0.4985154302   -0.0022626340
 N    3.6747614682   -0.1952692104    0.0020041001
 H    0.8440973346    1.8129170338   -0.2299317061
 H   -0.8365520090    1.7916238344   -0.0416827953
 H    0.6665026097   -4.1516927040    0.0575205799
 H    2.2145463023   -3.4225941542    0.0626542257