18

 C   -0.9513414994    1.3800458527    0.5141738264
 O   -1.1773010655   -0.0140335763    0.6169299720
 C   -0.6495450894   -0.7410306789   -0.4798231402
 C   -0.9090815333   -2.2304328787   -0.2758645029
 C   -0.9982211439   -2.7932229575    1.1487416958
 C   -2.2450799752   -2.6994106902    0.3246546670
 O   -3.2671497930   -1.8066698077    0.5827331822
 C   -0.3129359714   -3.0488702588   -1.2941215115
 N    0.1623405258   -3.7035335261   -2.1224221411
 H   -1.3798266531    1.8427740572    1.4050915406
 H    0.1240202835    1.6020661514    0.4729542323
 H   -1.4323441587    1.8006064581   -0.3800703885
 H   -1.1183066636   -0.4079167893   -1.4186593717
 H    0.4325644799   -0.5583373038   -0.5636838463
 H   -0.5606455668   -3.7671794912    1.3346146494
 H   -0.8629015338   -2.0609080427    1.9362482881
 H   -2.6410610255   -3.6248486604   -0.0795769219
 H   -2.8599767968   -0.9656065578    0.8381852801