21

 C   -0.7441825586    1.0816222576   -0.0221656227
 C    0.0388310850   -0.2180256758   -0.0893881365
 C    1.3343042757   -0.3027177932   -0.9419406069
 O    1.9705034742    0.9656893525   -0.9407027063
 C    1.9172251104   -1.2720203740    0.1216114061
 C    0.8655731062   -0.7316365221    1.1196934638
 C    1.2889060832    0.1940280602    2.2799476592
 C    0.6417934614   -0.8751819078    3.1793336398
 O    0.2392856649   -1.6511257940    2.0304729006
 H   -0.0843472269    1.9299900847    0.1736171857
 H   -1.2622893819    1.2770631164   -0.9669688090
 H   -1.5018893682    1.0361045092    0.7677894074
 H   -0.6162553323   -1.0462792141   -0.3842594321
 H    1.2290143300   -0.6881996491   -1.9639321153
 H    2.8658635919    0.8477472085   -1.2728925830
 H    1.7112442715   -2.3190246089   -0.1190612460
 H    2.9751464442   -1.1556224805    0.3754951306
 H    2.3648351678    0.3324418006    2.3968484964
 H    0.8001112693    1.1689951076    2.2939609349
 H    1.3298159798   -1.4321785255    3.8272811605
 H   -0.2198671377   -0.5508358324    3.7746742927