16

 C    0.0804401308    1.5775315678   -0.0672709809
 C   -0.0004447105    0.0623189574    0.0605029491
 O    0.6115925903   -0.5522888953   -1.0940165174
 C    1.4494212936   -1.6705450779   -0.7547215483
 C    1.6268576951   -1.5533134316    0.7241840099
 C    2.2431237531   -1.9905481337    1.8454840668
 O    1.7925292423   -1.2899059451    2.9116075763
 N    0.8400585339   -0.3502001695    2.4889446184
 C    0.7707261010   -0.5351382928    1.2007874655
 H    1.1232870850    1.9029308940   -0.1023067772
 H   -0.4198198166    1.9015745372   -0.9833842722
 H   -0.4085461089    2.0521167048    0.7884556104
 H   -1.0554760051   -0.2482256696    0.1150497840
 H    0.9607313664   -2.6128615867   -1.0437087093
 H    2.3803757463   -1.5856681216   -1.3266929413
 H    2.9848775234   -2.7410227375    2.0689615063