18

 C   -0.9187306059    2.6317916155    0.9587352753
 C   -0.7058571349    1.3269438463    0.1751826117
 C    0.3658459672    0.4399429071    0.8233163850
 C   -2.0171743307    0.5793485813    0.0810998408
 O   -3.0115423413    1.0861512153   -0.7923914786
 C   -2.4707360783   -0.1915284518   -1.1138967567
 C   -1.6254404233   -0.3102408763   -2.3419382061
 O   -1.1118760000    0.6101591833   -2.9256234962
 H    0.0105635746    3.2075901556    1.0065295820
 H   -1.6815548907    3.2517088544    0.4796506134
 H   -1.2397368331    2.4303095965    1.9878084539
 H   -0.3985202655    1.5827513741   -0.8428888240
 H    0.5457824704   -0.4686424087    0.2392442905
 H    1.3142963414    0.9791775500    0.9041554744
 H    0.0715333761    0.1357876038    1.8350275800
 H   -2.4109664060    0.2206273206    1.0371641309
 H   -3.1416343598   -1.0362104999   -0.9471851704
 H   -1.4908354500   -1.3621429870   -2.6824592560