16

 C    0.0158877204    1.5657592359    0.1061843891
 N    0.0027128198    0.1186481658    0.1224304700
 C   -1.2530941777   -0.5987259977    0.3927616248
 C   -0.4390099828   -1.6746377607    1.1756669215
 C   -0.1331886973   -2.8756257572    0.4188229174
 N    0.0828541694   -3.8418941878   -0.1767619898
 C    0.6883289862   -0.5815215400    1.2163502315
 C    2.0800677084   -0.9527417512    0.9727860983
 N    3.1880332405   -1.2292826518    0.7992928725
 H    1.0413664848    1.9203778817   -0.0331216310
 H   -0.5815007212    1.9240867769   -0.7371581761
 H   -0.3876812970    2.0112486378    1.0339709195
 H   -1.9386611799   -0.0597588070    1.0656158448
 H   -1.7954244678   -0.9312468090   -0.4949739640
 H   -0.8310744034   -1.9480970631    2.1553882377
 H    0.6358800177   -0.0477049626    2.1806595840