19

 C    0.0177879933    1.5574046753    0.1017835122
 C    0.0491800111    0.0331544034   -0.0571417664
 C   -1.3325590210   -0.6024856716    0.0538187581
 C   -1.5276657846   -2.1092346728    0.0893274447
 C   -1.4806469672   -2.5794480589    1.5094241301
 C   -1.2592334330   -1.3874015225    2.4209422453
 C   -2.1244072477   -0.6415970514    1.3868078462
 N   -2.7563714825   -2.0075094257    0.9503652711
 H    1.0184010592    1.9888048725    0.0027891479
 H   -0.6220061213    2.0211756740   -0.6571572251
 H   -0.3726383715    1.8472820403    1.0835059646
 H    0.4737728626   -0.2252197125   -1.0361121453
 H    0.7257519511   -0.4038478987    0.6861747150
 H   -1.9962484548   -0.1904439333   -0.7165361415
 H   -1.4872649950   -2.8064186184   -0.7410114722
 H   -1.4046118039   -3.6325595427    1.7568648764
 H   -1.8047947135   -1.5165429481    3.3593578652
 H   -0.2448784547   -1.0338461630    2.6311410835
 H   -2.7773886266    0.1776149442    1.6814103402