21

 C    0.0978583299    1.6183649493    0.0967863917
 C    0.1930578646    0.0947699860   -0.0056665701
 C    0.5946918933   -0.5677392710    1.3274799643
 C    0.6565712905   -2.0595672200    1.2484937748
 N   -0.3559548133   -2.8850648810    1.4106837937
 C    0.1400519057   -4.1562488867    1.1998956923
 C   -0.7323922248   -5.3645075675    1.3072445203
 C    1.4766428699   -4.0902507393    0.9050792260
 N    1.7954697028   -2.7469624885    0.9372872090
 H    1.0567613275    2.0591694977    0.3927907815
 H   -0.1909778850    2.0632774135   -0.8603731145
 H   -0.6468555687    1.9186941522    0.8421105822
 H   -0.7681896211   -0.3242581762   -0.3228316455
 H    0.9196609670   -0.1820040402   -0.7801768966
 H    1.5629095320   -0.1691021714    1.6580992692
 H   -0.1378351919   -0.3032155168    2.0967300730
 H   -0.1657461910   -6.2789716529    1.1106255480
 H   -1.1744487776   -5.4447169558    2.3064023235
 H   -1.5622209043   -5.3171037972    0.5935149554
 H    2.2126888159   -4.8473236805    0.6903970210
 H    2.7047236786   -2.3489670335    0.7737365408