18

 C   -0.1193495104    1.1384951785   -0.4473573872
 C    1.2258174629    0.9866347946    0.1770517460
 N    0.3003427647   -0.1361277482    0.1169575506
 C   -0.2885314698   -0.6156048258    1.3519302266
 C   -0.8272055897    0.2990500258    2.5041059329
 C   -1.9674884563   -0.7379530555    2.6994473812
 C   -1.6889550655   -1.2663156705    1.2668672128
 H   -0.8473058881    1.7460007647    0.0860134477
 H   -0.2267674492    1.1544910432   -1.5285858303
 H    2.1191592644    0.9035884247   -0.4362900922
 H    1.3764572382    1.4770560364    1.1376739434
 H    0.4255620941   -1.3289913483    1.7793538362
 H   -0.1630441558    0.5011637231    3.3477658543
 H   -1.2223368531    1.2495667726    2.1344656142
 H   -1.7135828551   -1.4789878385    3.4624311997
 H   -2.9665463325   -0.3515688490    2.9108850506
 H   -2.3059915132   -0.7488191833    0.5254978620
 H   -1.7437761156   -2.3413722744    1.0822919416