15

 C   -0.0289654795    1.5771682148    0.0269569683
 O    1.3386499097    2.0270376553    0.0122984679
 C    2.1325196195    0.8682856022   -0.1187144071
 C    1.9250688266    0.0568216536   -1.4049241613
 C    1.6594212756   -1.1947050754   -0.6546787769
 C    1.4418961364   -0.3188356446    0.6170341301
 C    0.0641263956    0.0553680879    0.0322066990
 N    0.5215607635   -0.4890077545   -1.3077468138
 H   -0.5267509383    1.9790574251    0.9181024667
 H   -0.5575756951    1.9346497950   -0.8658325492
 H    3.1667419312    1.0959402716    0.1376911848
 H    2.3198749769    0.2139341978   -2.4000501142
 H    1.9201344593   -2.2274560201   -0.8347984331
 H    1.6328465296   -0.5472271168    1.6622534826
 H   -0.8190160410   -0.4797636017    0.3804519162