21

 C    0.2350227370    1.5448119559   -0.1105949014
 C   -0.0168047276    0.0390608456    0.0337061206
 C    0.6306377023   -0.5421864080    1.2637523777
 C    0.8601390524   -2.0658118424    1.5157791018
 C    1.9871393965   -1.4149867212    2.3806820149
 C    3.2773518180   -2.0863877213    2.7577365096
 O    2.0941013355   -0.3845663908    1.3357288522
 C    1.1386276363   -0.6710096540    3.4408623046
 C    0.2176260229   -0.0772084019    2.6837664871
 H    1.3082919840    1.7503981698   -0.1409563597
 H   -0.2172579567    1.9309353595   -1.0286634152
 H   -0.1860583897    2.1025499711    0.7322526831
 H   -1.0939049694   -0.1672583689    0.0796978789
 H    0.3675258185   -0.4881267250   -0.8467480334
 H    0.0782493464   -2.6422324059    2.0150762777
 H    1.2535268209   -2.5808648155    0.6342417517
 H    3.7449817198   -2.5471207961    1.8836123002
 H    3.9785211821   -1.3596905743    3.1804020564
 H    3.0978619066   -2.8645724262    3.5066889519
 H    1.2856288106   -0.6780288931    4.5116470815
 H   -0.6218805665    0.5503801627    2.9468278898