20

 C    0.1733253921    1.5562532228    0.1006935717
 C    0.0868167182    0.0437403580    0.0055097839
 C    0.7434578682   -0.5928079646   -1.2401510913
 C    1.2506644181   -1.9453535401   -0.7240729235
 C    0.8678513846   -3.2064196978   -1.4608290373
 C    2.5398123432   -1.8920742429    0.0795742100
 C    1.2044792198   -1.8170992113    0.7743881208
 O    0.7692699176   -0.5325937708    1.1321485544
 H    1.2173829249    1.8827078578    0.0644814900
 H   -0.3678550187    2.0229104423   -0.7285639512
 H   -0.2646694930    1.9093426546    1.0384829808
 H   -0.9708381262   -0.2663905464    0.0451189095
 H    0.0201584016   -0.7176139286   -2.0515439806
 H    1.5588382481    0.0356136280   -1.6171174150
 H    1.3415850934   -3.2502310826   -2.4487005180
 H    1.1802218708   -4.0984112088   -0.9082592587
 H   -0.2167416245   -3.2683430852   -1.6089869008
 H    3.1102571728   -2.8119817496    0.1686219445
 H    3.1326474050   -0.9833914304    0.0565276223
 H    0.8649039539   -2.6141907743    1.4302982785