17

 C   -0.1515414982    1.4365967905   -0.2656734955
 N    0.0409351547   -0.0035613411   -0.1057500519
 C    0.9691342059   -0.6000473147   -1.0524061240
 C    0.7222745531   -2.1399234029   -1.0540647385
 O   -0.6499949867   -2.3940477247   -1.1780202323
 C    1.4300478068   -2.7302570406   -2.2852981506
 O    2.5999709608   -2.9804552815   -2.3354783014
 C    1.2685053998   -2.7149574216    0.1965569367
 N    1.6617014697   -3.1246459420    1.2027702410
 H    0.7785992188    2.0202007838   -0.1845491798
 H   -0.5932251905    1.6377598873   -1.2468504350
 H   -0.8493196328    1.7920848078    0.4967604709
 H    0.3423329381   -0.2110806225    0.8418816177
 H    0.7230782500   -0.2242589248   -2.0525374301
 H    2.0322664139   -0.3955345063   -0.8625119032
 H   -1.0740473315   -1.6464700894   -0.7164883709
 H    0.7311883280   -2.8547822074   -3.1390225530