17

 C   -0.0775759690    1.3817404582   -0.0149604360
 O   -0.0763711667   -0.0431019029   -0.0620784846
 C    0.6441669788   -0.5585048839   -1.1193756760
 C    0.0718388991   -0.4709045993   -2.5767382901
 C    0.2933487351   -2.0083124794   -2.7453210896
 C    0.8868561253   -2.0756232349   -1.3263375305
 O    2.3342010573   -1.8373789151   -1.3400904177
 C    2.1828977386   -0.4927227037   -1.0854572090
 O    3.0374037058    0.3154194409   -0.9076597745
 H    0.9400042839    1.7764179974    0.0801023497
 H   -0.5466931753    1.8110251808   -0.9110547918
 H   -0.6635867895    1.6618538515    0.8619345260
 H   -0.9853828825   -0.1987687049   -2.5526068666
 H    0.5969525414    0.1890946966   -3.2689367616
 H   -0.6384410463   -2.5675901741   -2.8503799025
 H    0.9873970963   -2.3197071272   -3.5271836843
 H    0.6192027077   -2.8568838001   -0.6183290509