21

 C    0.0252482104    1.5644326814   -0.1292608874
 C    0.0388253235    0.0478406067    0.0743505795
 O    0.6478435631   -0.3124086742    1.3035887280
 C   -1.3658751198   -0.5600717588   -0.0064322023
 C   -1.4113542736   -2.1011954944    0.1865672345
 O   -2.1836672399   -2.2959729365    1.3653469102
 C   -2.9546016789   -1.1299025714    1.5270392845
 C   -3.3573898197   -0.9511018770    2.9718900471
 O   -2.1240585034   -0.0640479736    1.1008366332
 H    1.0378161066    1.9612817708   -0.0224214483
 H   -0.3493302607    1.8267891745   -1.1247020071
 H   -0.6187409635    2.0440644227    0.6140682787
 H    0.6504007152   -0.4177229697   -0.7091966199
 H   -0.0048061587   -0.1104304377    1.9863642179
 H   -1.8482466883   -0.2680683907   -0.9501835870
 H   -1.8792011374   -2.5957838721   -0.6752981909
 H   -0.4195062512   -2.5250402153    0.3575489361
 H   -3.8432382713   -1.1726743044    0.8673144461
 H   -2.4659759574   -0.9158378668    3.6032245589
 H   -3.9229824144   -0.0238888253    3.0916408330
 H   -3.9830627507   -1.7892608883    3.2879574753