16

 C   -0.0129750399    1.5378872190    0.0071192585
 C    0.0419121655    0.0424713223   -0.0126124592
 C    0.0586105844   -0.7922930134   -1.0998261200
 O    0.0427785085   -0.5762775109   -2.4453534987
 N    0.0842604291   -2.1019264850   -0.6806067356
 C    0.0976288330   -2.1231065209    0.6956672411
 O    0.1033966846   -3.3149332649    1.3478196852
 C    0.0773247923   -0.8322528378    1.1380344761
 O   -0.0078439796   -0.4799135328    2.4725519307
 H    0.9571624792    2.0036862760    0.2291031326
 H   -0.3490591603    1.9444792671   -0.9543144078
 H   -0.7192692992    1.8930454462    0.7656684532
 H    0.1431124792    0.3682041880   -2.5965762075
 H    0.0996321409   -2.9064835434   -1.2818754614
 H    0.0210596712   -3.1078215613    2.2861839203
 H    0.8044130211   -0.0281686284    2.7265320228