14

 C    0.0257172750    1.3634222285    0.0072412896
 O   -0.0415193034   -0.0735757474    0.0034708602
 C   -1.2622849862   -0.5821721678    0.0111063801
 N   -2.4076160357    0.0434230728    0.0215716457
 C   -3.3041841318   -1.0041734241    0.0251406682
 N   -2.7938694933   -2.2086502320    0.0177212318
 N   -1.4389659110   -1.9475240341    0.0083140664
 C   -0.4479704596   -2.9422868313   -0.0021666568
 O   -0.6704949321   -4.1173446359   -0.0040576691
 H    1.0881334461    1.6034835794   -0.0003896598
 H   -0.4698410216    1.7671378083   -0.8786207063
 H   -0.4558131023    1.7617951626    0.9032059093
 H   -4.3724595721   -0.8445665962    0.0336112325
 H    0.5549186582   -2.4849238128   -0.0083335317