16

 C    0.2083769362    1.4922134605   -0.0979926254
 C    0.0183321736    0.0150554877    0.0352697153
 N   -0.2646446850   -0.7024866668   -1.0292254714
 O   -0.3772885414   -2.0242181165   -0.5724308206
 C   -0.1560551089   -2.0541255665    0.7650616253
 C    0.1008959027   -0.7865302399    1.2055229174
 N   -0.2104888352   -3.2311994031    1.4579247338
 C   -0.4840289217   -4.3200804724    0.8295918461
 N   -0.5155627775   -5.5110907513    1.4668996403
 H    1.2103241792    1.7894386065    0.2289183488
 H    0.0760219330    1.7946095384   -1.1387041990
 H   -0.5125467434    2.0374685116    0.5201392773
 H    0.3152901193   -0.4844490766    2.2163682076
 H   -0.6877246496   -4.3730290451   -0.2426139267
 H   -0.4160193411   -5.5277976492    2.4692818531
 H   -0.8599163202   -6.3321563473    1.0038776483