20

 C   -0.2619586902    1.3929374924   -0.0965830556
 C    0.0899690782   -0.0623037722    0.0773912470
 N    0.4615336974   -0.6727479220    1.1271262839
 O   -0.0417245415   -0.7133505880   -1.0971853685
 C    0.2453376384   -2.1170680200   -1.0881219798
 C    0.0725926471   -2.6340973324   -2.4953829089
 C    0.8674539115   -1.9388891828   -3.5773422758
 C   -0.3429897830   -4.0348362256   -2.6588003022
 O   -1.2779058440   -2.9728867162   -2.8480812091
 H   -0.1534636195    1.9367486248    0.8429912363
 H    0.3843185037    1.8496634101   -0.8523249708
 H   -1.2924445633    1.4900815752   -0.4514057816
 H    0.5066512077   -0.0319505211    1.9158736983
 H    1.2689844710   -2.2754386383   -0.7298383766
 H   -0.4351465346   -2.6271676284   -0.4007688426
 H    1.9424400445   -2.0231242870   -3.3838399404
 H    0.6507740475   -2.3816973648   -4.5520655859
 H    0.6125678237   -0.8765583400   -3.6100877648
 H   -0.0508283448   -4.5729245929   -3.5598957941
 H   -0.5153155796   -4.6612662408   -1.7838497186