21

 C   -0.2521301978    1.2220925157   -1.4095277263
 C   -0.0367519448   -0.0574926095   -0.6313785545
 C    1.3130998905   -0.6150224928   -0.3085708890
 C    2.6126288439    0.0388347570   -0.7244206930
 C    0.4381803110   -0.0672853621    0.8309927554
 C    0.7793355815    1.1817502922    1.5615677644
 O    1.3008668723    2.1595256705    1.0702720143
 C    0.4075361931    1.1410481705    3.0451712523
 O    0.7599894101    2.3500435843    3.6604758251
 H    0.4555696947    1.9998963133   -1.1244445592
 H   -0.1523209780    1.0304450853   -2.4837618990
 H   -1.2611093611    1.6108160023   -1.2354309266
 H   -0.8022949230   -0.8075367748   -0.8174806480
 H    1.3624157908   -1.7016454015   -0.2997882647
 H    2.5798801742    1.1224923292   -0.6162004112
 H    3.4409518876   -0.3315071102   -0.1110831943
 H    2.8392813598   -0.2050455302   -1.7683638141
 H   -0.0243309403   -0.8227748073    1.4602746302
 H   -0.6747847498    0.9282259704    3.1082877088
 H    0.9201114516    0.2691091538    3.4898479693
 H    0.5130627836    2.2945756436    4.5880315603