19

 C   -0.0423362431   -1.2332877807   -0.0133424873
 C   -0.0163568332   -0.0323555246   -0.0398546987
 C    0.0133890040    1.4242273390   -0.0477568914
 C    1.4394751999    2.0085490771    0.0048380131
 O    2.0927633609    1.5996052628   -1.1828453343
 C    3.3123425168    2.2841810761   -1.4138269534
 C    3.0645066598    3.7719687087   -1.6721777374
 C    2.1310742928    4.3155578921   -0.6229742405
 C    1.4125885598    3.5096603193    0.1552406390
 H   -0.0646601705   -2.2945110567   -0.0003564489
 H   -0.4757765068    1.8099858879   -0.9499169941
 H   -0.5508188810    1.8081623876    0.8110714709
 H    1.9520206931    1.5665296209    0.8794998368
 H    3.9867434276    2.1641807273   -0.5502810022
 H    3.7767135124    1.7960777738   -2.2749713443
 H    4.0167541485    4.3173261154   -1.6580285921
 H    2.6397952358    3.9189879707   -2.6745281530
 H    2.0686464626    5.3939686026   -0.5026622279
 H    0.7740600606    3.9071996206    0.9402723458