17

 C   -0.6349744027    1.0106605803   -0.5389187434
 O    0.3326137242    0.1142955017   -0.0225034160
 C    1.0458353208   -0.6343418273   -0.9957517979
 C    2.3972598054   -0.9999601261   -0.3947795044
 C    0.2440016768   -1.8457833042   -1.4123465498
 N    0.5701298391   -3.0676782416   -1.0839327825
 O   -0.4502408618   -3.8470996499   -1.6448525722
 C   -1.2740705868   -2.9929275839   -2.2499732028
 N   -0.9187387343   -1.7527498079   -2.1595797643
 H   -0.1799476939    1.7262379231   -1.2410357231
 H   -1.4521809204    0.4920424652   -1.0527641713
 H   -1.0352931636    1.5613523937    0.3157970150
 H    1.1895810227   -0.0191587462   -1.8982290822
 H    2.9972303125   -1.5760928914   -1.1031915130
 H    2.9303516350   -0.0834217988   -0.1329918090
 H    2.2617815725   -1.5980703844    0.5089407779
 H   -2.1361478054   -3.4095239721   -2.7502013110