23

 C    0.0230707526    1.5235744417    0.0702599999
 C    0.0483204359    0.0058265853   -0.0343563077
 C    0.7338633962   -0.5050270227   -1.3064393307
 C    0.7253502346   -2.0405342904   -1.3451335054
 C    1.1389514096   -2.6467888910   -0.0064043804
 C    2.6049682472   -2.5832493013    0.5168628523
 C    2.0304340397   -2.3245810785    1.9381904220
 C    0.7072210007   -1.8799356844    1.2784564010
 O    0.7506884305   -0.4728289478    1.1109279013
 H    1.0427097624    1.9216350135    0.0602427191
 H   -0.5289169584    1.9600405844   -0.7676124085
 H   -0.4544725130    1.8339781384    1.0035484948
 H   -0.9889053113   -0.3767010945   -0.0101243599
 H    0.2310607055   -0.1019883993   -2.1929924092
 H    1.7609942181   -0.1191868116   -1.3151669061
 H   -0.2927774329   -2.3770735540   -1.5839081791
 H    1.3691698956   -2.4132986074   -2.1510965601
 H    0.7856137197   -3.6811518835    0.0628566675
 H    3.2241504492   -3.4710877509    0.3694821342
 H    3.1433281479   -1.7119852206    0.1364246398
 H    1.9074901618   -3.2507262163    2.5062859917
 H    2.5169195966   -1.5748579787    2.5647931361
 H   -0.2430090482   -2.1733532504    1.7486564874