15

 N    0.3044450439   -0.9111929807   -0.6132774432
 C    0.2267886457    0.1590736430   -0.1847341320
 C    0.1366389805    1.5191264756    0.3676580939
 N    1.4175500960    2.2218390442    0.3425680782
 C    1.8049657456    2.6719557957   -0.7792923429
 O    1.1123269879    2.5445376360   -1.9533960153
 C    1.8521953865    3.1622603180   -3.0128300276
 C    3.0846614918    3.7025989366   -2.3500662709
 C    3.0422703914    3.4087956261   -1.0500241387
 H   -0.6462033426    2.0532452179   -0.1881514202
 H   -0.1918516791    1.4385816592    1.4083544320
 H    2.0713926566    2.4079976239   -3.7792314150
 H    1.2331977478    3.9428859397   -3.4735336331
 H    3.8578787057    4.2376008897   -2.8843503677
 H    3.7595859224    3.6384984250   -0.2770590674