15

 O   -0.0000858958    0.0373528610   -0.2680858851
 C   -0.0242398176    1.2143739029   -0.1048769598
 C   -1.1372574582    2.2483655077    0.2793899244
 C   -0.0208479915    3.1004069399    0.9229002993
 C    0.7750850015    2.9202974001    2.2345502779
 C    1.9014517738    3.0956286876    1.1847214870
 C    1.0156271647    4.0782518003    0.3045285666
 O    1.1690014193    3.3347830217   -0.9358048801
 C    1.0713015476    2.3169709625    0.1119503558
 H   -1.5885912694    2.7081473133   -0.6028523566
 H   -1.9242002976    1.8629729502    0.9304193332
 H    0.6705684667    3.7039097041    2.9892539216
 H    0.7242728187    1.9337476716    2.7050821125
 H    2.9844715945    3.1267181378    1.3181261120
 H    1.0407023134    5.1702272293    0.2596565815