17

 C    0.0042911983    1.6016295821   -0.1051024747
 C   -0.0219528621    0.0777078323    0.0618999750
 C    0.7847463514   -0.6587323405   -1.0787643401
 O    1.6522895562   -1.6804472347   -0.4801738124
 C    1.5582569686   -1.4152082528    0.8302324260
 C    0.6955305601   -0.4756413845    1.2647334757
 C    0.8286456322   -0.4994903548    2.6942581981
 C    1.7683953581   -1.4481785632    2.9666598237
 O    2.2372594821   -2.0359858392    1.7926592775
 H    1.0320465663    1.9778639828   -0.0779148200
 H   -0.4486520562    1.9034854067   -1.0561700975
 H   -0.5554313696    2.0894559038    0.6987331613
 H   -1.0702844476   -0.2510100733    0.0371603136
 H    0.1452736796   -1.1673635710   -1.8020257763
 H    1.4366080823    0.0447581407   -1.6073741345
 H    0.3150977114    0.0980493677    3.4319018857
 H    2.2192606689   -1.8207048521    3.8693792388