16

 C   -0.0695742300    1.3960364631    0.1079152268
 O    0.0158275989   -0.0102209556   -0.0199070702
 C    0.6740487613   -0.5190048666   -1.1785574153
 C   -0.0574376576   -0.1400921602   -2.4812806054
 C    2.1615276894   -0.1184317793   -1.2304167699
 C    0.5946111325   -1.9889813332   -1.0120985221
 N    0.5553295181   -3.1395274854   -0.9223861664
 H    0.9160168999    1.8758806083    0.1689868836
 H   -0.6395090805    1.8610255317   -0.7071621032
 H   -0.5994312582    1.5765401361    1.0455873865
 H    0.0443990926    0.9297553667   -2.6799749648
 H    0.3712094385   -0.6833755683   -3.3269924056
 H   -1.1177915824   -0.3909267082   -2.4046122401
 H    2.6483959868   -0.3537522194   -0.2813454178
 H    2.6712604999   -0.6613402886   -2.0301327920
 H    2.2630398907    0.9513024688   -1.4298640841