21

 C    0.0219235504    1.5408951462    0.0002772461
 C   -0.0132478301    0.0316972034   -0.0475389057
 C    0.4032921455   -0.7410962010   -1.3162892859
 C   -0.4904883090   -1.8968548566   -0.7938066077
 O    0.2384441777   -2.7833080092    0.0428527918
 C    1.0704902838   -2.0551893655    0.9487821694
 C    0.3944726198   -0.7294068393    1.2898253988
 C   -1.1098955861   -1.0210049205    1.5607103959
 C   -1.3124179914   -0.8411405809    0.0517832331
 H    1.0547916374    1.9109038483    0.0068356943
 H   -0.4807484697    1.9762318359   -0.8708637053
 H   -0.4700505651    1.9290556362    0.8994495400
 H   -0.0357997530   -0.2713208848   -2.2030208268
 H    1.4563042144   -0.9619859978   -1.5179006485
 H   -1.0305805541   -2.5177521240   -1.5098111775
 H    1.1919758082   -2.6829432257    1.8384961283
 H    2.0677095119   -1.8921243200    0.5132066934
 H    0.9633932003   -0.1603889393    2.0295554108
 H   -1.3557057967   -1.9882469808    2.0083420937
 H   -1.5978199946   -0.2233185550    2.1272967264
 H   -2.2726636197   -0.5405870498   -0.3731474345