20

 C    0.0885227192    1.5992700241   -0.1903093829
 C    0.0127154974    0.0788976110   -0.0309426349
 C    0.6812667333   -0.6592132486   -1.1907210582
 C    0.6359473249   -2.1631333355   -1.0843320734
 N    0.0878557333   -2.7651286120   -0.1133986755
 O    1.2616038068   -2.7067304305   -2.1714509823
 C    1.3202509438   -4.1296644227   -2.2518387058
 C    2.0166985627   -4.5094008845   -3.4705197220
 C    2.5869897981   -4.8578303334   -4.4674640128
 H    1.1272213882    1.9465363458   -0.2341510398
 H   -0.4076459183    1.9313268512   -1.1095310708
 H   -0.3953554742    2.1074926206    0.6492676501
 H    0.4843901342   -0.2277648752    0.9082106331
 H   -1.0310352125   -0.2427594653    0.0442243725
 H    0.2205323254   -0.3802024322   -2.1476027064
 H    1.7349720852   -0.3648297652   -1.2844025096
 H    0.1350548271   -3.7797709331   -0.1780258187
 H    1.8445603273   -4.5350136267   -1.3744754101
 H    0.3038363903   -4.5490106950   -2.2506404202
 H    3.0929157179   -5.1603675427   -5.3510323423