18

 C   -0.0581922954    1.5650419053   -0.0253644630
 C   -0.0345066643    0.0333434879   -0.0272876075
 C   -1.4403810445   -0.5741667830    0.0058358244
 N    0.7024907470   -0.4598001407   -1.1918816603
 N    0.2830537953   -0.2075207557   -2.4725014749
 C    1.2033874736   -0.8127908523   -3.1956310267
 N    2.1911432069   -1.4406855014   -2.4914260276
 C    1.8306443312   -1.1895783867   -1.2503145102
 O    2.4624403222   -1.5814782217   -0.1358155620
 H    0.9567112816    1.9721818722   -0.0193876309
 H   -0.5733602140    1.9364699233   -0.9147908242
 H   -0.5827012684    1.9305989450    0.8621948055
 H    0.5354488061   -0.3223461961    0.8363502400
 H   -2.0026827852   -0.2752172221   -0.8823534321
 H   -1.3942381075   -1.6663862824    0.0333650459
 H   -1.9772418686   -0.2282083312    0.8938653058
 H    1.1697586504   -0.8068611798   -4.2749777163
 H    3.2352238036   -2.0849165604   -0.4215903659