17

 C    0.1066254009    1.5453614108    0.1395312586
 O    1.5191286376    1.4113942664   -0.2322812863
 C    1.2091093179    0.1231886523   -0.8612580306
 C    1.8976611992   -1.2391516723   -0.6314150970
 C    0.7363499010   -1.9199034993    0.1245038205
 C    0.3023683348   -0.9345518243    1.2175847660
 O   -1.0774654109   -1.4395352688    1.2233455811
 C   -0.7312128691   -1.3159588333   -0.1916227564
 C   -0.0027876278    0.0236293359    0.0124995190
 H   -0.0225867521    1.9873662682    1.1307096266
 H   -0.4446159811    2.1246614346   -0.6118392277
 H    1.0013393614    0.2965703307   -1.9262095077
 H    2.1909952227   -1.7293686900   -1.5630753638
 H    2.7811175166   -1.1702794187    0.0117730988
 H    0.7763840766   -2.9802221918    0.3719059077
 H    0.7725600784   -0.7059783883    2.1744087811
 H   -1.4674702361   -1.6297103723   -0.9320812300