15

 C    0.0258526401    1.4590245724    0.0100280750
 C    1.2742666389    0.6573611392    0.0363234454
 C    1.9902128636    0.3786007819    1.3859751563
 C    0.8957861604   -0.3671522037    2.0825202294
 C   -0.1909020820   -0.5552558427    1.2740826923
 N   -1.1599656346   -1.2313944519    1.9257655172
 N   -0.7177057497   -1.4818879268    3.1344794983
 N    0.5348832749   -0.9537953510    3.2400859536
 N   -0.0640526485   -0.0214422855   -0.0370147166
 H   -0.2990760906    1.9455050361    0.9262543811
 H   -0.2665268991    1.9599374840   -0.9078250815
 H    1.8744141916    0.5935107540   -0.8648127052
 H    2.8887436415   -0.2289670709    1.2270410551
 H    2.3047926688    1.2980564117    1.8923510973
 H    1.0339479148   -1.0731095868    4.1066774122