16

 C   -0.0465837952    1.5541348091    0.0352545225
 C    0.0895207509    0.0547445439   -0.0058762614
 N   -0.7785601301   -0.8010150801    0.8591220693
 C    0.6879503484   -0.7827167198    1.0725261278
 C    1.4177314276   -1.9576628011    0.4308133298
 C    1.1385759012   -1.7591263637   -1.0469109564
 C    0.4310060970   -0.6533015844   -1.2830703932
 H    0.8326170509    2.0418325262   -0.3995556671
 H   -0.9247834512    1.8874553655   -0.5301994063
 H   -0.1555384631    1.9128489526    1.0641981468
 H   -1.2043250151   -0.2071950743    1.5709375881
 H    1.0707173908   -0.3413641082    1.9872965919
 H    2.4935720161   -1.9340243108    0.6494927698
 H    1.0372550935   -2.9202172376    0.7937498234
 H    1.4603027710   -2.4706251012   -1.7992973398
 H    0.1039945375   -0.3033155960   -2.2555711952