19

 C    0.0643219824    1.5150193171   -0.0770033003
 C    0.0544790165    0.0594121521   -0.0343911756
 C    0.0453068949   -1.1469921378   -0.0139496869
 C    0.0693127307   -2.6090099877    0.0246892588
 O    0.9599770318   -3.1463747114   -0.9332959738
 C    0.1658765504   -3.1618787966    1.4922615597
 C   -1.3825324117   -3.3079615201    1.4972179666
 O   -2.0769680822   -2.2455789979    2.1150943465
 C   -1.3472050104   -3.2516168270   -0.0562522625
 H    0.7308836230    1.8774991728   -0.8671205510
 H   -0.9355035878    1.9134558911   -0.2804812124
 H    0.4089827503    1.9421086458    0.8709323589
 H    1.7691858306   -2.6239410763   -0.9147895589
 H    0.6709084154   -4.1312212719    1.4761547221
 H    0.6047541687   -2.5193950838    2.2584212278
 H   -1.7831561668   -4.2210725715    1.9405950491
 H   -1.7459612938   -1.4191055140    1.7429383390
 H   -2.1363304551   -2.6867567285   -0.5554280049
 H   -1.2587925770   -4.2456789044   -0.5019197021