13

 O    0.0152976386    0.0432154796    0.1725888785
 C    0.0014031627    1.2372360098    0.0179281175
 C   -1.2629164467    2.0968573557   -0.1617009783
 O   -0.8487166165    3.3747433196   -0.6226612092
 C    0.5506265658    3.4871276403   -0.5079654335
 C    1.1384564432    3.3670821122    0.8536340500
 C    1.1619517462    2.1654898079   -0.1072412381
 H   -1.9294790746    1.6373083589   -0.8987238907
 H   -1.8083727799    2.1684504546    0.7900281877
 H    0.9780335362    4.1386671764   -1.2604798613
 H    2.1020723083    3.8279513455    1.0387508947
 H    0.4749521204    3.3371070087    1.7112384019
 H    2.1084118865    1.7806715106   -0.4620791594