21

 O    0.0684874776    1.1883724241    0.2734922456
 C    0.0330594632   -0.1969565207    0.1336853752
 C   -0.8306087506   -1.0257946567    1.0635098104
 C   -1.2263342790   -0.8201424231   -0.3881497831
 O   -2.2138117419    0.1149320877   -0.7065268032
 C   -3.5447376858   -0.3333058772   -0.5524698951
 C   -4.2438622088   -0.2224183523    0.8301310422
 C   -5.5158710083    0.2538058158    0.0744943830
 C   -4.6104033755    0.6113722703   -1.1377379430
 H   -0.7718256859    1.5139470914   -0.0760659836
 H    0.9878306785   -0.6047204778   -0.1854604159
 H   -0.4898417503   -2.0092667105    1.3701499603
 H   -1.3891537617   -0.4736124648    1.8104173007
 H   -1.1751872721   -1.6662956080   -1.0730968272
 H   -3.6400730484   -1.3491559055   -0.9602425031
 H   -4.3083728747   -1.1158421212    1.4545088040
 H   -3.8001198896    0.5923002096    1.4095149416
 H   -6.1922053054   -0.5750536041   -0.1508237901
 H   -6.0951058621    1.0617516583    0.5242656349
 H   -4.2577173492    1.6451944575   -1.0797919350
 H   -4.9746483004    0.4140958471   -2.1480110185