19

 C    0.2240980614    1.1894987705    0.3145128092
 O   -0.2068821487   -0.0460880346   -0.2334245145
 C    0.5637738899   -0.5226097809   -1.2992178293
 C    0.3441917604    0.1941344772   -2.6115555258
 C    1.9022069124   -1.1210916906   -0.9585743996
 C    0.7043552569   -2.0453670670   -1.2531251878
 N    0.0173478933   -2.7587739033   -0.2133765644
 C    0.7423356580   -2.7512526107   -2.5177613217
 N    0.8019038719   -3.3125756832   -3.5275196365
 H    1.2745067314    1.1453378956    0.6321905918
 H    0.1055856878    2.0162104178   -0.3971670498
 H   -0.4071975494    1.3818950664    1.1842814535
 H    0.7153733430    1.2226799309   -2.5605198846
 H    0.8646630667   -0.3098936034   -3.4281553147
 H   -0.7233872285    0.2214742375   -2.8484409157
 H    2.7016901510   -1.0603814983   -1.6886785384
 H    2.2147667507   -1.1016885734    0.0797858432
 H    0.6509738810   -3.3496410072    0.3129355787
 H   -0.4139241793   -2.0913279634    0.4164612863