17

 C    0.0000106349    1.5629923205   -0.0844575036
 C   -0.0258597526    0.0400014140    0.0687296667
 O    0.6205671274   -0.3838981493    1.2594792589
 C   -1.4345119883   -0.5413209750   -0.0085220499
 O   -2.1534581506   -0.0348395061    1.1393593042
 C   -3.4390376113   -0.4181456093    1.2445614562
 O   -4.0126733573   -1.1215936888    0.4528348852
 C   -4.0427948062    0.1317784762    2.4389132552
 C   -4.5926292461    0.5607990827    3.4171114713
 H    1.0270794368    1.9240381126    0.0069549679
 H   -0.3918481596    1.8690850708   -1.0602185960
 H   -0.6073152013    2.0415317782    0.6901532755
 H    0.5476042325   -0.4141892539   -0.7483793432
 H    0.0701522397   -0.0916137923    1.9953987072
 H   -1.9566897490   -0.2469688843   -0.9237552920
 H   -1.4102231232   -1.6329846800    0.0465733124
 H   -5.0813014657    0.9392096240    4.2819585239