19

 C   -0.2248473143    1.5634857336   -0.0246970037
 C    0.0379756192    0.0583811678   -0.0104444086
 C    0.8021973220   -0.5006840277   -1.2532878660
 C    1.9205506991   -1.3357371431   -0.5734128401
 O    1.3079302721   -1.7797244594    0.6434425062
 C    0.9258140890   -0.4824327056    1.1424430904
 C    2.2893057530    0.2300571811    1.2203258839
 C    2.9559079771   -0.3292289324   -0.0501623066
 O    4.0157790426   -0.0305444651   -0.5291921538
 H    0.6919247913    2.1406011507   -0.1826689081
 H   -0.9162755266    1.8262362721   -0.8314667329
 H   -0.6753938294    1.8984214856    0.9161849342
 H   -0.9219178666   -0.4607688788    0.0711316899
 H    0.1672960836   -1.1425986392   -1.8674651751
 H    1.2068216423    0.2878402781   -1.8950413305
 H    2.3281929844   -2.1703539922   -1.1400167007
 H    0.4118956957   -0.6012618617    2.0963020132
 H    2.2784215010    1.3213596765    1.2210041902
 H    2.8433567445   -0.1061665004    2.1023811382