13

 N    0.5382085877    0.1748791140   -0.8314194058
 C   -0.0104570475    0.7015884040    0.4146520237
 C    0.6096875764    0.0063653006    1.5817919729
 N    0.9998748899   -1.2322415807    1.6527790279
 C    1.4278948336   -1.3111395943    2.9554258093
 O    1.9257180666   -2.4312744686    3.4752297686
 N    1.3164462062   -0.2157149962    3.6621587367
 O    0.7618822499    0.6801214449    2.7198723140
 H    0.4605027975   -0.8375683196   -0.8309618702
 H   -0.0068476692    0.5181342510   -1.6151485596
 H    0.2091563281    1.7713622838    0.4965537896
 H   -1.1059462288    0.5978320501    0.5220963834
 H    1.9206792795   -3.0961161687    2.7758884696