21

 C    0.2444437014    1.4753605780   -0.1596478107
 C   -0.0871035852   -0.0111558560    0.0384440330
 C   -1.6176958478   -0.2375575960    0.2640439770
 C   -1.6825478528   -1.1655812009    1.4480215593
 C   -0.4894994554   -1.3759405301    1.9989976008
 C    0.6288955151   -0.6589023799    1.2865942644
 C    1.7327557042   -1.6066188007    0.7297727247
 C    1.4091908213   -1.6955654445   -0.7399733117
 C    0.4475742717   -0.8511443690   -1.1022872443
 H    1.3229219966    1.6288495773   -0.2704409504
 H   -0.2418205012    1.8724541749   -1.0581661906
 H   -0.0996025555    2.0695488061    0.6943739351
 H   -2.1375711492    0.7079601648    0.4735748502
 H   -2.1041951290   -0.6590269245   -0.6248406377
 H   -2.6167958064   -1.5858952426    1.8058094266
 H   -0.3055047709   -1.9968888038    2.8704184501
 H    1.0768441517    0.1010567655    1.9386286073
 H    2.7416971132   -1.2027921744    0.8895078876
 H    1.7164095798   -2.5868814977    1.2222174572
 H    1.9310479537   -2.3701360537   -1.4108561413
 H    0.0662617047   -0.7333903928   -2.1125286068