18

 O   -0.1227492520    1.2415643648   -0.4073643623
 N    0.0201748774   -0.1343754131   -0.1390187104
 C   -1.1004180630   -0.6599006597    0.1254272327
 C   -2.5239118427   -0.1647668872    0.2802981226
 C   -2.8770967801   -1.5640478567    0.8838064688
 C   -4.0664887245   -2.2990576185    0.2560355731
 C   -4.2168580260   -3.6608331344    0.7561399541
 C   -4.3117819221   -4.7793008590    1.1862214303
 C   -1.4450912769   -2.0811785488    0.5167514974
 H    0.7873358070    1.5100025599   -0.5724149357
 H   -2.6554074585    0.7077970924    0.9251176029
 H   -3.0151414312    0.0426234354   -0.6775182980
 H   -3.0125343439   -1.5118139183    1.9664990747
 H   -4.9869144344   -1.7315353324    0.4469789457
 H   -3.9436084758   -2.3212164183   -0.8356161846
 H   -4.4070298042   -5.7691248046    1.5583754764
 H   -1.4429335446   -2.7796922359   -0.3274559273
 H   -0.8558041644   -2.5206950556    1.3246420495