15

 C   -0.0154145163    1.4528563768    0.0549952663
 N    0.0270313332   -0.0003973298    0.0483114410
 C    1.3334706896   -0.6168371011    0.1795733292
 C   -1.1422980685   -0.6883277546   -0.0766316489
 O   -2.2445200124   -0.1772335977   -0.1860407272
 C   -1.0426850925   -2.1474255681   -0.0772661943
 C   -1.1241755572   -3.3542393733   -0.0946143888
 C   -1.1881513943   -4.7173586209   -0.1113202980
 N   -1.2334809761   -5.8780771268   -0.1246065628
 H    0.5775368646    1.8547789447   -0.7750183416
 H   -1.0516789803    1.7698904504   -0.0488432522
 H    0.3961363015    1.8412996540    0.9940410759
 H    1.8051622674   -0.3190308339    1.1238545673
 H    1.2433007035   -1.7026935247    0.1627251224
 H    1.9885351678   -0.3068683348   -0.6436102583