17

 C    0.1071364323    1.5364988616    0.1201428312
 C   -0.0652572735    0.0467385203    0.0649603223
 C   -1.2141581093   -0.6612153994   -0.0437651232
 C   -2.5949095398   -0.0892007881   -0.1346548586
 C   -1.1009167031   -2.1195643335   -0.0758193339
 N   -2.1384439157   -2.8651160505   -0.1772508350
 N    0.1975261600   -2.7085661798    0.0084954639
 N    1.2386768092   -2.0056177978    0.1087025347
 N    1.1205508214   -0.6638050585    0.1369436459
 H    0.7350288951    1.8850143994   -0.7084990168
 H   -0.8475352164    2.0552232722    0.0606776940
 H    0.5984356970    1.8354816101    1.0537337808
 H   -3.0770422356   -0.4309777761   -1.0565655265
 H   -3.2119389140   -0.4805108049    0.6810250953
 H   -2.6150853266    1.0009603383   -0.1050824624
 H   -1.8383161680   -3.8425487113   -0.1812329439
 H    2.0073552769   -0.1930286520    0.2185919522