13

 O   -0.0361581717    1.2579710975    0.0092706857
 C    1.1004343199    1.9705398372    0.0021082867
 C    2.3537791429    1.4404595107   -0.0127777521
 C    2.4262722488    0.0379458949   -0.0209313050
 N    3.4348828184   -0.7985119732   -0.0349164883
 C    2.8419216913   -2.0659567221   -0.0361129926
 C    1.4713488128   -2.0675795156   -0.0232108870
 C    1.1228838507   -0.6797215285   -0.0121749906
 N   -0.0517128039   -0.1230726799    0.0020720817
 H    0.8727977879    3.0290787671    0.0099567480
 H    3.2265005133    2.0807237407   -0.0177257795
 H    3.4858533117   -2.9368427752   -0.0469576568
 H    0.7969413179   -2.9080133335   -0.0214285904