19

 C    0.0429141833    1.4997402187   -0.0581286533
 C   -0.0694846133    0.0111062243    0.1244974806
 C   -1.3941493270   -0.7097217094   -0.1485224396
 C   -1.3213412461   -1.9430781608    0.7357553566
 C   -2.3955240087   -2.9797630727    0.7064758076
 O   -2.1158796667   -3.9873313843    1.6598909943
 C   -0.2019047172   -1.9640280634    1.4670197075
 C    0.6530696846   -0.7908374312    1.1294886535
 O    1.0713430317   -0.7650758104   -0.2619006676
 H    1.0382074155    1.8455647275    0.2316547356
 H   -0.1193150282    1.7761496093   -1.1062834456
 H   -0.7030374749    2.0264363199    0.5465161454
 H   -2.2537328383   -0.0759095772    0.1094365862
 H   -1.4943730509   -0.9639220477   -1.2112006449
 H   -3.3703875027   -2.4973150539    0.9035711291
 H   -2.4635268818   -3.3969903911   -0.3142867169
 H   -2.7965042440   -4.6623937238    1.5911330535
 H    0.0698641960   -2.7407241273    2.1679912846
 H    1.3728421888   -0.3727421963    1.8275761135