22

 C    0.0090290656    1.6365628242   -0.1585189255
 C   -0.0182123909    0.1327983340    0.0293712009
 C   -1.3154268602   -0.5265890708   -0.4145835900
 O   -1.5913559541   -0.3165516993   -1.7917956833
 C    1.2465278683   -0.6560236434   -0.0730558667
 N    0.5670812731   -0.5006838115    1.2154967192
 C    1.2154869133    0.3166650196    2.2413863337
 C    1.7911132505   -0.6033083415    3.3171155843
 O    2.7241073190   -1.5287862803    2.7870827407
 H    0.9979575951    2.0660912796    0.0125714759
 H   -0.3000337696    1.8734646798   -1.1800858483
 H   -0.7001497629    2.1255469343    0.5200807909
 H   -1.2787307976   -1.5944627585   -0.1574757576
 H   -2.1613624868   -0.0861169017    0.1256960754
 H   -0.8780255903   -0.7235524248   -2.2948773770
 H    1.2495421424   -1.6608632052   -0.4929374008
 H    2.1724694359   -0.1035352309   -0.2238201310
 H    2.0198532891    0.9493130717    1.8362694224
 H    0.4664213188    0.9756561408    2.6974826975
 H    2.3300203319   -0.0093693818    4.0630389588
 H    0.9650339840   -1.1206229244    3.8279524139
 H    2.2306773054   -2.0888707397    2.1782813566