20

 C    0.6210735086   -0.0910219366    1.3155855966
 C    0.0626263714   -0.1378816209   -0.1065433442
 O    0.9332991715   -0.8521892643   -0.9760663913
 C   -1.3672114412   -0.6986577199   -0.1617662673
 C   -1.8622405992   -1.3170805319   -1.4391323535
 C   -1.6024073929   -2.1871954357   -0.2331258916
 N   -2.3257663475    0.0518022479    0.6101662452
 C   -2.8286406377    1.2583284022    0.2211151065
 O   -2.5663998237    1.8258374562   -0.8161667321
 H    1.6271214732    0.3369997230    1.3101768221
 H   -0.0069376086    0.5179407758    1.9713150287
 H    0.6760393519   -1.1002756619    1.7448284022
 H    0.0161437699    0.8772658440   -0.5158787562
 H    1.2607080326   -1.6234113707   -0.5016048739
 H   -2.8894874918   -1.1213562839   -1.7190956442
 H   -1.1525226104   -1.3707648084   -2.2544217697
 H   -0.7369077235   -2.8400572396   -0.2561337221
 H   -2.4537888097   -2.5899069849    0.3050205182
 H   -2.5673023074   -0.2784543660    1.5319443407
 H   -3.5296196955    1.6679252854    0.9776600357