17

 O   -0.7355347895    1.0349521484    1.2285433062
 C   -0.2119989247    0.2040362434    0.2069270525
 C    0.7721456843   -0.8919349187    0.6977531557
 C   -0.4204386633   -1.8610605806    0.8392497435
 O   -0.9341302062   -1.7223585597    2.1728878815
 C   -2.0839742313   -2.3850292615    2.4585596177
 O   -2.6561916777   -2.2340268257    3.4943707935
 C   -1.2181143216   -0.9373053361   -0.1460924775
 O   -2.5622174307   -0.6967263607    0.1199308122
 H   -0.7672230801    0.5201085884    2.0459809249
 H    0.1094231012    0.8655906874   -0.5992797011
 H    1.4622802816   -1.2075112950   -0.0879947963
 H    1.3333073149   -0.6821226389    1.6104946108
 H   -0.2867257350   -2.9175294360    0.5918657814
 H   -2.3928085689   -3.0768656046    1.6568378930
 H   -1.0998817575   -1.2909534144   -1.1759680178
 H   -2.5790166454    0.0979670944    0.6757853100