18

 C    0.6103700754    0.2870125036    1.2127782077
 C    0.0002483219   -0.0132121108   -0.1382324371
 C    0.3840199992    0.8118899983   -1.2928884810
 O    0.9277962668   -0.4989925192   -1.1257385226
 C   -1.3454941791   -0.7283365526   -0.1131497278
 C   -2.5497169779    0.0141148601   -0.6212433011
 N   -1.9899540040   -1.0936511258   -1.3879614891
 C   -1.5160626318   -1.6981412174    0.9444024979
 C   -1.6639986782   -2.4913171130    1.8352246069
 H    1.5627679243    0.8069730932    1.0880568742
 H   -0.0605276803    0.9147593384    1.8084115960
 H    0.7841549311   -0.6374448942    1.7683575707
 H   -0.2810114653    0.9414279151   -2.1464418413
 H    1.0797488129    1.6362769267   -1.1407222466
 H   -3.5193709046   -0.1835426703   -0.1744622968
 H   -2.3919582005    1.0367791332   -0.9543614134
 H   -1.4123038710   -0.7811378221   -2.1642083882
 H   -1.7971800989   -3.2024149434    2.6126383716