23

 C   -0.7520961518    2.0086633668    0.2798252103
 C   -0.2893576015    0.5537437846    0.1537089771
 C   -1.4350296130   -0.4640195492   -0.0458321588
 C   -2.0370453299   -0.3733662501   -1.4648235990
 C   -3.4397696176   -0.9694148553   -1.6348109170
 C   -0.8936477896   -1.8594077031    0.2840002605
 O   -1.9045356710   -2.8773277274    0.2359294933
 C   -2.3376433421   -3.3993590074    1.3969574677
 O   -3.2078453337   -4.2148063783    1.4569855919
 H    0.1023375784    2.6751617655    0.4318393891
 H   -1.2806179350    2.3536587554   -0.6138118742
 H   -1.4273894671    2.1332311297    1.1333707437
 H    0.4198794012    0.4616106782   -0.6799403227
 H    0.2738968011    0.2905165097    1.0586599889
 H   -2.2235442417   -0.2363937149    0.6870070245
 H   -2.0743547438    0.6820071812   -1.7572084267
 H   -1.3414229536   -0.8512925972   -2.1687960933
 H   -3.8045104058   -0.8018561408   -2.6533037265
 H   -3.4541620308   -2.0424720516   -1.4389007005
 H   -4.1507256659   -0.4950026098   -0.9488020868
 H   -0.1291357548   -2.1559976940   -0.4423522591
 H   -0.4295477762   -1.8599740400    1.2791932567
 H   -1.7945907056   -2.9967392720    2.2753968409