23

 C    0.4051362726    1.2327278499   -1.3994725869
 C    0.1452127567   -0.2256206412   -1.0157263278
 C    1.4259491093   -1.0494162455   -0.8696948321
 O    2.2791729840   -0.5472242266    0.1568907181
 C    1.1393831290   -2.5353405711   -0.5990991778
 O    0.3778837342   -3.1781722284   -1.6095046362
 C    1.1258241475   -3.6495348231   -2.6897315714
 C    0.3595475675   -4.0226479340   -3.9151977637
 C    1.2822887057   -2.8183413577   -3.9398768533
 H    1.0739756082    1.7098709717   -0.6776637725
 H    0.8802162489    1.3011990702   -2.3845127545
 H   -0.5256416934    1.8065394271   -1.4378678430
 H   -0.4044637626   -0.2716085348   -0.0626852168
 H   -0.4974895547   -0.7153459053   -1.7553596635
 H    2.0196349649   -0.9650801408   -1.7872770887
 H    1.7684685233   -0.5236843363    0.9744112403
 H    2.0942727667   -3.0545924449   -0.4355724015
 H    0.5490805152   -2.6238218648    0.3231291225
 H    1.9655152157   -4.2812831297   -2.3975890411
 H    0.6448465536   -4.9185774655   -4.4546198420
 H   -0.7059603497   -3.8242038876   -3.8935922251
 H    0.8104157892   -1.8427433644   -3.9505961380
 H    2.2133692581   -2.8803888674   -4.4930520847