16

 C    0.0322905937    1.4560015454    0.0073221601
 C    0.0057197792   -0.0538606401   -0.0008814487
 O    0.9951446373   -0.7420469697   -0.0146853241
 C   -1.3828779514   -0.6979195684    0.0104214986
 N   -2.4143907438    0.0426933515    0.0250509782
 O   -1.2847713237   -2.0422098963    0.0023869979
 C   -2.5079724617   -2.7823384271    0.0113161826
 C   -2.2060980506   -4.2031470292    0.0007317806
 C   -1.9958511074   -5.3843931625   -0.0076260266
 H    1.0694667277    1.7920363859   -0.0020067579
 H   -0.5062204048    1.8501379152   -0.8592350391
 H   -0.4871795201    1.8402352366    0.8898223618
 H   -3.2947113448   -0.4705803132    0.0315862488
 H   -3.0919458604   -2.5229258365    0.9059455411
 H   -3.1105048713   -2.5136540890   -0.8681400612
 H   -1.7994802879   -6.4283341225   -0.0150548821