19

 C    0.1811101288    1.4111728471    0.1103208159
 N    0.1451156744   -0.0409557159    0.0214817149
 C    0.6169226313   -0.5626791910   -1.2427926050
 C    0.5347481374   -2.0875070012   -1.2351830654
 C    1.3423855250   -2.8332899506   -2.3336238680
 C    2.1701608191   -3.3838242072   -1.1564526558
 O    1.3773594584   -2.6450069431   -0.1945568563
 C   -0.8551974127   -2.5509135477   -1.0905714828
 N   -1.9366432325   -2.9530950790   -1.0292201704
 H    1.1749239046    1.8526664327   -0.0862534492
 H   -0.5209434249    1.8404981183   -0.6132887746
 H   -0.1390691513    1.7220573205    1.1083808107
 H    0.6940427503   -0.4549789596    0.7677442484
 H   -0.0128155578   -0.1747949159   -2.0543291414
 H    1.6627158105   -0.2885035586   -1.4818592981
 H    0.7770412469   -3.5704248051   -2.9017011513
 H    1.8722294856   -2.1677002901   -3.0162549997
 H    2.0962055259   -4.4636717966   -0.9916076736
 H    3.2227937812   -3.0843667372   -1.1255005383