17

 C    0.1297220266    1.6144691623   -0.0308326110
 N    0.0645983168    0.1583467780    0.0591189774
 C    0.5280693455   -0.5347431786   -1.1156934124
 C    0.8784358482   -1.9880384477   -0.8205725689
 O    1.3782883827   -2.4113650571    0.1857021169
 C    0.4381999261   -2.7987929543   -2.0340536177
 O   -0.3661154476   -1.9190172141   -2.8193837978
 C   -0.4582312367   -0.6625670461   -2.2629596602
 N   -1.2245678378    0.2407041042   -2.6862487847
 H    1.1412913402    1.9974962816   -0.2566912637
 H   -0.5475938216    1.9550998691   -0.8164463069
 H   -0.1965196022    2.0433401174    0.9204157008
 H    0.6081779679   -0.1813244861    0.8470517085
 H    1.4537786933   -0.0972335128   -1.5559206834
 H    1.3023760359   -3.1406996441   -2.6163066021
 H   -0.1453814080   -3.6731005850   -1.7281770169
 H   -1.7917087293   -0.0968543669   -3.4661379680