19

 C   -0.0504585049    1.0624541083   -0.3261927799
 C    1.4359518797    1.3989329705   -0.0945875586
 C    1.4350498394    0.1227927051    0.7802690246
 O    0.0311710989   -0.1027715065    0.5259585037
 C    2.2836111340   -1.0114533409    0.2998347613
 C    3.8188794147   -1.2226275411    0.4103723483
 C    3.2185708864   -2.2920402511   -0.5318595346
 C    2.0721979314   -2.5396404294    0.4738971542
 O    2.3992035113   -1.2359038772   -1.1706292024
 H   -0.7711061648    1.7943056020    0.0574183755
 H   -0.3211594208    0.7945106889   -1.3534963442
 H    2.0724217041    1.3324958507   -0.9767067664
 H    1.6312373774    2.3286492332    0.4403940603
 H    1.6265254480    0.2801062880    1.8512074756
 H    4.4308409366   -0.4639266803   -0.0792238987
 H    4.2238910275   -1.5475757797    1.3722855162
 H    3.7263716453   -2.9936797244   -1.1928911081
 H    2.3187275280   -2.9844254801    1.4411917346
 H    1.1460315876   -2.9194827860    0.0443805186