19

 C   -0.0283182371    1.4754702746    0.3418982422
 O   -0.1445070004    0.0772356476    0.4640132007
 C   -1.2210799303   -0.4482226308   -0.2783648668
 C   -1.1333789919   -1.9495260980   -0.1974148147
 O   -1.4600239715   -2.5842922044    1.0490024158
 C   -2.3098609929   -2.8491066409   -0.0569243072
 C   -3.7436592351   -2.3870034730    0.0084522060
 C    0.0564851747   -2.5701654717   -0.8771829306
 O    0.6749079098   -2.0532794203   -1.7701854580
 H    0.8277008352    1.7832700574    0.9464328656
 H    0.1432328372    1.7799374939   -0.7021695633
 H   -0.9281146712    1.9939565781    0.7097979735
 H   -2.1800666127   -0.0813236636    0.1132724519
 H   -1.1456703818   -0.1548630418   -1.3376179449
 H   -2.1872689508   -3.8558467413   -0.4656499515
 H   -3.8355012977   -1.4051898827    0.4746360896
 H   -4.1787102136   -2.3481403043   -0.9955319532
 H   -4.3290367687   -3.0988491551    0.5994733757
 H    0.3008543288   -3.5824026238   -0.4835620909