13

 N    0.0684241345    1.3754949174    0.1536953525
 C   -0.0069070499   -0.0076427914    0.0384540508
 C   -1.1083258209   -0.8577571974    0.0105229190
 C   -0.6056369913   -2.2043966702   -0.0175982486
 C    0.7552386207   -2.1295172354   -0.0183565902
 N    1.1089851447   -0.7871738149    0.0177916597
 C   -2.4461937335   -0.4120027818   -0.0080563618
 N   -3.5337645490   -0.0066020769   -0.0243518782
 H    0.6272362749    1.8194102731   -0.5662226833
 H   -0.8534663937    1.7944282406    0.1726523879
 H   -1.2033659423   -3.1006686491   -0.0499035186
 H    1.5101850093   -2.8969153426   -0.0481568245
 H    2.0449894964   -0.4340389015    0.1199579353