14

 N   -0.0804126407    1.2972951768    0.0199361374
 C   -0.0393738979    0.0411430447    0.0758621543
 O    1.1015420905   -0.7113970979    0.1978422824
 C    0.8313929618   -2.1196197786    0.2052460779
 C   -0.6828651377   -2.2729886767    0.0815384535
 O   -1.2998864289   -3.3013939059    0.0271630919
 C   -1.2216447944   -0.8703998476    0.0444086705
 C   -2.5476961349   -0.5118290534    0.5937082360
 O   -2.3302221853   -0.5822343839   -0.8012451265
 H    0.8566453840    1.7011928628    0.0532464980
 H    1.3423276968   -2.6001405890   -0.6359117940
 H    1.1990132950   -2.5615971740    1.1375396260
 H   -3.1603975476   -1.3066452522    1.0155195230
 H   -2.6589411007    0.4902067250    1.0027121196