16

 C   -0.1663541701    1.4496884815   -0.0133585038
 C   -0.0417374845   -0.0400137647    0.0259273641
 N    0.0094477868   -0.7536332957   -1.0958040988
 N    0.1118084611   -2.0340744644   -0.6865993689
 C    0.1265943290   -2.1609598786    0.6591713062
 C    0.0311317974   -0.8833391529    1.1685720209
 C    0.0189424372   -0.4794420096    2.6177500958
 C   -1.2581301716    0.1066432185    3.0435174874
 N   -2.2625802347    0.5769166526    3.3677701076
 H    0.6859829804    1.9377574800    0.4739901473
 H   -0.2083990374    1.7897860291   -1.0497407020
 H   -1.0714858934    1.7873278369    0.5027847019
 H    0.1648298750   -2.7636253872   -1.3765357361
 H    0.2022047097   -3.1216592115    1.1446370009
 H    0.2262253524   -1.3448783325    3.2559283498
 H    0.8071926527    0.2542942085    2.8293482676