14

 O    0.0224778452    1.3650015708    0.0066943173
 C    0.0691662073    0.0020596930   -0.0448347346
 C    0.0844731340   -0.8356905171   -1.1297222229
 O    0.1336551662   -0.4875835253   -2.4431097161
 C    0.0464691429   -2.1813317546   -0.6389333886
 C    0.0504803554   -3.4146212375   -1.4119072405
 O    0.0235363197   -4.5298703942   -0.9293973054
 C   -0.0031920453   -2.0975485295    0.7473727038
 N    0.0081612915   -0.7871160895    1.0959486659
 H    0.9167227103    1.7191418369    0.0912030359
 H    0.0116276747    0.4671964069   -2.5009721517
 H    0.0792988897   -3.2695221260   -2.5125402549
 H   -0.0491552114   -2.8901318785    1.4749517650
 H   -0.0670763402   -0.4203651155    2.0297369067