12

 O   -0.8694723120    1.4266500871    0.3985743405
 C    0.0575345070    1.0147264647   -0.2458963129
 C    1.3877660120    1.7716637616   -0.3694314702
 O    2.2763047295    1.3039803679   -1.0304744730
 C    1.4503697926    3.0984849643    0.3922512022
 C    2.7139460750    3.7904457132    0.2586786628
 C    3.7698597055    4.3627413274    0.1435814057
 C    4.9617262934    5.0172489494    0.0188086954
 N    5.9740339809    5.5770380656   -0.0848102667
 H    0.0480198892    0.0599653620   -0.8092938651
 H    0.6163020824    3.7241761422    0.0464945569
 H    1.2199417944    2.8920592647    1.4462913844