19

 O    0.0423748438   -0.0572838543   -0.1850235405
 C   -0.0336827142    1.1471666102   -0.1188288151
 C   -1.3479553312    1.9012683828   -0.1154678573
 C   -1.2952646688    3.0665581189   -1.1234433857
 C   -0.2156519353    4.0751646511   -0.7140126445
 C    1.1939692376    3.4552787469   -0.6375655318
 C    1.9457145691    3.7757042436    0.6708839115
 O    1.5488028106    2.5048363174    1.2388683700
 C    1.2318530192    2.0040000095   -0.0863862032
 H   -2.1516435471    1.1931826150   -0.3298652315
 H   -1.5102733358    2.3070905121    0.8923818060
 H   -1.0942024121    2.6755674888   -2.1296334445
 H   -2.2717322489    3.5593153254   -1.1710553793
 H   -0.2031412549    4.9257303090   -1.4033820637
 H   -0.4877918865    4.4786958231    0.2691438654
 H    1.7460603215    3.6051891359   -1.5677470564
 H    3.0372154749    3.8388210208    0.5644836833
 H    1.5870898052    4.6242448343    1.2633656493
 H    2.0579557729    1.3977607395   -0.4805137120