13

 O    0.0982724220    1.3789775731   -0.1169915454
 C    0.0624584982    0.0209018180   -0.0264749166
 C    0.0158890110   -0.8189532933   -1.1104508332
 N   -0.0118218083   -2.1575662793   -0.6592364814
 C    0.0184116437   -2.1073436762    0.6858075661
 C    0.0644498468   -0.8070499603    1.1486415806
 C    0.0887023467   -1.0106361347    2.5546243622
 N    0.0604438080   -2.2837708650    2.8827836778
 O    0.0137066248   -3.0186136476    1.6531386319
 H    0.1278524834    1.7488216618    0.7692440511
 H   -0.0002758879   -0.5909352759   -2.1620840141
 H   -0.0464249786   -2.9748277722   -1.2409984433
 H    0.1258731302   -0.2952215583    3.3650625346