19

 C    0.1848772225    1.5480348679   -0.1223788353
 C   -0.0914343478    0.0491047764    0.0881304897
 C    0.6151490385   -0.5318683444    1.2828810962
 C    0.0046210684   -0.9579970722    2.3924899062
 C    0.7764491689   -1.5383452444    3.5434215671
 N    2.1987046766   -1.2418284511    3.4014947546
 C    2.8489510010   -0.9080265017    2.2437843148
 O    4.0606577601   -0.8504839891    2.1425396255
 N    2.0071267050   -0.6062590335    1.1813617350
 H    1.2513163455    1.7503051692   -0.2630504181
 H   -0.3420196211    1.9154342760   -1.0077719624
 H   -0.1503159189    2.1279271493    0.7424869968
 H   -1.1657394029   -0.1149972968    0.2090485721
 H    0.2115901242   -0.5065184176   -0.8102103500
 H   -1.0736568043   -0.9131975846    2.4721096089
 H    0.4210887302   -1.1149772064    4.4934911400
 H    0.6077109165   -2.6279602973    3.6145484166
 H    2.8261668990   -1.5242263885    4.1371793625
 H    2.4831881586   -0.2644905110    0.3632652799