23

 C   -0.1008722297    1.5770729456   -0.0007767752
 C   -0.0146967723    0.0400999448    0.0217970839
 C   -1.4277132966   -0.5636774407    0.0031860964
 C    0.7641278972   -0.4586460839   -1.2139803646
 O    2.1151940358   -0.0319840700   -1.2263705558
 C    2.8408582867   -0.5546441973   -0.1290660634
 C    2.2384241294   -0.1061440811    1.2055783419
 C    0.7492831884   -0.4686445641    1.2657352873
 O    0.1147764638    0.0545221084    2.4260813129
 H    0.8798740079    2.0301980248   -0.1639494763
 H   -0.7542079850    1.9045493528   -0.8166998847
 H   -0.5087444652    1.9546853729    0.9392146633
 H   -1.9771712641   -0.2469244583   -0.8901075868
 H   -1.3941988286   -1.6594246169    0.0061237962
 H   -1.9919104931   -0.2434860603    0.8824587188
 H    0.7194322894   -1.5613297793   -1.2617030869
 H    0.3097758018   -0.0654057210   -2.1288883370
 H    2.8582094268   -1.6578006531   -0.1811394217
 H    3.8694023600   -0.1995203705   -0.2388286370
 H    2.7767505138   -0.5878682531    2.0330420665
 H    2.3562770242    0.9756442947    1.3245368749
 H    0.6680772956   -1.5706295019    1.2641994983
 H    0.6087358937   -0.2435307324    3.1962619391