19

 C   -0.0444224511    1.5525942869    0.0686647613
 C   -0.0010229437    0.0233491814    0.0126593597
 C    0.6732609325   -0.5247680176   -1.2611990693
 N    2.0878765164   -0.2345409771   -1.3553190904
 C    2.8789952418   -1.3786177283   -1.2560314912
 O    4.0900076555   -1.3826387013   -1.1727215897
 C    1.9375789289   -2.5141090278   -1.2926660924
 C    0.6752871235   -2.0448739160   -1.3117545788
 N   -0.5190987636   -2.7212538071   -1.2959503860
 H    0.9605111342    1.9876224863    0.0882877068
 H   -0.5715564095    1.9689069554   -0.7971383354
 H   -0.5615047724    1.8944524222    0.9699559806
 H    0.5339188286   -0.3770858954    0.8811941319
 H   -1.0216113660   -0.3749528152    0.0614579388
 H    0.1327501383   -0.1279609598   -2.1377952638
 H    2.4760804003    0.6628483599   -1.1182563502
 H    2.2654219067   -3.5430466878   -1.3024106024
 H   -0.4848960120   -3.7007338474   -1.5344783027
 H   -1.3163850286   -2.2452787214   -1.6899087366