19

 O   -0.5935156529    1.1431871862    0.0656560478
 C   -0.1232420144   -0.1608565598    0.0709533662
 C   -0.3871938633   -1.0112384855    1.2717074164
 C    1.0465051794   -0.6691130675    0.9022304490
 C    1.8257832393   -1.6821150887    0.0740002806
 C    0.8916030635   -2.0462063428   -1.1133096533
 C   -0.0241667704   -0.8438701179   -1.2676252330
 C   -0.9959384632   -0.6372638614   -2.3400581854
 O    0.2483113773    0.0876690124   -2.3377997221
 H   -0.1996163093    1.5544394120   -0.7168167122
 H   -0.7937320198   -0.4758826082    2.1227929925
 H   -0.7602165324   -2.0253483596    1.1616513549
 H    1.5817743299    0.0061655007    1.5594395829
 H    2.7441380935   -1.2154010871   -0.2987402939
 H    2.1215261951   -2.5694342332    0.6437988336
 H    1.4355292495   -2.2440000404   -2.0392915010
 H    0.2967949119   -2.9369240303   -0.8849798325
 H   -1.0951129915   -1.3756601636   -3.1343409837
 H   -1.8803961421   -0.0323387656   -2.1486752967