24

 C    0.2452288141   -2.8544484523    0.1444736289
 C   -0.0718347019   -1.5319535395    0.8529030009
 C   -1.5079505260   -1.1048640726    0.6224194978
 C   -2.5960833659   -1.4923399216    1.5669864278
 N   -2.1848651741   -0.0961056564    1.4360493825
 C   -1.5056179311    0.5464601622    2.5593236929
 C   -2.5307764587    1.4097951029    3.3070550590
 C   -1.8916843386    2.2516246156    4.4025069031
 O   -3.1758344652    2.2809596552    2.3960787897
 H    1.2911342392   -3.1391633154    0.2918595731
 H   -0.3835864576   -3.6659936521    0.5248459207
 H    0.0699191937   -2.7767987322   -0.9340113820
 H    0.1279220664   -1.6325089387    1.9245527626
 H    0.6022795113   -0.7485811590    0.4823522382
 H   -1.7705043010   -1.0308031708   -0.4336050698
 H   -3.5929035116   -1.7371840314    1.2102092279
 H   -2.2971894435   -2.0193928683    2.4729202257
 H   -1.0346612903   -0.1640653692    3.2564773412
 H   -0.7220863919    1.1995629397    2.1560296350
 H   -3.2701191179    0.7282291058    3.7668033092
 H   -1.1350499583    2.9198535127    3.9787162952
 H   -2.6503810132    2.8673008129    4.8928920342
 H   -1.4184575827    1.6176796636    5.1592929914
 H   -3.3033143853    1.7504423588    1.5959259348