14

 C    0.0009515095    1.5085886738   -0.1059078197
 C   -0.0006173341    0.0142902900    0.0718814437
 O    0.0127918940   -0.5709332973    1.1225838352
 N   -0.0202429535   -0.7420550057   -1.1372733086
 C   -0.0258092172   -2.1083545804   -1.2542827080
 C   -0.0458630926   -2.3026129272   -2.6081706646
 O   -0.0588904025   -3.4582481202   -3.2879439035
 N   -0.0516564612   -1.0920342492   -3.2433510894
 N   -0.0361759394   -0.1480169715   -2.3545033754
 H    0.8705804428    1.8241448317   -0.6876202740
 H   -0.8829963976    1.8289900752   -0.6628538175
 H    0.0161963546    1.9665145126    0.8823108477
 H   -0.0153327314   -2.7602398350   -0.4011977318
 H   -0.0718540413   -3.2345819366   -4.2275735242