15

 C    0.0503833905    1.5070394637    0.0093573848
 C   -0.0911341429    0.0255626723    0.0654288499
 C   -1.1533341338   -0.7204636674   -0.2912770252
 N   -1.1851603253   -2.0952671049   -0.2058495625
 C   -0.1155876338   -2.6798183248    0.2393027572
 N   -0.0048079846   -4.0273982311    0.3313543265
 C    1.1030874807   -1.9482130360    0.6771094035
 O    2.0906598638   -2.4792106750    1.1231920954
 O    1.0357840027   -0.5979842382    0.5526227885
 H    0.8840688375    1.7996491757   -0.6391562128
 H   -0.8659695182    1.9571193066   -0.3777903828
 H    0.2511167539    1.9226623108    1.0033959276
 H   -2.0475430163   -0.2404314060   -0.6705497386
 H   -0.8289723998   -4.5899140679    0.2071322810
 H    0.7880803556   -4.3946454479    0.8306397176