11

 O    0.2150161653   -0.1694132026   -0.2977839060
 C    0.1039309916    1.0055806826   -0.2448359372
 O   -1.1716978285    1.5857896615   -0.4508558887
 C   -1.4062258164    2.9016887335   -0.6424337373
 N   -0.6697576914    3.7874717146   -1.1800655653
 C    0.6321506758    3.5444960561   -1.5790594692
 N    1.5206333088    2.8403647407   -0.9853122412
 C    1.1925981259    2.0443940505    0.0995354457
 O    1.7153090649    2.0489179413    1.1798122205
 H   -2.4114115374    3.1543070182   -0.3150124836
 H    0.9261664114    4.0953002036   -2.4709572179