21

 C    0.0800687965    1.0777417865   -0.5038099290
 C    1.4920672923    1.4243261104    0.0037142576
 C    1.3937070240    0.0807662282    0.7616293936
 O    0.0675832648   -0.1654645935    0.2330549612
 C    2.3711476694   -1.0180154043    0.3697209546
 C    1.9058426418   -2.4210447804    0.8300631253
 C    2.1540684846   -3.2999145785   -0.4064307167
 C    1.9473846189   -2.2918388880   -1.5373185002
 O    2.5137613617   -1.0769574189   -1.0537326723
 H   -0.7226603213    1.7488817485   -0.1748247439
 H   -0.0105157146    0.9102416568   -1.5828578388
 H    2.2634790181    1.4462266263   -0.7652471862
 H    1.5622780626    2.3126166427    0.6327204546
 H    1.3722071749    0.1691028835    1.8580410658
 H    3.3562742529   -0.7620853945    0.7870243111
 H    2.4421275209   -2.7619871207    1.7182406992
 H    0.8378062038   -2.3942279050    1.0643474298
 H    3.1836430378   -3.6727093642   -0.4198406560
 H    1.4785896039   -4.1569203103   -0.4676477079
 H    2.4612332092   -2.5543264048   -2.4668894813
 H    0.8767051578   -2.1590749397   -1.7496865305