19

 C   -0.1031789086    1.4636662748    0.0172799819
 C    0.0068253548    0.0117954528   -0.0028622226
 C    0.0974493508   -1.1891180595   -0.0033750012
 C    0.2051286329   -2.6467694137   -0.0434705526
 C   -1.1768302328   -3.3266051472   -0.0412663929
 C    1.0450996929   -3.0499813016   -1.2688936508
 O    1.3059889523   -4.4570862767   -1.2426602359
 C    0.9185561587   -5.2054737212   -2.2929527722
 O    1.1036491729   -6.3831229926   -2.3506665764
 H    0.2339413592    1.8741979864    0.9753381317
 H    0.5062581312    1.9192323608   -0.7708660895
 H   -1.1386365182    1.7865707403   -0.1363894943
 H    0.7569936527   -2.9871101324    0.8430805663
 H   -1.7577517097   -3.0260421304   -0.9192772534
 H   -1.0685842166   -4.4142618130   -0.0447909692
 H   -1.7406440278   -3.0390266156    0.8491074856
 H    0.5218411089   -2.7756713263   -2.1937935351
 H    2.0092036492   -2.5348266000   -1.2515970315
 H    0.4188512869   -4.6093553350   -3.0817771380