19

 C    0.1102725110    1.4247994160   -0.0186501926
 C    1.3439181790    0.6157203908    0.0191957414
 N   -0.0353914353   -0.0370639350    0.0853451346
 C    0.2048794306   -0.5539534785   -1.3088467561
 C    1.6506233334    0.0031795054   -1.3358829250
 C    2.2432424965    0.7749857521   -2.5673626340
 C    3.3626801934   -0.2678610058   -2.6311416559
 N    4.0475197643   -0.2118605055   -1.3160714855
 C    2.7980262329   -1.0015679622   -1.4667696751
 H   -0.1759601009    1.9445158606    0.8907639171
 H   -0.1901970859    1.9231327666   -0.9392554053
 H    2.0233088972    0.6176210315    0.8648612352
 H    0.1539259755   -1.6458501252   -1.3219965923
 H   -0.4954486837   -0.1549133513   -2.0518623026
 H    1.5700044178    0.7365289550   -3.4278706543
 H    2.5650039876    1.8050291416   -2.3927273868
 H    3.8770764800   -0.6428735187   -3.5070022352
 H    4.8219496428   -0.8748839718   -1.3526047610
 H    2.7756303139   -2.0605996255   -1.2360137468