23

 C   -0.0438757404    1.5268230922    0.0086272995
 C    0.0091905903   -0.0007457311    0.0140450981
 C    0.8004352919   -0.5777112132   -1.2051262067
 C    1.5951813837   -1.8064645596   -0.6740473397
 C    1.0093687283   -2.0383272855    0.7423162413
 C    0.7820788041   -0.5921481414    1.2153512429
 C   -0.3293478863   -2.7396319759    0.6418557821
 C   -1.4350661556   -2.0695784074    0.3180435569
 C   -1.4239242720   -0.5866206401    0.0438957732
 H    0.9640244883    1.9559344979   -0.0109364986
 H   -0.5827819532    1.9030083720   -0.8690339091
 H   -0.5548886548    1.9114755548    0.8986696404
 H    0.1212047760   -0.8527993747   -2.0174488404
 H    1.4821245522    0.1775311526   -1.6088785113
 H    1.4952782333   -2.6847781317   -1.3172177512
 H    2.6638242135   -1.5749234489   -0.6012207515
 H    1.6930122085   -2.6015548376    1.3837378294
 H    1.7392701047   -0.0738494821    1.3526093371
 H    0.2227694567   -0.5286758866    2.1541269611
 H   -0.3617161502   -3.8128465815    0.8112024875
 H   -2.3913551822   -2.5824576653    0.2444876703
 H   -2.0267314465   -0.0660225056    0.8041305933
 H   -1.9232004003   -0.3787334514   -0.9135444647