16

 C    0.0434127690   -1.2190054224   -0.2559233069
 C   -0.0064102166   -0.0303429871   -0.0838040995
 C   -0.0400279132    1.3905001792    0.1212598721
 N   -1.1436035801    2.0107824132    0.0751271777
 C   -1.2405802331    3.4593784351    0.1085992475
 C   -0.4825964587    4.1886471355    1.2158253073
 O    0.9262506715    4.1168464146    1.0535343286
 C    1.4468667504    2.8621028623    1.3172094788
 O    1.2274545320    1.8912856474    0.2955889243
 H    0.0754261743   -2.2695527539   -0.4100155266
 H   -0.8929140524    3.8536092057   -0.8572784766
 H   -2.3017873979    3.7175283089    0.1967180094
 H   -0.7373064379    5.2520493396    1.1894886119
 H   -0.7689187095    3.7853435822    2.1998224278
 H    2.5312999737    2.9656256816    1.3667016385
 H    1.0460518486    2.4625885983    2.2628709955