20

 C   -1.3625829698   -0.4227928430    0.0905931909
 O   -0.0591596028    0.0619805101   -0.1728341612
 C    0.6736442730   -0.6673060957   -1.1450042406
 C    0.3487428131   -0.1088021773   -2.5302460396
 O    0.6049075481    1.2788113715   -2.5811884637
 C    2.2100851756   -0.6934420180   -0.8371834794
 C    2.1364613685   -2.2217211705   -0.8685235943
 N    1.2130330616   -2.6119516547    0.2215785296
 C    0.6630823925   -2.2044380227   -1.0955480606
 H   -2.0049074118   -0.4175191908   -0.8020763144
 H   -1.3289232967   -1.4400948623    0.4991473117
 H   -1.8014509840    0.2445913210    0.8359748344
 H    0.9716629580   -0.5892993032   -3.2918936850
 H   -0.7032629252   -0.3335747327   -2.7783132277
 H    0.2493574157    1.6335269374   -1.7558103823
 H    2.8011292908   -0.2413887077   -1.6346911678
 H    2.4855350417   -0.2703662634    0.1298725687
 H    2.8737731490   -2.9183966211   -1.2465154462
 H    1.1855776638   -3.6317985895    0.2398022716
 H    0.0359953288   -2.8753630574   -1.6713578341