18

 O    0.0235086420    1.4590895133   -0.1697801453
 C    0.0436591091    0.0615247882   -0.0395623618
 C    0.0064095426   -0.5531212465    1.3683586118
 C   -1.4981779192   -0.1930252544    1.5943300898
 C   -1.3340587832   -0.5770902987    0.0876053142
 N   -0.7196931699   -1.8141696903    0.8106101850
 C   -1.7572713317   -1.6498746479    1.8936018530
 C   -1.8613872462   -2.4759577051    3.1246602013
 C   -2.9669582546   -2.4954688421    2.0680870881
 H    0.9284294543    1.7821589401   -0.1204772542
 H    0.7260784428   -0.4274036296   -0.7473663785
 H    0.7871865159   -0.6584299500    2.1234922403
 H   -1.9269456201    0.7151656742    2.0233690814
 H   -2.1196700148   -0.7053929124   -0.6574479265
 H   -1.2293806147   -3.3550865904    3.1984455848
 H   -2.0649486270   -1.9843665566    4.0707327490
 H   -3.9115895914   -2.0165469303    2.3056313558
 H   -3.0531410938   -3.3871503815    1.4555932218