17

 O   -0.1396689465    1.3266663355   -0.0409990870
 N    0.0136952227   -0.0745382933   -0.0324618652
 C   -1.1127496267   -0.6548480744   -0.0240427557
 C   -2.5599905719   -0.2220306465    0.0995731690
 C   -3.3588035059   -0.5391509280   -1.1936779782
 N   -3.4131175947   -2.0076581561   -0.8849412672
 C   -2.1009836235   -2.6578659361   -1.2137733334
 C   -1.4267311293   -2.1294618852    0.0820022524
 C   -2.8781692989   -1.7033129366    0.5089921454
 H    0.7741597363    1.6284614605   -0.0031881863
 H   -2.7830335431    0.6795690837    0.6677381707
 H   -4.3700022259   -0.1227833916   -1.1548054890
 H   -2.9048240823   -0.2802200215   -2.1553393232
 H   -2.2197315699   -3.7455012190   -1.1897080374
 H   -1.6637641101   -2.3687896875   -2.1747206271
 H   -0.7440070462   -2.7739136298    0.6345945228
 H   -3.4182338439   -2.0322023341    1.3945751193