19

 O   -0.1214050743    0.0267995938    0.5897112354
 C   -0.0075361540    1.1603377098    0.1698199094
 N    1.1526054392    1.7379465820   -0.2340340528
 C    2.4433155600    1.0738794304   -0.2006210171
 C    3.0633275932    0.8666158818   -1.6121128345
 C    4.5943113467    0.9326278669   -1.4174773558
 C    4.7719012353    1.8133738822   -0.1927855377
 N    3.9503218979    3.0472775860   -0.2333042863
 C    3.4957464800    1.8733225117    0.5518179275
 H   -0.8657795063    1.8551123052    0.0712331533
 H    1.1399494646    2.6953096732   -0.5521514981
 H    2.2759264789    0.1172571580    0.3001282814
 H    2.7295327031   -0.0686047515   -2.0666744759
 H    2.7368124633    1.6830099857   -2.2604533835
 H    5.0092964648   -0.0588156006   -1.2011996549
 H    5.1103801183    1.3204697357   -2.3012788990
 H    5.7283187118    1.8479070298    0.3188575398
 H    4.3542706439    3.7318744773    0.4008767882
 H    3.4464135635    1.9448932926    1.6332030605