19

 C   -0.3032428412    1.4672939605   -0.0754971262
 C    0.0283812977    0.0041769332    0.0298528010
 C    1.2011283044   -0.6059097636   -0.7621505544
 O    1.6258969387   -1.3821188590    0.3897493040
 C    0.6001691619   -0.7984448561    1.2318396183
 C    1.1855873914   -0.3218953817    2.5360309242
 O    1.8064892871   -1.4025103618    3.2116998949
 C   -0.7071276036   -1.5995796010    1.1590668601
 O   -1.1367880374   -0.8504423243   -0.0092378147
 H    0.5941614308    2.0846825410    0.0278543049
 H   -0.7504579597    1.6766923496   -1.0538330154
 H   -1.0253655781    1.7596302984    0.6917031609
 H    0.9087911433   -1.2352940229   -1.6087516099
 H    1.9797303033    0.1033845671   -1.0705176777
 H    1.8972825369    0.4964598647    2.3430062194
 H    0.4023768270    0.0612595076    3.1981318662
 H    2.4286388331   -1.7889243828    2.5830458556
 H   -0.5874180021   -2.6683902287    0.9577470097
 H   -1.3946950336   -1.4495489500    2.0008985890