21

 C   -0.0688841369    1.4244877417    0.3973153146
 C   -0.0862018457   -0.0985018987    0.2524910977
 C   -1.4565060879   -0.6463194698   -0.1634833192
 C   -1.5255430281   -2.1886940613   -0.1955115858
 C   -2.1271959451   -2.5526557667    1.1534196166
 O   -1.1903920281   -2.4941157762    2.2585859056
 C   -1.9221080349   -1.4104328729    2.8797523259
 C   -2.8308204824   -1.2663284874    1.6411247980
 O   -2.5057585718   -0.2347734514    0.7373414044
 H    0.9176455326    1.7811063621    0.7082389101
 H   -0.3177528689    1.9149820278   -0.5508498722
 H   -0.8026727807    1.7508663398    1.1390642915
 H    0.6367310239   -0.4090592571   -0.5135988962
 H    0.2281636577   -0.5834689665    1.1828783873
 H   -1.7236047414   -0.2156920418   -1.1361142331
 H   -2.1934121207   -2.5323133071   -0.9921842816
 H   -0.5476914618   -2.6541246929   -0.3416831901
 H   -2.6898078356   -3.4915297794    1.1557665079
 H   -2.4416285848   -1.7453266195    3.7869332184
 H   -1.2885991685   -0.5482809890    3.1111946301
 H   -3.9088803910   -1.2546178438    1.8139721799