21

 C   -0.0266801894    1.4877227859   -0.2024920664
 C   -0.1869291730    0.0353064029    0.1672676609
 O    0.9700682530   -0.8020485549    0.0689231828
 C    0.3857053226   -0.6018585235    1.3674721561
 C    1.1974974952    0.1090469813    2.3974236735
 C    0.8546634167   -0.0553988798    3.8623572826
 C    2.1366081492   -0.6336117574    3.3289221472
 C    2.3459186358   -2.1228589047    3.2486505928
 O    2.8140678981   -2.5616728352    4.5186435351
 H    0.8978290536    1.9096171201    0.1961947630
 H   -0.0015686732    1.5958346584   -1.2919365956
 H   -0.8724180197    2.0743539073    0.1724953156
 H   -1.0913761885   -0.4269318159   -0.2366747089
 H   -0.1431414005   -1.4818721143    1.7387516712
 H    1.5481726444    1.0896380518    2.0951653581
 H    0.8945359041    0.8153948761    4.5065130956
 H    0.0623002322   -0.7551749614    4.1111228968
 H    3.0451782135   -0.0965240396    3.5864327907
 H    1.4074110883   -2.6306401203    2.9789139773
 H    3.0764844828   -2.3506210492    2.4569048138
 H    3.0478570348   -3.4915817474    4.4429081079