16

 N    0.2377894739    1.4375266704   -0.0647984227
 C    0.0431160367    0.0007742615    0.0463919814
 C    0.7484597846   -0.5083295616    1.3024422087
 C    0.9612915409   -2.0437947295    1.4100895293
 C    2.4619376083   -1.7001886409    1.3509358679
 O    2.1790386303   -0.2860414461    1.2137219034
 C    0.1939786500    0.1057063328    2.5204942941
 N   -0.2490761016    0.5247603459    3.5018404320
 H    1.2232879043    1.6342693025   -0.2081987853
 H   -0.2673882918    1.8087706911   -0.8611167058
 H   -1.0287463912   -0.2139488189    0.1322966516
 H    0.4341720212   -0.5909473866   -0.7994371242
 H    0.6110586935   -2.4979298410    2.3357052594
 H    0.5706054653   -2.5984766494    0.5557746704
 H    3.0277822723   -1.9087475594    2.2649804689
 H    3.0139097234   -2.0866772908    0.4880463509