20

 C    0.0430866404    1.4803872678   -0.1439669029
 C    1.2913620355    0.6803722692    0.0060892665
 C    2.0451123032    0.6302963787    1.3049065622
 C    1.3020899509    0.5982460717    2.6259832152
 C   -0.2049872616    0.3997554341    2.5367640629
 C   -0.3285583366   -0.5723605739    1.3457981871
 C    0.8134607402   -1.5791917882    1.6229966907
 C    1.9464825702   -0.6660791437    2.0890560118
 N   -0.0227069144    0.0250549548    0.0232352135
 H   -0.2336166616    2.1400437568    0.6717863459
 H   -0.2659860070    1.8282891539   -1.1261188770
 H    1.8918866873    0.4775889743   -0.8806226975
 H    3.0093086814    1.1295147860    1.3117276489
 H    1.7265291151    1.1312669042    3.4693805594
 H   -0.5719771093   -0.0882592326    3.4483330844
 H   -0.7860773361    1.3170543556    2.4126209121
 H   -1.3134136007   -1.0412179530    1.2825883438
 H    0.5322645873   -2.2759325703    2.4202794967
 H    1.0535976984   -2.1601128618    0.7275151953
 H    2.8343130674   -1.0924429435    2.5408900911