18

 N    0.0231536993    1.4650119247   -0.0444543229
 C    0.0081372974    0.0009605404    0.0350579186
 C    0.4983366890   -0.6597767327   -1.1946258922
 N    0.8916839831   -1.1092416006   -2.1845383774
 C    0.7915880974   -0.4303904802    1.2579723153
 C    2.1943710719   -0.8966766137    1.2486401777
 N    1.1304327629   -1.8712001812    1.5686285980
 C    0.7577529446   -1.5960163979    3.0056183336
 C    0.3163031690   -0.1444282393    2.6812700571
 H    0.9682531488    1.7861428674   -0.2355717349
 H   -0.5548473905    1.7795440508   -0.8179799719
 H   -1.0354181524   -0.3089979926    0.1737985013
 H    2.6607811326   -1.0892035176    0.2877648448
 H    2.8748947215   -0.5789151041    2.0364521350
 H   -0.0577055597   -2.2529037747    3.3125731586
 H    1.5961104200   -1.7194578325    3.6982042742
 H    0.8069662016    0.6798565373    3.2040461757
 H   -0.7644758263   -0.0046473734    2.7468650794