20

 C   -0.0155712006    1.5536891255    0.0464090276
 C    0.0383184760    0.0524683312    0.0140769889
 C   -0.8644701731   -0.8121818705    0.8479904125
 C    0.6252354464   -0.9514965084    1.0240011031
 C    1.2791506108   -1.7527080480   -0.1221934635
 C    0.4902345380   -2.9217401515   -0.7892029042
 C   -0.1161990847   -1.9145983295   -1.8228993796
 C    0.6765413885   -0.7533124792   -1.1498673684
 H    0.9498250738    1.9964507566   -0.2257309165
 H   -0.7652747391    1.9408347782   -0.6555065654
 H   -0.2805789200    1.9189395373    1.0444718625
 H   -1.3623516681   -0.2862757524    1.6578770268
 H   -1.4691146951   -1.6076179538    0.4224290886
 H    1.0902505404   -0.7618955619    1.9855929921
 H    2.3585274432   -1.8729012152   -0.0250086136
 H    1.1386606233   -3.6721148022   -1.2482990573
 H   -0.2242402286   -3.4410386768   -0.1449216409
 H    0.1992463186   -2.1099267954   -2.8508597165
 H   -1.2050860240   -1.8145699899   -1.8176573108
 H    1.3221738241   -0.1529224542   -1.7928769857