18

 N   -0.4730916723   -0.9550897896   -0.8861772362
 C   -0.2475381583    0.0877154660   -0.4425199064
 C    0.0049484275    1.3986353438    0.1703349289
 C   -0.5585103295    1.4219474356    1.6382751597
 N    0.1759362074    2.3448352713    2.5133795908
 C    1.5591517644    2.5626185619    2.0790900252
 C    1.6101261186    3.1300607365    0.6381907254
 N    1.4508410763    1.7196724691    0.1183609755
 C    2.0881860153    1.2712820722    1.4158120698
 H   -0.5056780788    2.1479942893   -0.4454342681
 H   -1.6196197963    1.6816519286    1.6344816116
 H   -0.4904939021    0.4087878955    2.0466636905
 H   -0.3006921373    3.2389627799    2.5615888101
 H    2.1316209974    3.0477692936    2.8747801459
 H    0.8276231825    3.8334648356    0.3349815055
 H    2.5888664336    3.5161263928    0.3368243059
 H    3.1737886316    1.2732138218    1.2977956215
 H    1.7695615400    0.3006491162    1.7999382344