16

 O   -0.5676956070    0.8085463366   -0.7627809007
 C    0.1135676279    1.1256391933    0.1802357715
 C    1.3817846123    1.9082766873    0.0764399381
 C    2.7187057483    1.3716405803    0.6444337699
 C    3.0355349689    2.8693968239    0.7739197639
 C    2.9291938454    3.5244297126   -0.6109386958
 C    1.5532901191    4.0298294062   -0.2964334668
 C    1.6765451128    2.7954659480   -1.1373483772
 N    1.5307462415    3.1745799873    0.9655074671
 H   -0.1618846588    0.8483116400    1.2221195412
 H    2.5748301082    0.9071615716    1.6240308482
 H    3.3389070993    0.7441349655    0.0015277043
 H    3.7390690497    3.2640497266    1.5066515145
 H    3.6921690952    3.9327738719   -1.2597351331
 H    1.0486173102    4.9777941559   -0.4277898295
 H    1.4633621270    2.6343899330   -2.1840541957