16

 O    0.0429088446    1.2121713326    0.0726219679
 N    0.1307010861   -0.1964602091    0.0276195763
 C   -1.0221802783   -0.7146040106    0.0839595698
 C   -1.4717458877   -2.1248695932   -0.0109025266
 C   -2.4659898745   -2.4193675792    1.0970035094
 C   -2.9384895136   -1.6225051314   -0.0720765535
 C   -2.4621812020   -0.1644513924    0.0367285935
 C   -2.9516128396    0.7095470152    1.1699021642
 O   -3.7847799089    0.3764122334    1.9739293045
 H    0.9673833374    1.4762435697    0.0163146569
 H   -0.9788613774   -2.9076845065   -0.5713886965
 H   -2.8026625560   -3.4508184752    1.1195588926
 H   -2.3620789181   -1.9620415198    2.0744124736
 H   -3.7202585079   -1.9627627102   -0.7371097895
 H   -2.5660587815    0.4026752454   -0.8978054849
 H   -2.4675842327    1.7082521013    1.2093083522