16

 O   -0.1509397546    0.0112410970   -0.3868433688
 C   -0.0181647497    1.1219558753    0.0606631002
 C    1.2835052158    1.8959431492    0.0449166999
 C    2.4845702938    1.1091571710   -0.5621442340
 C    2.2353751071    1.7919665942   -1.9312849737
 C    1.3447553415    2.8415075897   -1.2211810771
 C    1.5289246015    2.6070739763    1.3523645967
 O    0.7991621032    2.5789788856    2.3102624848
 H   -0.8751245381    1.6790781582    0.4911433336
 H    3.4338681741    1.4042571731   -0.1061217352
 H    2.3763181482    0.0253900206   -0.5172305595
 H    3.1068642729    2.1729103138   -2.4666840429
 H    1.6603917793    1.1526463044   -2.6041079143
 H    0.3843970343    3.1012673466   -1.6734712821
 H    1.8799409092    3.7674903111   -0.9891738968
 H    2.4783650115    3.1930055939    1.3678758194