17

 C    0.4306733788    1.5691845832   -0.2408879671
 C    0.0002661239    0.1184789667    0.0307785487
 C    0.3110691075   -0.7924462391   -1.1375929733
 C    1.3340175258   -1.6100869703   -0.9014078669
 C    1.8946017353   -1.4394943659    0.4888860632
 C    0.7827350872   -0.5997362732    1.1887144820
 C    1.2813593905    0.2853683859    2.2348364322
 N    1.6776747819    0.9869872852    3.0640891617
 H    1.5018065566    1.6312420288   -0.4573448155
 H   -0.1084277827    1.9658953243   -1.1068081824
 H    0.2189416839    2.2132022458    0.6170686990
 H   -1.0698118520    0.1203162042    0.2682625648
 H   -0.2251065437   -0.7122701447   -2.0769009262
 H    1.7615548676   -2.3054596693   -1.6146465276
 H    2.0688830725   -2.3847656173    1.0122054587
 H    2.8552351396   -0.9095694989    0.4720409635
 H    0.0886777972   -1.3019359753    1.6628000853