16

 N    0.5611505995    0.3015024643    1.0530951522
 C   -0.0673348200    0.4199938915   -0.1515085286
 O    0.3302135991    1.1335419591   -1.0521035626
 C   -1.2683823442   -0.3956259648   -0.2671075173
 C   -2.2684763228   -1.0542971403   -0.4107981209
 C   -3.4717283416   -1.8442803241   -0.5986234117
 C   -3.4717131365   -2.8909065572   -1.7484999339
 C   -3.7462814457   -3.9098474088   -0.6262938225
 O   -3.6450054164   -2.8884168543    0.3922881980
 H    1.3931541674    0.8449900359    1.2138834658
 H    0.1959220629   -0.2823272857    1.7849362829
 H   -4.3436486912   -1.1761119104   -0.6141734954
 H   -4.2583613803   -2.7603046455   -2.4915342947
 H   -2.5091617322   -2.9996698174   -2.2472247181
 H   -4.7423811820   -4.3679492864   -0.6419291091
 H   -2.9940187659   -4.6945538160   -0.4906228541