18

 C   -0.2097379639    1.5818569589   -0.0221967496
 C    0.0111853914    0.0812291629    0.0260578795
 C    1.2542781926   -0.5788431544   -0.6129912846
 C    2.1776705480   -0.0700012646    0.5510410820
 C    0.8243904031   -0.5850451526    1.1592356859
 N    0.9800469195   -1.8137579476    0.2544193925
 C    2.2918741943   -2.4118219439    0.5704997960
 C    3.1750555371   -1.1753203255    0.7891763302
 O    4.3421053174   -1.1072891760    1.0723612132
 H    0.6942831478    2.1554393948    0.1978816887
 H   -0.5633930086    1.8837817992   -1.0137188444
 H   -0.9771468582    1.8780170010    0.7008045126
 H   -0.9058575151   -0.4720205688   -0.1983162953
 H    1.5202881015   -0.6778207260   -1.6680931192
 H    2.5237770087    0.9570133191    0.6385891327
 H    0.5775711634   -0.6914127012    2.2182757117
 H    2.2333280905   -3.0375465445    1.4667912049
 H    2.6515286005   -3.0313749207   -0.2572102070