19

 C    0.0169061077    1.5488870907   -0.0371472294
 C    1.4773820390    2.0355991188    0.0197878134
 N    2.1797318338    1.6448904212    1.2539970631
 C    1.8736477473    0.3154352728    1.5995278250
 C    0.9022164382   -0.4986941171    1.0626886747
 C   -0.0614445714    0.0093979318    0.0280715136
 C    1.0497019983   -1.7767390050    1.6848233690
 C    2.0909846403   -1.6907369488    2.5760064417
 N    2.5947932162   -0.4063950662    2.5156975257
 H   -0.5303738764    1.9819979097    0.8101083018
 H   -0.4607506852    1.9204347099   -0.9503764072
 H    2.0339780337    1.6155525537   -0.8277474125
 H    1.5292495244    3.1249819982   -0.0668259073
 H    1.9488566092    2.2889616456    2.0059054515
 H   -1.0888133422   -0.3016081011    0.2532166521
 H    0.1689964120   -0.4121986218   -0.9611604298
 H    0.4454136926   -2.6540657102    1.5068223861
 H    2.5123275058   -2.4186411349    3.2498305586
 H    3.4121788568   -0.0686055973    2.9924871998