25

 C    0.1178417545    1.5441666538    0.0725685493
 C    0.0129233564    0.0068085895    0.0000959132
 C    0.5858016116   -0.5872522065    1.3022167082
 C   -1.4872833231   -0.3599254367   -0.0721978331
 C    0.8056375013   -0.5448721067   -1.2678191852
 C    2.2122031208    0.0698305829   -1.3914610963
 C    0.9215135254   -2.0838488269   -1.2539624581
 C    0.0025165663   -0.1738404724   -2.5158524413
 O    0.1779198079    0.8086889606   -3.1916441630
 H    1.1331783095    1.8726930855    0.3094592915
 H   -0.1781771508    2.0164340289   -0.8682483759
 H   -0.5409421053    1.9214560516    0.8617632370
 H    0.1040425272   -0.1113843125    2.1632239254
 H    0.4033610789   -1.6625909518    1.3818062700
 H    1.6622491446   -0.4173020867    1.3972069803
 H   -1.9971370815    0.1508996162   -0.8951527512
 H   -1.6530057353   -1.4353351580   -0.1861012246
 H   -1.9839035293   -0.0521701637    0.8538398444
 H    2.7797330264   -0.0340611834   -0.4630377917
 H    2.7739180600   -0.4414887392   -2.1797665090
 H    2.1636108614    1.1245779783   -1.6621421744
 H   -0.0452328135   -2.5778904729   -1.1199938873
 H    1.3427679342   -2.4394757746   -2.2007561174
 H    1.5872770985   -2.4215694169   -0.4563098889
 H   -0.7955060060   -0.9031455283   -2.7860561019