17

 N    0.0793786761    1.3477073433   -0.1586617295
 C   -0.0071359353   -0.0044720697   -0.0387384989
 C   -1.1035979308   -0.8172090154   -0.0247206333
 C   -2.4862813014   -0.4135414040    0.0212830559
 O   -3.4376557017   -1.1728865942    0.0432213775
 C   -0.6532081005   -2.2405205619   -0.0286924929
 C    0.1483957103   -2.6778350208   -1.2036414476
 N    0.8316527078   -2.2489443894    0.0267978371
 C    1.2584045604   -0.8427592349    0.0237861036
 H    0.9240965543    1.7989038587    0.1542096370
 H   -0.7563583509    1.9025637641   -0.0634778762
 H   -2.6560973724    0.6910633295    0.0555079633
 H   -1.1866730999   -2.9635600636    0.5796204668
 H    0.2682996265   -3.7337607502   -1.4297513137
 H    0.1651629243   -2.0156069598   -2.0674982624
 H    1.9323670035   -0.6298451816   -0.8155621706
 H    1.8154417399   -0.6243919402    0.9467811037