15

 O   -0.0262825605    0.0015245966   -0.4851193346
 C   -0.0535009385    1.1196323558   -0.0351894714
 C   -1.3219867998    1.9179452608    0.1869763101
 C   -1.2285368658    2.7399376779    1.4819157271
 C   -0.0261462765    3.6764148213    1.4792286011
 O   -0.0332358612    4.7772729353    1.9920554318
 N    1.0678458915    3.1868719591    0.8113554516
 C    1.2504933312    1.8142654103    0.3770002971
 H   -1.4374004360    2.5994166864   -0.6673588332
 H   -2.1738972215    1.2346034265    0.1785998206
 H   -2.1178229352    3.3520106119    1.6389949368
 H   -1.1441887743    2.0713119256    2.3486769858
 H    1.8801755629    3.7858603988    0.8520691378
 H    1.7159993596    1.1837096552    1.1501930554
 H    1.9212966042    1.7888357887   -0.4880111761