13

 O   -0.1352122810    1.3473154465    0.0108025287
 C    0.0401402821    0.0058115288    0.0027387059
 C    1.2215711928   -0.6616749116   -0.0074176056
 C    1.2732436328   -2.1222652557   -0.0150869151
 O    2.3203300644   -2.7615723679   -0.0254826667
 C   -0.0536808840   -2.7599896938   -0.0117200407
 C   -1.1886806995   -2.0330552911   -0.0014628650
 N   -1.1538015174   -0.6572271635    0.0058963515
 H    0.7296753776    1.7716218736    0.0082516939
 H    2.1588668022   -0.1167442199   -0.0099232218
 H   -0.0950844101   -3.8417105451   -0.0176035168
 H   -2.1814527163   -2.4659210167    0.0015452992
 H   -1.9993017037   -0.1108585135    0.0135369324