20

 C    0.0675897524    1.5919666400    0.1021878881
 C   -0.1807218598    0.0891682190   -0.0728323804
 C    0.5879303193   -0.5046826137   -1.2464125186
 C    2.1022612312   -0.7957322694   -1.1119224795
 C    1.8677377334   -2.1414217101   -0.3348083926
 C    2.7735156692   -2.9373585019   -1.2945410178
 C    2.0492671968   -1.9232883193   -2.1999147612
 C    0.7102456328   -2.0380666583   -1.3926897325
 H    1.1266439034    1.7993104398    0.2901052124
 H   -0.2221098000    2.1474523028   -0.7968972646
 H   -0.5050678565    1.9971586078    0.9422855605
 H    0.0884584567   -0.4375036925    0.8512678240
 H   -1.2543711663   -0.0875755072   -0.2225441913
 H    0.3192760077    0.0102509245   -2.1798174308
 H    2.9319763100   -0.1034238425   -0.9538477880
 H    1.7521390928   -2.2567493814    0.7434138932
 H    3.8542621917   -2.8077341238   -1.1737976334
 H    2.5284866140   -3.9945795085   -1.4417199059
 H    2.1316337475   -1.7714700198   -3.2776917322
 H   -0.0741834760   -2.7802450553   -1.5571265995