20

 C   -0.4041635896    1.2071047090   -0.1094581159
 C    0.1431290422   -0.2033455237    0.0926929652
 C    0.9871238381   -0.7254942207   -1.0846507153
 O    1.9959128435   -1.5878617371   -0.5277272727
 C    1.8765474758   -1.6258045862    0.8658908451
 C    1.1273722412   -0.3629129969    1.2666891178
 O    1.0818369891   -2.7396204419    1.2930760483
 C    1.6063728930   -3.9620732640    1.0661664762
 N    0.9310385781   -4.9951291464    1.3308095123
 H    0.4084274259    1.9274558674   -0.2585339202
 H   -1.0607399222    1.2575681861   -0.9844665493
 H   -0.9866649533    1.5323635721    0.7580960446
 H   -0.6886331470   -0.8963961265    0.2570161267
 H    0.3970822596   -1.2885114668   -1.8146195868
 H    1.4948398468    0.0942067877   -1.6103765560
 H    2.8844412457   -1.7294451068    1.2835559696
 H    1.8300146314    0.4770844251    1.3007369050
 H    0.6442183593   -0.4610192670    2.2395583313
 H    2.6242676058   -3.9351026237    0.6574669621
 H    1.4795168564   -5.8268642496    1.1206887218