16

 O    0.0432313401    1.3781611754    0.0232487437
 C   -0.0217824467   -0.0339459864   -0.0290240443
 C   -1.4627338941   -0.4837596193   -0.0067234114
 C   -2.5214185570    0.4116033231    0.0566998033
 C   -3.8183968459   -0.1079223830    0.0723513901
 C   -4.0162959515   -1.4764901437    0.0252431096
 C   -2.8743419560   -2.2837059762   -0.0370831719
 O   -3.0295589420   -3.6249714269   -0.0843550440
 N   -1.6355712320   -1.8143892814   -0.0530729615
 H    0.9684755575    1.6362363900    0.0079088611
 H    0.4494959436   -0.4320492720   -0.9416411585
 H    0.4978886227   -0.4996120248    0.8233596395
 H   -2.3283374166    1.4742702892    0.0921810235
 H   -4.6718810302    0.5608719167    0.1214434721
 H   -5.0001550498   -1.9277552296    0.0349113020
 H   -2.1354056521   -3.9918774513   -0.1229949035