19

 C   -0.2874918536    1.5020498926    0.0671218450
 C    0.0582164856    0.0164116677   -0.0061985169
 C    0.9525263891   -0.4088819921   -1.1905560596
 C    1.5201401445   -1.7740056164   -0.7592597157
 C    1.7947405968   -1.6074795030    0.7501695630
 C    0.8270378024   -0.5274876683    1.1863893987
 N    0.6528448109   -0.0634401061    2.3575542658
 O    1.4791714347   -0.7200804656    3.2923842469
 H    0.6217876233    2.1098385852    0.1213847702
 H   -0.8543759374    1.8130979809   -0.8162788175
 H   -0.8843740646    1.7188852077    0.9563196113
 H   -0.8787205271   -0.5586679774   -0.0768838902
 H    0.4080482219   -0.4465055570   -2.1381495693
 H    1.7678165637    0.3170319138   -1.3084037386
 H    0.7662582019   -2.5538758455   -0.9179735570
 H    2.4096299333   -2.0661091040   -1.3231112931
 H    1.6676801851   -2.5237736128    1.3337470218
 H    2.8188782183   -1.2647317835    0.9439683057
 H    1.2523939011   -0.2696963863    4.1126475596