14

 O    0.0136385459    1.4328515033    0.0078783582
 C   -0.0232685500    0.0306422684    0.0020759193
 C   -1.4408745447   -0.4598329685    0.0124511133
 N   -2.4508206779    0.3511579809    0.0230566451
 C   -3.7053586644   -0.2025422691    0.0320052639
 N   -3.9961358393   -1.4692389953    0.0310648358
 N   -2.9328211782   -2.2934206344    0.0199431392
 C   -1.5984488451   -1.9287551373    0.0095344535
 O   -0.6898959921   -2.7414086035   -0.0003633398
 H    0.9369953503    1.7006501848   -0.0044918564
 H    0.4688052701   -0.4123244974   -0.8810080453
 H    0.4842945228   -0.4199778805    0.8724409954
 H   -4.5444913209    0.4824853553    0.0408315345
 H   -3.1465131665   -3.2830423966    0.0190748334