16

 C   -0.2100388595   -1.2168002701    0.1764041109
 C   -0.0811307037   -0.0239281440    0.0998474510
 C    0.0373243967    1.4045741502   -0.0178242088
 O    0.5945136361    2.1202436840    1.0992419032
 C    1.3493258248    2.0879575483   -0.1120585374
 C    2.6480003487    1.3639214894   -0.1037530261
 C    3.5881451975    1.5317947531   -1.2751430859
 C    3.9298615076    2.1484292020    0.0535917197
 H   -0.3224598895   -2.2702632843    0.2517175875
 H   -0.8228691510    1.8969971537   -0.4716989329
 H    1.3575129900    3.0388008298   -0.6514291904
 H    2.6084335179    0.3849197373    0.3606007290
 H    4.1424091868    0.6610950085   -1.6056870354
 H    3.2838495935    2.1942960800   -2.0791375604
 H    3.8540715627    3.2266224004    0.1485223538
 H    4.7229183515    1.7050070618    0.6446301623