22

 C   -0.1061625348    1.5597591572    0.2455778037
 C    0.0043952365    0.0401050814    0.0237899782
 C    0.8583036689   -0.6275450013    1.1102447407
 C   -1.3689461420   -0.5652610089   -0.1151648987
 N   -2.3006318894   -0.7656295581    1.0288597376
 C   -1.9508773555   -1.9132406803    0.1426410502
 C   -2.9026924861   -1.8121322535   -1.0463844183
 C   -2.3367843440   -0.3612491515   -1.3024556335
 O   -3.2130896020    0.7275288901   -1.2081921772
 H    0.8807541749    2.0323969761    0.2160900612
 H   -0.7377640216    2.0244261139   -0.5165164292
 H   -0.5545552542    1.7760276492    1.2217788233
 H    0.5096517808   -0.1220225566   -0.9392452176
 H    0.9410568032   -1.7073524735    0.9513775633
 H    1.8697006392   -0.2097408196    1.1089645416
 H    0.4454704960   -0.4594901117    2.1120310846
 H   -1.7382219815   -0.8468726842    1.8745617734
 H   -1.4869816569   -2.7983725479    0.5609389231
 H   -2.6699534072   -2.5030611816   -1.8601326053
 H   -3.9677057426   -1.8649554816   -0.8064357479
 H   -1.8221986987   -0.2809435766   -2.2635244400
 H   -3.5352295130    0.7091668290   -0.2957783533