18

 C   -0.1379358847    1.5496190241    0.0123601726
 C   -0.0770034295    0.0961306217   -0.0170464352
 C   -0.0307866340   -1.1075095375   -0.0501379562
 C    0.0477757844   -2.5425843446   -0.0967489594
 C   -0.2852156170   -3.3699263715    1.1326160909
 C   -1.2029525234   -3.3806133092   -0.0624347968
 O    1.0423510897   -3.0721373237   -0.9582663380
 C    2.3256879219   -2.8277050929   -0.6024806817
 N    3.2635042085   -3.2973370104   -1.3030025245
 H    0.5562905669    1.9819238748   -0.7164179957
 H   -1.1423643477    1.9106754572   -0.2344337718
 H    0.1272875121    1.9443778296    0.9993006603
 H    0.3317649163   -4.2455407000    1.2989550034
 H   -0.5945595845   -2.8403719234    2.0256746837
 H   -2.1501331394   -2.8596348772    0.0003150848
 H   -1.1922583271   -4.2579781169   -0.6982224340
 H    2.4197258267   -2.2125964844    0.2999011214
 H    4.1602330007   -3.0233032757   -0.9064009738