20

 C   -0.2384731993    1.4676956602    0.1346043408
 C   -0.0358303992   -0.0524463051    0.0588983851
 C    0.7672141007   -0.4958414003   -1.1303214252
 C    0.2416798537   -0.7272697393   -2.5181488153
 C    0.9074532816   -1.8755310978   -1.7508712734
 C    2.4052924631   -1.6099832921   -1.7731602517
 O    3.3921736139   -2.1697185216   -2.1670843761
 N    2.2371102722   -0.3572309227   -1.1712447370
 C    3.0201727137    0.8262805004   -1.4665065802
 H    0.7159527859    1.9946163282    0.2299166238
 H   -0.7398195156    1.8433649203   -0.7632144345
 H   -0.8515734289    1.7342728969    1.0005431594
 H    0.4595968926   -0.4095693281    0.9694658487
 H   -1.0132121331   -0.5476401114    0.0153775647
 H   -0.8366527236   -0.8164213389   -2.6225082587
 H    0.7406780847   -0.2944503705   -3.3803831427
 H    0.3950689229   -2.7951870830   -1.5063225697
 H    4.0078740694    0.4928996838   -1.7954454764
 H    2.5696331650    1.4331405753   -2.2643842919
 H    3.1440041404    1.4534643659   -0.5784154298