14

 N    0.3285906548    0.8859840325   -0.8058637166
 C    0.0327033280    0.0051495499    0.1710373462
 O    0.7347014261   -0.2126112354    1.1469587950
 C   -1.2685126826   -0.7600738747    0.0004110763
 C   -1.1529109440   -2.2476319409    0.2655630459
 N   -1.7916501680   -1.3910667648    1.2343879632
 C   -2.3346310977   -0.3417365532   -0.9478544369
 O   -2.2079182295    0.4564714512   -1.8501734823
 H    1.1586054872    1.4469071836   -0.7039924341
 H   -0.3483579898    1.0735172778   -1.5341485936
 H   -1.8077008031   -2.9302121722   -0.2696424698
 H   -0.1421779108   -2.5982391759    0.4528197814
 H   -1.1099046312   -1.1589549718    1.9599472592
 H   -3.3014837295   -0.8512809061   -0.7603035539