15

 O    0.0145718514   -0.0452631672    0.0026626967
 C   -0.0330546630    1.1531274777    0.0103800005
 C   -1.2627216694    2.0692196606    0.0321495917
 C   -0.7405458624    3.5337105538    0.0320229844
 C    0.7517689616    3.3632970458    0.0094953215
 C    1.9445351852    4.0208469154   -0.0045098958
 N    2.9950268875    3.1075606711   -0.0246769141
 C    2.4502836999    1.9192968323   -0.0230147505
 N    1.0779558757    2.0159729223   -0.0019371679
 H   -1.8833006212    1.8361197495   -0.8371873949
 H   -1.8584686598    1.8274273553    0.9163509264
 H   -1.1007097934    4.0901221957   -0.8384837875
 H   -1.0752802409    4.0812632244    0.9181550642
 H    2.1344061407    5.0827391892   -0.0018527212
 H    2.9618719081    0.9701738242   -0.0354450234