16

 C   -0.1009080952    1.5930867876   -0.0927633726
 C   -0.0248443661    0.0436231127   -0.0334799215
 C    0.7517914893   -0.4200126967    1.2411553867
 C    2.1840217712    0.0808180823    1.3025424139
 O    2.6598699131    0.6171715713    2.2686072482
 C   -1.3759476758   -0.5266242757   -0.0038611147
 C   -2.4880417570   -0.9743398521    0.0552858129
 C    0.6749403856   -0.4518307259   -1.2386669910
 N    1.2441952716   -0.8250158451   -2.1721997491
 H    0.9025501493    2.0247880213   -0.1311701192
 H   -0.6567042753    1.9142599080   -0.9751360810
 H   -0.6112639693    1.9605012511    0.8004296201
 H    0.2171024278   -0.0777911200    2.1297485393
 H    0.7762707592   -1.5164946620    1.2530866412
 H    2.7863296085   -0.1017937208    0.3860506930
 H   -3.4706293769   -1.3771408759    0.0939448837