21

 C   -0.0185382198    1.5045110863   -0.1027809880
 C    0.0185279847   -0.0104407509   -0.0496286262
 C   -1.1892789471   -0.7018587526   -0.6538644718
 C    1.3508322163   -0.6846309192   -0.1491985442
 C    0.6483714590   -0.6389866892    1.1960948743
 C    1.0914322535    0.0237371228    2.5147295825
 C    0.5387083531   -1.2107568674    3.2993713278
 C    0.1482130431   -1.8386873756    1.9461314562
 O   -0.3411236402   -2.8871743512    1.6211494995
 H    0.8757524882    1.9513873547    0.3410063809
 H   -0.0836952551    1.8472189307   -1.1419353341
 H   -0.8921852444    1.8979697759    0.4294476501
 H   -1.2504207281   -0.4907708972   -1.7279500166
 H   -1.1414607338   -1.7835213810   -0.5118886884
 H   -2.1166699969   -0.3440647075   -0.1922776714
 H    1.4073477666   -1.6579949041   -0.6272883547
 H    2.2397752930   -0.0698199469   -0.2548321615
 H    2.1699373502    0.1677558817    2.6125353649
 H    0.5895591224    0.9656217491    2.7477718851
 H    1.2747050641   -1.7919269010    3.8614098737
 H   -0.3153493787   -1.0097863674    3.9524334019