18

 C   -0.1977253517    1.5046945332    0.0590651268
 C    0.0012451844   -0.0070553313   -0.0520883878
 C    0.7681533127   -0.4052890026   -1.3135733568
 C    1.0534017102   -1.9107464937   -1.3209922043
 C    1.8447734697   -2.3310962772   -0.0950413153
 O    2.6642571258   -3.2107260863   -0.1015607419
 C    1.5442403908   -1.5799305811    1.2319618718
 O    2.0320493272   -1.9398206556    2.2814338796
 N    0.7163193496   -0.4957320474    1.1272166657
 H    0.7663508789    2.0221219936    0.0864336507
 H   -0.7688499329    1.8764060267   -0.7965784247
 H   -0.7523527575    1.7649050707    0.9669066769
 H   -0.9929846451   -0.4822988309   -0.0967164429
 H    0.1841842932   -0.1226511190   -2.1947090496
 H    1.7103360975    0.1555804506   -1.3545711750
 H    0.1021225233   -2.4635302463   -1.2993277159
 H    1.5945063412   -2.2380207539   -2.2122431947
 H    0.5003311629   -0.0660329395    2.0174560472