17

 C   -0.2100433738    1.5066446554   -0.1620096287
 N    0.0512676375    0.0873354997    0.0333852620
 C    1.3717162651   -0.5227939877   -0.1621380520
 C    2.5724799750    0.3715608124   -0.1097775324
 C    2.6958244671    0.9457360152    1.0872773446
 C    1.6383586496    0.4504126808    2.0636473975
 O    0.8771143753    1.4805646968    2.6881129286
 C    0.7392544342   -0.4398558917    1.1981315081
 H    0.6131616379    2.1759278955    0.1128058660
 H   -0.4589532848    1.6648463880   -1.2168015099
 H   -1.0787840397    1.7786223286    0.4429679194
 H    1.3847866445   -1.4247548883   -0.7674850460
 H    3.2089875959    0.5539205646   -0.9685180466
 H    3.4296893240    1.6963387948    1.3643021121
 H    2.1068845294   -0.1817911186    2.8367814148
 H    1.4720512514    1.9958472029    3.2422134828
 H    0.2567462815   -1.2851472984    1.6797879698