15

 C   -0.0043573826    1.4979727682    0.0219425901
 C   -0.0650839279    0.0119904631   -0.0705427995
 C    0.5107756796   -1.0047450189   -1.0960987768
 C    0.8191473346   -1.9159777716    0.0803637987
 N    0.2675945425   -0.9062414715    1.0814041075
 C   -1.0744233768   -0.9836111663    0.3900413998
 C   -0.5108235542   -2.0312571010   -0.6236804782
 O   -1.0800755421   -3.0140521416   -1.3815052955
 H    1.0314125446    1.8530513863   -0.0167651734
 H   -0.5582982798    1.9677651188   -0.7983260100
 H   -0.4420165820    1.8306250564    0.9683859375
 H    0.9804346848   -0.9132320366   -2.0650722448
 H    1.6320801689   -2.6049761016    0.2734435421
 H   -2.0083747947   -0.8710806997    0.9304398461
 H   -1.2634042550   -3.7728773640   -0.8146718934