23

 C   -0.1661053326    1.5361741280    0.0278413997
 C   -0.0177140417    0.0375616009    0.0076676161
 C   -0.0553218234   -0.6533595265   -1.1350167492
 C    0.0896375703   -2.1503381054   -1.2648008076
 C    1.4171554410   -2.7186344404   -0.7238352570
 C    1.5141340542   -2.7730375332    0.8048739435
 O    2.7306542700   -3.3959277441    1.2107091771
 C    1.4952384847   -1.4156605391    1.5075534708
 C    0.1795414252   -0.6276335572    1.3575395186
 H    0.7146539027    2.0151880212    0.4760963439
 H   -0.3027746955    1.9470816108   -0.9761356562
 H   -1.0254021075    1.8393311952    0.6407482213
 H   -0.1953846447   -0.1026328252   -2.0630644775
 H   -0.7422243530   -2.6603150206   -0.7551881111
 H   -0.0003036907   -2.4237898199   -2.3206569051
 H    1.5331039673   -3.7460108140   -1.0989449615
 H    2.2621465623   -2.1407660316   -1.1159112016
 H    0.6530253291   -3.3578765732    1.1781794242
 H    2.8027143854   -4.2358828867    0.7459990433
 H    1.6808106881   -1.6090749252    2.5697848973
 H    2.3371643512   -0.8145668244    1.1444864477
 H    0.1475669481    0.1390248380    2.1383649735
 H   -0.6642252202   -1.3010899274    1.5684252899