16

 C   -0.0016293654    1.5150642204    0.1078447015
 C    0.0130587573    0.0278987946    0.0286104196
 C   -0.0020216666   -0.7357203160   -1.0850437119
 N    0.0203295213   -2.1110797880   -0.7510303597
 C    0.0512324995   -2.3087312900    0.6142056503
 O    0.0749693940   -3.3745896033    1.1829139436
 C    0.0485170071   -0.8944562619    1.2199323662
 C   -0.0351536898   -0.3353514169   -2.4396860131
 C   -0.0631375877   -0.0214514852   -3.6023868523
 H    0.8857018552    1.8966609702    0.6294292773
 H   -0.0287574076    1.9615270708   -0.8892106400
 H   -0.8730627112    1.8771678477    0.6686311998
 H    0.0141449693   -2.8628650500   -1.4201910146
 H    0.9386554264   -0.7598957575    1.8466115426
 H   -0.8169882812   -0.7792417432    1.8838619445
 H   -0.0874868105    0.2659453084   -4.6246409040