15

 C   -0.1753013790    1.4000107135    0.1578312870
 C    0.0083874414   -0.0662680386   -0.0316197754
 N   -0.1747594193   -0.7216392706   -1.1028808578
 C    0.1190028906   -2.1233022931   -0.8035580996
 C    0.5270354999   -2.1339281336    0.7094309226
 O    0.4187113407   -0.7357741442    1.0872675236
 C   -0.3180000243   -2.9596773260    1.5578410748
 C   -1.0156850067   -3.6696044400    2.2307158228
 H    0.7623030799    1.8599340495    0.4851444782
 H   -0.4995100425    1.8523358221   -0.7785602845
 H   -0.9200061324    1.5889672919    0.9371693803
 H   -0.7600493464   -2.7473378209   -0.9880232635
 H    0.9292426426   -2.4895340964   -1.4417540042
 H    1.5753707354   -2.4203260606    0.8432944094
 H   -1.6305983099   -4.2922323131    2.8327898163