16

 C   -0.0530101222    1.4328896355    0.0205723177
 C    1.4132266680    1.8652433599   -0.0295562976
 N    2.1903327204    1.4667818261    1.1561420917
 C    2.2779061292    0.6448773883   -0.0838281409
 C    1.3436366714   -0.4996073922   -0.0585157558
 C    1.2361976363   -1.8756147258   -0.0451204532
 C   -0.1574584850   -2.1034563878    0.0492568690
 N   -0.8627183878   -0.9677972432    0.0937362409
 N    0.0766140230   -0.0185110380    0.0158752259
 H   -0.5590318685    1.7765170352    0.9269723257
 H   -0.6127168617    1.7779462180   -0.8552549300
 H    1.6714037937    2.7746305308   -0.5596546401
 H    3.0179656063    2.0568879258    1.2213757964
 H    3.2065498941    0.6112130495   -0.6401576965
 H    2.0277707220   -2.6055281383   -0.0828158072
 H   -0.6748989392   -3.0512076036    0.0856915540