19

 O    0.0443786167   -0.0433981358   -0.0932461151
 C   -0.0033762397    1.1706963903    0.0093127204
 N   -1.1931749562    1.8646840257    0.0692967768
 C   -1.3180043296    3.3089660960   -0.0329642138
 C   -0.1092347707    3.9670386858    0.6369934741
 C    1.1585530655    3.3799630782    0.0546129775
 C    1.8158409244    4.0471084602   -1.1378527367
 C    2.4784067646    4.0674747816    0.2270046772
 N    1.1314864029    1.9449823256    0.1379327500
 H   -1.9926828706    1.2866294744   -0.1324172467
 H   -1.3806397546    3.6404095411   -1.0814218425
 H   -2.2442020868    3.6192505024    0.4621284659
 H   -0.1365287331    5.0483824037    0.4793326175
 H   -0.1401928920    3.7768207794    1.7158662715
 H    2.2467331639    3.4034093052   -1.8967168735
 H    1.3926871320    4.9713457182   -1.5184474003
 H    2.5032315333    5.0009275612    0.7793121615
 H    3.3568696842    3.4465362974    0.3732623593
 H    1.9866605859    1.4216671694    0.0403901671