18

 O   -0.1055453016    1.4265250636    0.0104378096
 C    0.0108575937    0.0127123495    0.0020679636
 C   -1.3980634574   -0.5661721206    0.0122061682
 C   -1.4048292761   -2.0873650346    0.0042780207
 O   -2.7489356173   -2.5257412135    0.0145673382
 C   -2.8554291522   -3.9344341401    0.0082478073
 C   -4.2575435064   -4.3308249973    0.0191247456
 C   -5.4044218161   -4.6860854371    0.0281394252
 H    0.7798786682    1.8013303617    0.0042858628
 H    0.5539540542   -0.3370199459   -0.8917297089
 H    0.5704772683   -0.3461607443    0.8819385820
 H   -1.9285965425   -0.2058680937    0.8996457847
 H   -1.9450478257   -0.1966101976   -0.8613311513
 H   -0.8844895553   -2.4751269024   -0.8894544155
 H   -0.8678724435   -2.4844443384    0.8839800916
 H   -2.3585670221   -4.3563357259   -0.8829436030
 H   -2.3421496545   -4.3655246730    0.8856398223
 H   -6.4211830438   -4.9922051206    0.0369493569