15

 O   -0.2764664690    1.4737512588   -0.3234873421
 C   -0.1068523487    0.1027650021   -0.1642036479
 C   -1.3081847489   -0.7509234963    0.0965610859
 C   -2.5045021231   -0.2654190030   -0.7399383737
 N   -1.6790737205   -0.4211407955   -1.9528531467
 C   -1.7029081095    0.3649783459   -3.0638350580
 O   -2.6335666212    1.0647378750   -3.3968354851
 C   -0.5183901249   -0.8982055916   -1.2180646002
 H    0.3794329696    1.7968591136   -0.9506706431
 H    0.7764414622   -0.2010925022    0.4003281471
 H   -1.3746226620   -1.4339339081    0.9316785191
 H   -3.3538897176   -0.9530857077   -0.7295834497
 H   -2.8424797139    0.7583726987   -0.5669120926
 H   -0.7750850827    0.2491182950   -3.6647133009
 H    0.1041265003   -1.7024513947   -1.5930846821