18

 C   -0.0355290443    1.6356824425    0.1901033171
 C   -0.0116934673    0.1052554937    0.0195698624
 C   -1.3739335202   -0.5074384659   -0.0769828033
 C   -2.1871314139   -0.7939367972   -1.1637947801
 C   -1.8959107522   -0.5745563116   -2.6173823117
 C   -3.3614931288   -1.3319389435   -0.5864884495
 N   -3.3009521127   -1.3823112444    0.7402986996
 N   -2.0877864221   -0.8714352494    1.0233441988
 H    0.9809683552    2.0359318729    0.2564053388
 H   -0.5372007148    2.1140609303   -0.6560239379
 H   -0.5738174267    1.9217994518    1.0990091333
 H    0.5526616946   -0.1501564922   -0.8838033698
 H    0.5355730817   -0.3469088886    0.8565685713
 H   -2.3805062129   -1.3373757265   -3.2347122788
 H   -2.2533374137    0.4003649839   -2.9715786253
 H   -0.8219063461   -0.6185489411   -2.8261523378
 H   -4.2451357556   -1.6915292770   -1.0954720447
 H   -1.7919071102   -0.8244052575    1.9839490677