21

 C    0.8248670379    1.2549595949    0.1024892861
 C   -0.0526659770    0.0047792137    0.0205658174
 C    0.1608542923   -0.8201254664   -1.2636029543
 C    1.3014088259   -1.7920890746   -0.8824456479
 C    1.2991228115   -1.7403879694    0.6454085002
 C    1.6484994114   -2.8989211537    1.5338397737
 C    2.5803707698   -1.7027045673    1.4296749060
 O    3.7723095551   -1.8021791651    0.7060398358
 O    0.2398076281   -0.9186195857    1.0763306109
 H    1.8804313331    1.0123441607   -0.0571862511
 H    0.5240640076    1.9832071260   -0.6582393818
 H    0.7266468483    1.7234306144    1.0858304359
 H   -1.1017348919    0.2882006681    0.1526709035
 H   -0.7509289054   -1.3765323733   -1.4974361567
 H    0.4032961292   -0.1963446461   -2.1275515161
 H    1.1151355288   -2.8005895532   -1.2597266194
 H    2.2711074045   -1.4730726590   -1.2708722308
 H    1.0849850549   -3.0201646385    2.4527542151
 H    1.9574929781   -3.8193057977    1.0478864012
 H    2.6015449787   -1.0252794054    2.2829731020
 H    4.3712494090   -2.3811238125    1.1892679705