21

 C   -0.1185261434    1.5230392206   -0.0906049583
 C    0.0407416026    0.0080359134   -0.0030937439
 C    0.9916570890   -0.5663541224   -1.0769395183
 C    1.2029017326   -2.0366138691   -0.6631340133
 C    1.9377043626   -1.2869831313    0.4614472148
 O    2.3104662527   -0.2556025628   -0.5055950370
 C    0.7963313054   -0.5772167724    1.2499324318
 C    1.3386890486    0.4324567434    2.2536777672
 O   -0.0827481055   -1.5021845272    1.8882365900
 H    0.8542866962    2.0207827380   -0.1305395237
 H   -0.6707913464    1.7924485538   -0.9975853437
 H   -0.6757442153    1.9239530657    0.7613962657
 H   -0.9418046995   -0.4712528767   -0.0519020871
 H    0.8681655915   -0.2413359974   -2.1108050441
 H    0.3380994367   -2.6491043828   -0.4058085312
 H    1.8956917665   -2.5540019806   -1.3273252767
 H    2.7773034707   -1.6983847440    1.0258793163
 H    2.0546396681    1.1086624418    1.7816385473
 H    0.5334243189    1.0214857820    2.7009882009
 H    1.8618370924   -0.0917566110    3.0643627754
 H    0.3512516958   -1.8226390209    2.6865163880