20

 C   -0.0575729794    1.7088457119    0.0969882011
 C    0.0400739685    0.1883462271    0.0200627728
 N    1.0448626622   -0.2901883470   -0.9962353159
 C    1.8096310038   -1.0845285448    0.0015268926
 C    0.9545422235   -0.4412512991    1.1022416350
 O    0.9859285172   -0.4067590772    2.2953285403
 C   -1.2848146114   -0.5518666208   -0.0727573783
 C   -2.5902171781   -0.0060413510    0.4449220813
 C   -2.3722622842   -0.1357203246   -1.0406981923
 H    0.9450903359    2.1410756440    0.0631039278
 H   -0.6221434676    2.1201801550   -0.7456858669
 H   -0.5369775666    2.0199876004    1.0293574859
 H    0.6202306020   -0.8553365074   -1.7234884544
 H    1.6835028475   -2.1750463807   -0.0472285308
 H    2.8820096573   -0.8629632386    0.0380309397
 H   -1.1676763606   -1.6282957956    0.0356288782
 H   -3.2677249143   -0.6967041318    0.9339823559
 H   -2.6002696345    0.9931186170    0.8636627916
 H   -2.2355700937    0.7759810847   -1.6113134690
 H   -2.8971691474   -0.9179790214   -1.5776951046