18

 C   -0.1507291305    1.5957630124    0.0498475887
 C    0.0117459801    0.0695730900   -0.0239753522
 C    0.7662208796   -0.4598376644   -1.2155803056
 C    1.8070460749   -1.2369056333   -0.8962943228
 C    2.7489715829   -1.9123048868   -1.8412192597
 C    1.9462255918   -1.3827129670    0.6000291672
 C    0.8368081901   -0.4800913073    1.1570663437
 O    0.6509835578   -0.2200464002    2.3170976578
 H    0.8179922877    2.0973843940   -0.0405663356
 H   -0.7969539569    1.9594697706   -0.7545850056
 H   -0.5939927797    1.8766349021    1.0088829064
 H   -0.9916000661   -0.3798839920    0.0422050920
 H    0.4770922748   -0.2212072557   -2.2344109963
 H    2.4996583951   -1.6914069131   -2.8827637851
 H    3.7845323154   -1.5957668495   -1.6623513801
 H    2.7312115792   -3.0017593357   -1.7091312309
 H    1.7993591107   -2.4146873107    0.9487634220
 H    2.9245965230   -1.0713902034    0.9890804963