23

 C   -0.0381359694    1.6975687566    0.1728907974
 C    0.0852576440    0.1705296948    0.0884318906
 C   -1.2803418156   -0.5130186119    0.0162079289
 C   -2.0754682503   -0.4859340729   -1.3729072867
 C   -1.8259511106   -2.0066273061   -1.4416250792
 C   -2.2648101880   -3.5050660058   -1.3977121061
 C   -0.9006155236   -3.3878269737   -0.5740832890
 C   -0.3779309939   -2.5263918952   -1.7354586076
 C   -1.5257753034   -2.0907148563    0.0553952268
 H    0.9466371087    2.1725650696    0.2246294475
 H   -0.5567984115    2.1029280039   -0.7027908032
 H   -0.6031269406    2.0008553619    1.0613239998
 H    0.7063295984   -0.0827909363   -0.7758934733
 H    0.6191079838   -0.2027974452    0.9715979519
 H   -1.8918535710   -0.0799288831    0.8149495998
 H   -3.1228361417   -0.2048773183   -1.2323365951
 H   -1.6521473337    0.1169046608   -2.1828680645
 H   -3.1649792097   -3.7287576015   -0.8190015395
 H   -2.2175033200   -4.0994908378   -2.3166196206
 H   -0.3865989370   -4.2200434120   -0.0830918185
 H   -0.2400467526   -3.0260070615   -2.6991228367
 H    0.4596259422   -1.8669981674   -1.5187323675
 H   -2.3861402944   -2.2979559824    0.6995505348