21

 C   -0.0120947352    1.6285694636    0.0296328683
 C    0.1070622589    0.1133408259    0.0265490791
 C    1.2058573654   -0.5323267177   -0.8927353571
 C    1.5292095782   -1.5306414066    0.2657156986
 C    0.7474561697   -0.6218192277    1.2184010366
 C    1.3098555907    0.0215188206    2.4535424462
 C    0.1561173763   -0.9530296870    2.5524012684
 C    0.7256389764   -1.1260424073   -2.1836816310
 O    1.1401559830   -0.8502515586   -3.2808299298
 H    0.9507268883    2.1003452511    0.2501431600
 H   -0.3524236389    1.9952934356   -0.9445024487
 H   -0.7341242229    1.9679432775    0.7810192725
 H   -0.8687927338   -0.3360766358   -0.2026724319
 H    2.0263430280    0.1601387203   -1.0929437467
 H    1.0444662697   -2.5022100552    0.1144107514
 H    2.5889462361   -1.6970871971    0.4728349362
 H    2.2868561829   -0.3035469823    2.7974943552
 H    1.1039427034    1.0721221530    2.6316324369
 H   -0.8253604278   -0.5545963390    2.7916881425
 H    0.3486425793   -1.9373706634    2.9679777102
 H   -0.0922975379   -1.8772831699   -2.0536383369