21

 C    0.1090168772    1.1385933965    0.6758557855
 C   -0.0813864394    0.3812159777   -0.6431540027
 C   -1.4037362471   -0.3670342809   -0.6704242690
 O   -1.6975891478   -1.0479469987   -1.9365674429
 C   -2.1139566193   -2.2334445404   -1.2235501192
 C   -3.3652196997   -2.9065829736   -1.6824089612
 C   -0.9001608574   -2.8183535684   -0.5937816046
 O    0.3552415561   -2.7431472650   -1.1960379296
 C   -1.6075007257   -1.6632402377    0.1077172036
 H    1.0562497659    1.6849038780    0.6794608146
 H   -0.6950083316    1.8646978981    0.8407708376
 H    0.1191513562    0.4513450429    1.5284607915
 H   -0.0711577261    1.0859651978   -1.4843838059
 H    0.7411596671   -0.3226186685   -0.7907088320
 H   -2.2275705111    0.3327053872   -0.4704067344
 H   -3.2484620118   -3.2759200265   -2.7077170763
 H   -3.5954428311   -3.7614073409   -1.0398782448
 H   -4.2151243386   -2.2168626481   -1.6651264822
 H   -1.0474993077   -3.7719487983   -0.0931986702
 H    0.2364831736   -2.1759174179   -1.9705283156
 H   -2.0163955316   -1.7444569332    1.1068859679