22

 C   -0.1939120878    1.5471467901   -0.3264784078
 C   -0.0006788629    0.1097556496    0.1721207822
 C   -1.3085834358   -0.6496541412    0.2558470121
 C   -1.9008669258   -1.3579696386   -0.9518657824
 C   -1.4249249528   -2.1474254285    0.2491590527
 C   -0.2144864861   -3.0513316659    0.1554655671
 O   -2.4251431813   -2.6095484561    1.1242449483
 C   -3.1396456637   -3.7395795437    0.6668698678
 H    0.7603099749    2.0804883313   -0.3805306282
 H   -0.6457826521    1.5591532840   -1.3238653405
 H   -0.8542644508    2.1107921462    0.3416335708
 H    0.6959879326   -0.4108786364   -0.4951975250
 H    0.4779357497    0.1269816084    1.1601200370
 H   -2.0505110596   -0.1839865995    0.9004667474
 H   -2.9698652343   -1.2794761404   -1.1158896840
 H   -1.3055505515   -1.4002225079   -1.8595062564
 H    0.5629141094   -2.6143366152   -0.4749542694
 H    0.2074271977   -3.2267740323    1.1507150987
 H   -0.4750369312   -4.0226071573   -0.2780908460
 H   -2.5177408795   -4.6452028240    0.6303579292
 H   -3.9524711436   -3.9084648645    1.3777287471
 H   -3.5681941253   -3.5742106282   -0.3321721808