16

 O   -0.4829198102    0.5043578913    0.6390504697
 C    0.0822910093    0.9995906539   -0.3009783194
 C    1.3666142975    1.7912045827   -0.2272472162
 C    1.2528576937    3.1462458200   -0.9551278994
 C    2.5749531343    3.8325194931   -1.0789238797
 N    2.8030781576    5.0419304121   -0.5880297669
 N    4.0986627986    5.2502879502   -0.9286933288
 C    4.5847571663    4.1833869078   -1.5909569206
 N    3.6497640062    3.2628150877   -1.7066281460
 H   -0.3266525712    0.8930330451   -1.3348094883
 H    1.6491665670    1.9167066438    0.8212546217
 H    2.1491121367    1.2020816878   -0.7251664122
 H    0.8449323837    2.9783476392   -1.9602332759
 H    0.5628042528    3.8111343097   -0.4291311315
 H    4.5521201712    6.1126828684   -0.6756082167
 H    5.5976503765    4.1247287873   -1.9604270097