21

 C   -0.8447715439    1.0764638117    0.0558507340
 C    0.1692873583   -0.0666086269   -0.0098638623
 C    0.9565642536   -0.0775968988   -1.3438912460
 C    2.2388173115   -0.9331036924   -1.2270971746
 C    3.1997825394   -0.2641307891   -0.1952027538
 C    2.3709351235   -0.9405470487    0.9411328397
 C    1.1127068320   -0.0863951328    1.2186000681
 C    2.0350687723   -1.9989022473   -0.1301885170
 O    1.8696565791   -3.1840808777   -0.1241772465
 H   -0.3403999657    2.0495908786    0.0284606758
 H   -1.5418030432    1.0388586714   -0.7880259821
 H   -1.4342046960    1.0327944934    0.9778359990
 H   -0.3889424264   -1.0122845020    0.0209046367
 H    0.3095101908   -0.4650604179   -2.1381329699
 H    1.2402782380    0.9413778714   -1.6371034773
 H    2.6297952424   -1.2517308914   -2.1947016666
 H    4.2177281079   -0.6545216221   -0.2585703541
 H    3.2193184537    0.8285006038   -0.1926434327
 H    2.8763722803   -1.2656248541    1.8519036315
 H    1.4303465028    0.9306681051    1.4821608500
 H    0.5667119696   -0.4795532639    2.0828590982