18

 O   -0.2799554200    1.3832073260   -0.2326599615
 C   -0.1321492147   -0.0018118393   -0.1795592373
 C   -0.3300188347   -0.7098961299    1.1531312739
 C   -1.3753194843   -0.7855475269    0.0702233785
 N   -2.7390757359   -0.2250626711    0.1336967280
 C   -3.2884783333   -1.4763625714   -0.4556358573
 C   -3.3281467632   -1.4267157242   -1.9945547880
 O   -1.9592605299   -1.9069381289   -2.0850227037
 C   -1.8604686004   -2.0400366697   -0.6565648525
 H    0.5215726391    1.7794639541    0.1251584931
 H    0.5883019893   -0.4257089444   -0.8798035636
 H    0.2546158935   -1.5958200341    1.3839405713
 H   -0.5513331876   -0.0676584512    2.0008422415
 H   -3.0541227589   -0.0662906671    1.0843442176
 H   -4.1032330615   -1.9604019746    0.0822574846
 H   -4.0209561912   -2.1326031019   -2.4696101959
 H   -3.4523117896   -0.4256441177   -2.4190729642
 H   -1.4704646768   -3.0121925674   -0.3446012344