19

 C    0.0313622297    1.5650343290   -0.0574452570
 C    0.0960224797    0.0363663238   -0.0261476512
 C    0.6905872452   -0.5298411270    1.2595489116
 C    0.6791961452   -2.0524185831    1.3186285463
 O    2.0716428017   -0.0529674928    1.3030094215
 C    2.6576035648    0.0590543301    2.4941007109
 N    2.1151965423   -0.2320251973    3.6043281749
 C    4.0141115187    0.5697234297    2.3570842251
 N    5.0972917409    0.9709404254    2.3189754970
 H    1.0294037823    2.0015934680    0.0350679379
 H   -0.4048950765    1.9172556129   -0.9964785356
 H   -0.5836486046    1.9525661636    0.7622519925
 H   -0.9107055474   -0.3848740792   -0.1320774296
 H    0.6817650790   -0.3363795203   -0.8752031146
 H    0.1794803336   -0.1176452401    2.1351026037
 H    1.2299041583   -2.4754201491    0.4728849039
 H    1.1253412150   -2.4079651090    2.2493559918
 H   -0.3523729399   -2.4146237320    1.2744041204
 H    2.7439525419   -0.0535612625    4.3834702105