14

 O   -0.1021930047    1.3976527525    0.0807695344
 C    0.0109661146    0.0050884183    0.0509516582
 C    0.9370680089   -0.5363824752    1.1589974961
 C    2.2528338884    0.0958760409    1.0981115624
 N    3.2693501432    0.6414129163    1.0357190197
 C   -1.3558640472   -0.6931851793   -0.0679904442
 O   -0.9718478086   -1.2567593238   -1.3634892623
 C    0.2415377851   -0.6192755319   -1.3525537472
 O    1.0816616898   -0.6098001706   -2.1896457907
 H    0.7632244512    1.7814890942   -0.1138638800
 H    0.4864247297   -0.3115302177    2.1321123790
 H    1.0452420877   -1.6232732329    1.0798026970
 H   -1.5754346964   -1.4843458543    0.6512828406
 H   -2.1920234017   -0.0009885766   -0.1703978931