15

 C    0.0653891015    1.5880331241    0.0611625267
 O    1.4882506764    1.9700482474    0.0569006075
 C    1.9256238688    0.8411208626    0.7113655332
 N    1.9869412999    0.7718061326    1.9777601252
 C    1.4055613382   -0.5446933334    2.3300643301
 C    0.6776859833   -0.9874257762    1.0507805617
 C    0.0301320546    0.0253331824    0.0266761616
 C    1.4576256323   -0.3889231112   -0.0628742322
 H   -0.3989772914    2.0256064966    0.9497395955
 H   -0.3839807548    1.9978532685   -0.8470161432
 H    2.1504289003   -1.2950347966    2.6292201079
 H    0.7472327645   -0.3756474480    3.1890924178
 H    0.2804917734   -1.9958572123    0.9861340428
 H   -0.7299935760   -0.4206473566   -0.6065188322
 H    1.9919525088   -0.8441640300   -0.8862071124