20

 C    0.0466428944    1.4874196588    0.1084917869
 C   -0.0030359557   -0.0136199403    0.0610536226
 C    1.1688774372   -0.8945759323   -0.2966892474
 C    0.5611374914   -1.0454617414    1.0778527955
 C    1.3057606275   -0.7840181590    2.3539401176
 O    2.1914139263   -1.8400890122    2.7214658134
 C   -0.7331404275   -1.8231141174    0.9603209577
 N   -1.8368166940   -0.9104448404    1.3640613687
 C   -1.2729888048   -0.8329262090   -0.0112401981
 H    1.0267057885    1.8473707862    0.4375865981
 H   -0.1429124881    1.9198121186   -0.8814574983
 H   -0.7087378381    1.8758528949    0.7987750217
 H    1.0657295982   -1.6866042957   -1.0339679569
 H    2.1345014798   -0.3971762987   -0.3202069351
 H    1.9419646806    0.1006115012    2.2434509937
 H    0.5854054305   -0.5719883591    3.1578912233
 H    1.6557195692   -2.6221689721    2.8870815693
 H   -0.8725764709   -2.8986531271    0.9686902565
 H   -2.7053859659   -1.4452458911    1.2991354633
 H   -1.9044500486   -1.0065083339   -0.8755513924