15

 N   -0.0410731806   -1.2163347170   -0.2481509157
 C   -0.0525582728   -0.0662548595   -0.1428161724
 C   -0.0208501000    1.3887200513    0.0297066381
 C   -0.5884163500    1.8432967541    1.4293881700
 C    0.6084821030    2.5748627700    2.0732223006
 O    1.4186445908    3.0008791965    0.9882567600
 C    1.4655053519    1.9235328974    0.0955511663
 C   -0.7508336378    2.0365789512   -1.0663083517
 N   -1.3142009114    2.5745295532   -1.9190175035
 H   -1.4336554366    2.5142682501    1.2759234978
 H   -0.9277049698    0.9871028225    2.0128636379
 H    0.3177365515    3.4573755979    2.6451355601
 H    1.1711985790    1.8944067869    2.7295796228
 H    2.1060148924    1.1085804836    0.4639296114
 H    1.8298530703    2.2705287518   -0.8714539114