21

 C   -0.4854527198    1.3770860078    0.1433447693
 C   -0.0753636960   -0.0901071773    0.0071935758
 C    0.6996795891   -0.5833183814    1.2357928311
 C    1.2757529970   -1.9716253426    1.0531877852
 O    2.3936981182   -2.2889222908    1.3727683338
 O   -1.1952535999   -0.9661429577   -0.1188207928
 C   -1.8273743560   -0.9519014007   -1.3635295542
 C   -3.1577994252   -1.6267519765   -1.4327946426
 C   -3.0683003145   -0.1197218403   -1.5737448212
 H    0.4005016907    2.0106101042    0.2514601608
 H   -1.0373311286    1.7133698320   -0.7373692107
 H   -1.1200833462    1.5153866711    1.0246366470
 H    0.5600262203   -0.1985672137   -0.8880871058
 H    1.5107234807    0.1010335064    1.4976627214
 H   -0.0048993049   -0.6194366581    2.0787467346
 H    0.5762479167   -2.7017113867    0.5932254457
 H   -1.1452740880   -1.0711588727   -2.2061671431
 H   -3.3903140187   -2.2258669861   -2.3056304286
 H   -3.5500403294   -2.0114427914   -0.4983032699
 H   -3.4104636698    0.4704940339   -0.7316892808
 H   -3.2389056757    0.3286928306   -2.5466903051