20

 O   -0.4595666283    0.6475934225    0.7580300724
 C    0.2039003763    0.9699676259   -0.1960935726
 C    1.4038274796    1.8575818775   -0.1343924128
 C    1.9543996998    2.1404931910    1.2505209669
 C    2.9529820200    3.3046352846    1.2932868303
 C    2.3924865428    4.5280366289    0.5630045340
 C    2.1729903478    4.2462441190   -0.9319380207
 C    1.5132350729    2.9003467439   -1.2222228165
 N    2.2946625978    1.6667122514   -1.3033626622
 H   -0.0370995545    0.6270667110   -1.2269680123
 H    1.0990216439    2.3621662708    1.8983033183
 H    2.4051723685    1.2256344389    1.6534904487
 H    3.1720897540    3.5478503147    2.3378859290
 H    3.9128120630    3.0111917920    0.8453040154
 H    1.4364155422    4.8059854987    1.0251930812
 H    3.0585041618    5.3894477106    0.6787239824
 H    1.5590940101    5.0388292276   -1.3713965380
 H    3.1343748674    4.2828995971   -1.4619661811
 H    0.7175452119    2.9313553189   -1.9643833976
 H    3.2581999830    1.8414361949   -1.0240813047