15

 C   -0.0360204938    1.4086727477    0.0646053005
 N   -0.1720458145   -0.0396026217   -0.0136151473
 C    0.0975500682   -0.8080929578    1.1946707982
 C   -0.0289133610   -0.6056844937   -1.2297552742
 N    0.1357883524    0.0146627411   -2.3576278934
 O    0.1181658114   -1.0523237040   -3.3212856325
 C   -0.0106871721   -2.2310125288   -2.6916163113
 O   -0.0422190111   -3.3176683179   -3.1651589513
 O   -0.1065441578   -1.9548783587   -1.3295160614
 H    1.0151605849    1.7211867437    0.1246310362
 H   -0.4822009578    1.8616547709   -0.8217208188
 H   -0.5619434570    1.7614615486    0.9552212787
 H   -0.5363751049   -0.4300575049    2.0014588135
 H   -0.1373796326   -1.8583717653    1.0280755219
 H    1.1476278456   -0.7237449891    1.5080737113