20

 C   -0.2112375155    1.3870992012    0.7219121164
 O   -0.2123604130    0.0073415685    0.9975772410
 C    0.8682997734   -0.6753290484    0.3985286468
 C    0.7609486206   -2.1672940346    0.7224906370
 C   -0.5131181081   -2.7774068618    0.1237487464
 O    1.9221454900   -2.7513681395    0.1385860194
 C    0.8153946146   -2.3849897866    2.2417136634
 O    0.9620433644   -3.7914593877    2.4409594430
 H   -0.2857947167    1.5863790305   -0.3587200744
 H   -1.0792638415    1.8228711212    1.2227363762
 H    0.7005145793    1.8782142809    1.0973534750
 H    0.8614751558   -0.5437036412   -0.6956857622
 H    1.8319406104   -0.2916018555    0.7706109102
 H   -0.4547672095   -2.7454575119   -0.9677457419
 H   -0.6191612171   -3.8190212401    0.4375911952
 H   -1.3959705513   -2.2190496167    0.4463704662
 H    2.0347133432   -3.5997176554    0.5860086149
 H    1.6803466819   -1.8428583753    2.6497890126
 H   -0.0954108975   -2.0023741464    2.7178357390
 H    1.1816424767   -3.9496592712    3.3626512258