21

 C   -0.0077442260    1.6172256643   -0.0506072546
 C    0.0240469655    0.0882514369    0.0053880504
 C    0.7833316101   -0.5630398865   -1.2008570552
 C    1.2617218556   -1.9661182932   -0.7210710242
 C    1.4718951668   -1.7467261586    0.7568551131
 C    2.2185783942   -0.5800342242    1.3151863966
 C    0.7007695296   -0.5366542441    1.2151904138
 C    0.1081072992   -1.5012554348    2.2487032148
 O    0.9561262799   -2.5992523126    1.7939971857
 H    1.0053294892    2.0309363592    0.0029790753
 H   -0.4651144973    1.9718304727   -0.9807301670
 H   -0.5807512430    2.0329221566    0.7841762906
 H   -1.0105540595   -0.2815389851   -0.0081424948
 H    0.1596381509   -0.6198854798   -2.0977242160
 H    1.6482871469    0.0564376159   -1.4661902247
 H    0.4670796373   -2.7098766074   -0.8440058779
 H    2.1377631529   -2.3200469437   -1.2737890328
 H    2.6786817953   -0.6818363441    2.2927300378
 H    2.7678064664    0.0427174046    0.6177264432
 H    0.2634364691   -1.2797490515    3.3114322115
 H   -0.9502491831   -1.7282230345    2.0715660143