21

 C    0.1594714641    1.3262142425   -0.1108104397
 O    0.3412140738   -0.0657689767   -0.0523652894
 C    0.5156308975   -0.5372431860    1.2729078254
 C    0.6142746483   -2.0414903285    1.2198026040
 C    1.8404260340   -2.8273356670    0.8592359121
 C    3.1102471597   -2.1808730466    1.4214978557
 C    2.5151630069   -2.3592570149    2.8633657614
 O    2.3388601854   -1.2302959298    3.6970354005
 C    1.2309368230   -2.9251840366    2.2734123208
 H    1.0235487601    1.8727863502    0.3015747025
 H    0.0404458934    1.5999423742   -1.1624992229
 H   -0.7379444430    1.6481232230    0.4428062168
 H    1.4015257638   -0.0852020974    1.7357849810
 H   -0.3475001610   -0.2473156590    1.8967437366
 H   -0.2867987563   -2.4905370051    0.8059734698
 H    1.8237828127   -3.5748103147    0.0761848271
 H    4.0131269157   -2.7756421785    1.2657622658
 H    3.3058423246   -1.1523709134    1.1047153797
 H    3.0624002036   -3.1474237156    3.3976100230
 H    3.2006340550   -0.9723932169    4.0401000555
 H    0.6636197588   -3.7317833929    2.7226131242