15

 O   -0.1123149841    1.3194135977   -0.0620577926
 C    0.0183214041   -0.0486313684   -0.0391933813
 C    0.8520846801   -0.9101061528   -0.9915794992
 C   -0.0059739255   -2.1027942069   -0.4658031891
 O   -0.2110459791   -3.2500113950   -1.1848192528
 C   -1.0886576813   -1.0284337333    0.0482517475
 C   -0.1577159988   -0.8466226193    1.2752704644
 C    0.4038809915   -2.2132124927    1.0229067554
 O    0.8020666187   -3.1092054941    1.7089546844
 H    0.6690567281    1.7096139563    0.3464230726
 H    0.6075261902   -0.6748412996   -2.0339295927
 H    1.9378398704   -0.9705960440   -0.8573790466
 H   -0.2989622183   -3.0286582624   -2.1180699693
 H   -2.1658080217   -0.9786470337    0.0211400955
 H   -0.3989931645   -0.3503866817    2.2047471937