21

 C    0.0587227959    1.6761142871    0.0433101559
 C   -0.0179800433    0.1663483960    0.0091000883
 C   -1.3771733280   -0.5075535790    0.3752641498
 C   -0.6467951399   -1.4653700679    1.3679250872
 C    0.6991100158   -0.8015564946    1.0022015059
 O    1.3882534968   -1.4747370538   -0.0727541487
 C    0.8255477323   -0.5696075787   -1.0647659605
 C    0.2109980766   -1.3542123770   -2.2097747023
 O    1.1980018920   -2.1662407703   -2.8220810671
 H    1.0936810715    2.0264777626   -0.0327428912
 H   -0.5043077104    2.1165232641   -0.7888560387
 H   -0.3651148518    2.0740961833    0.9716616603
 H   -2.0503944615    0.1912370131    0.8786129236
 H   -1.9330376669   -0.9747862183   -0.4400312559
 H   -0.9435927766   -1.3282549784    2.4110281444
 H   -0.6792736055   -2.5303042808    1.1283944968
 H    1.3807477048   -0.4978545387    1.8020343797
 H    1.6220856705    0.0711311183   -1.4702333811
 H   -0.6315057892   -1.9630678193   -1.8507217537
 H   -0.1679005632   -0.6725217783   -2.9798603746
 H    1.6020011898   -2.6741443993   -2.1078286180