14

 C    0.0045236068    1.4664888723    0.0402815591
 N   -0.0116302560    0.0167014840    0.0254201353
 C   -0.1071383490   -0.8276860362   -1.0878700404
 N   -0.0982790246   -2.1063053296   -0.8037808781
 C    0.0088645200   -2.1284857216    0.5738652513
 C    0.0606020917   -0.8525536169    1.0679037519
 O    0.1639546640   -0.7833539801    2.3868969122
 N    0.1844133886   -2.1582730663    2.8331479326
 C    0.0927759262   -2.9099329062    1.7564330403
 H    0.9351784761    1.8400788964    0.4769058630
 H   -0.0719755578    1.8261868163   -0.9870773138
 H   -0.8392239332    1.8584029001    0.6154476733
 H   -0.1799280864   -0.4019994510   -2.0787531902
 H    0.0924338438   -3.9821333411    1.8950315735