17

 O   -0.2544703973    1.5168823019   -0.2262628021
 C    0.0660089065    0.1500217366   -0.0189115913
 C   -1.1531272358   -0.4524732074    0.6784234299
 O   -1.0030130210   -1.8285692997    0.9534778765
 C   -1.0603967446   -2.6853446818   -0.1661501793
 C    0.2940625626   -2.8950527203   -0.8564266904
 O    0.7711622590   -3.9837512103   -1.0155293749
 O    0.9791772882   -1.8023093741   -1.2769877349
 C    0.3598791579   -0.5153623947   -1.3699689012
 H    0.5507151168    1.9915900629   -0.4547754080
 H    0.9458690586    0.0249949592    0.6290254609
 H   -1.3032014398    0.0432679166    1.6404905314
 H   -2.0438130281   -0.2670542784    0.0558468795
 H   -1.3641237343   -3.6703181744    0.1914163827
 H   -1.8064785986   -2.3368433286   -0.8989297707
 H   -0.5533512514   -0.5629098403   -1.9761206581
 H    1.0858163214    0.0934842928   -1.9157986600