18

 N    0.7809468843   -0.7858610331    0.9097393405
 C    0.3640687034    0.1921227710    0.4559842908
 C   -0.1903662137    1.4293187775   -0.1400155574
 C   -1.0975311947    2.1832106116    0.8805515517
 C   -0.3160244123    3.3390111621    1.5228774871
 C    0.1568652134    4.2986701045    0.3925590855
 C    1.3065765341    3.2833471946    0.1829419723
 C    1.1790226475    2.9310834604    1.6886467661
 O    0.8643519316    2.2220524198   -0.6698326626
 H   -0.7875158386    1.1103832600   -1.0007432026
 H   -1.9772760212    2.5757644014    0.3604983021
 H   -1.4522736328    1.4735211695    1.6334029563
 H   -0.8502482923    3.7555423091    2.3787398165
 H   -0.5091196148    4.4745701214   -0.4563119637
 H    0.5210573525    5.2510134812    0.7861053477
 H    2.2628802276    3.6081729849   -0.2280470376
 H    1.7261462583    3.6549269340    2.2967925162
 H    1.4300250277    1.9209864499    2.0166751111