19

 C   -0.0701634269    1.4968825683   -0.0062909963
 C   -0.0249675264    0.0423055656   -0.0102801868
 C    0.0328247509   -1.1605472118   -0.0018809879
 C    0.0341928069   -2.6214913391   -0.0279692723
 O   -1.2883741687   -3.1555756553    0.0688960215
 C    0.7491492459   -3.1695199698   -1.2791442458
 O    2.0932830501   -2.7390726665   -1.2280901123
 C    0.6898266152   -4.6946285564   -1.3322588328
 O    1.5038967305   -5.0744255604   -2.4418064827
 H    0.9114231091    1.9167939694    0.2391149555
 H   -0.3635788550    1.8912702781   -0.9852694924
 H   -0.7859701747    1.8716118080    0.7335479798
 H    0.5741623419   -3.0044075771    0.8472400249
 H   -1.8628084167   -2.5858899949   -0.4537603781
 H    0.2427942741   -2.7704248718   -2.1749739029
 H    2.5665416074   -3.3081551077   -1.8488039310
 H    1.0887957230   -5.1054678987   -0.3925732188
 H   -0.3452891121   -5.0339280485   -1.4510391098
 H    1.6648516656   -6.0204700914   -2.3944587417