23

 C    0.0275470856    1.4327826452    0.0370566098
 O   -0.0141771100    0.0276924272   -0.0005485258
 C    0.6485955325   -0.5122012477   -1.1228835464
 C    0.5386707091   -2.0306893411   -1.0690062973
 C    1.2176109617   -2.7017589304   -2.2669078596
 C    1.2318604977   -4.2492128908   -2.2001536028
 C   -0.1808609396   -4.8672497011   -2.2320948656
 C    2.0514324094   -4.7915347141   -3.2837179437
 C    2.7115993455   -5.2243836507   -4.1907704572
 H    1.0612462669    1.8117796311    0.0847733942
 H   -0.4586167738    1.8814882210   -0.8443424467
 H   -0.5065062318    1.7536931646    0.9349246507
 H    0.1991812765   -0.1277018414   -2.0558180235
 H    1.7087720051   -0.2027275891   -1.1289725067
 H    0.9916349327   -2.3795709177   -0.1325149420
 H   -0.5234171659   -2.2930165404   -1.0218470094
 H    0.7257503440   -2.3970636979   -3.1994928328
 H    2.2551722588   -2.3553119779   -2.3401704580
 H    1.7036574860   -4.5346767827   -1.2486940651
 H   -0.1229201843   -5.9584360147   -2.2122900100
 H   -0.7708948741   -4.5415989789   -1.3714811627
 H   -0.7079422885   -4.5735969128   -3.1453412811
 H    3.3013824365   -5.6133851899   -4.9832992183