20

 C   -0.0271501075    1.2725397849    0.2323657393
 O   -0.1080131316   -0.0429314832   -0.2691516808
 C   -1.3756754114   -0.6250046831   -0.1015214680
 C   -1.3448009763   -2.0631534549   -0.5684233968
 N   -0.9771089992   -2.5913619142    0.7961387692
 C   -1.6222931109   -1.2552692507    1.2915276591
 C   -3.0162647498   -1.8961319278    1.2054068120
 C   -2.3450044759   -2.8493597122    0.2228255768
 C   -2.7995786481   -4.2208523668   -0.1703575775
 H    0.9792025078    1.6382603559    0.0164178382
 H   -0.7598566833    1.9366813992   -0.2529241060
 H   -0.1913320024    1.3164686389    1.3193467775
 H   -2.1590621825    0.0471385327   -0.4905523002
 H   -0.8774570074   -2.4454193057   -1.4690125534
 H   -1.2484995408   -0.7860877644    2.1994599330
 H   -3.2834834103   -2.4206225679    2.1275695116
 H   -3.8585613808   -1.2768322683    0.8758093590
 H   -3.6627258860   -4.1716958825   -0.8438574026
 H   -1.9978682306   -4.7609140939   -0.6830562300
 H   -3.0880852628   -4.8024092260    0.7115903996