15

 N   -0.0637025019    1.3822798513    0.0434916146
 C    0.0562354813    0.0193619770   -0.1050822129
 O    1.1088419705   -0.5527408814   -0.2699123699
 N   -1.1715286504   -0.6742714463   -0.0874057388
 C   -2.4529163999   -0.1570291603   -0.1532809577
 C   -3.3385245572   -1.1987429372   -0.1031960333
 C   -2.5674650057   -2.4014717660   -0.0002414767
 O   -3.0320745810   -3.6781075707    0.0849346391
 C   -1.2428127613   -2.0619214957    0.0009974034
 H    0.8229606656    1.8463409863    0.1651905462
 H   -0.8223434431    1.7471746953    0.5965183717
 H   -2.6256339131    0.8958088792   -0.2975810844
 H   -4.4151626683   -1.1212073506   -0.1479227072
 H   -3.9926161193   -3.6594993939    0.0540783046
 H   -0.3454157959   -2.6496769371    0.0618952012