17

 C   -0.0779450662    1.2911762645    0.6849252194
 C    0.3778439780   -0.1110498200    0.2614947554
 C    0.7087655883   -0.2037730753   -1.2144038646
 C    0.2206627386   -1.3410745182   -2.0362717399
 O   -0.3971953092   -0.0664646725   -2.1245229616
 C    1.9460838700    0.5210696161   -1.6601202813
 O    2.7618297400    0.9674193513   -0.8834765104
 C    2.2580722216    0.7457592672   -3.1531873909
 O    1.9692366541    0.0048111571   -4.0537798891
 H    0.7199782222    2.0251650969    0.5462536123
 H   -0.9462866574    1.6063255589    0.0988797968
 H   -0.3600389326    1.2984346515    1.7413978312
 H    1.2633839129   -0.4088157692    0.8322955447
 H   -0.4109866470   -0.8387132497    0.4772840826
 H    0.7641001897   -1.6525587589   -2.9222420196
 H   -0.3555637865   -2.1063562656   -1.5175011631
 H    2.8939283938    1.6459968059   -3.2913557218