22

 C    0.1409990646    1.6039162690   -0.2928939377
 C   -0.0035981893    0.1075197240    0.0300761598
 C    0.5157792396   -0.7507590812   -1.1316727420
 C    0.6922577941   -0.3014976676    1.3454760174
 O    2.0968248385   -0.0238006768    1.3376216754
 C    0.0483104978    0.2921848304    2.6032181525
 N    0.7521496893   -0.1721864772    3.7841018106
 C    0.1233347948   -0.5749201894    4.9164041016
 O   -1.0765477115   -0.5469696510    5.0995016853
 H    1.1880140254    1.8757417683   -0.4754612276
 H   -0.4082482547    1.8479866669   -1.2069721049
 H   -0.2462395206    2.2476671333    0.5024131626
 H   -1.0724301648   -0.1058952728    0.1678471519
 H    1.5976445265   -0.6290777534   -1.2425134860
 H    0.3153993357   -1.8133867910   -0.9604671112
 H    0.0397309947   -0.4664075007   -2.0751511212
 H    0.6402114873   -1.3932098623    1.4337691662
 H    2.2083934185    0.9237843702    1.1999473752
 H    0.0626219231    1.3906925187    2.5567739282
 H   -0.9959830312   -0.0156810936    2.6990789899
 H    1.7530550743   -0.2672407908    3.7029610783
 H    0.8423256879   -0.9403970830    5.6766395756