19

 C   -0.0685316890    1.5537973750    0.1277121899
 C    1.3953223543    1.8842693512   -0.1314991360
 C    2.2053239396    0.8827609917    0.2293725632
 C    1.3873094035   -0.2270353363    0.8554109368
 C    1.6829704714   -1.6967703828    0.7562544303
 C    0.6439855150   -2.5323233266    0.7097185826
 C   -0.8007313487   -2.0792407684    0.7105869472
 O   -1.0013915686   -0.6735998045    0.8440295595
 C    0.0264558161    0.0269581411    0.1862847989
 H   -0.4087961142    1.9617920770    1.0907391888
 H   -0.7491509597    1.9228031860   -0.6451367176
 H    1.7167160255    2.8356161319   -0.5398663361
 H    3.2876143599    0.8864338366    0.1644291517
 H    1.2771356924    0.0174197070    1.9273122483
 H    2.7058427963   -2.0635850966    0.7599297505
 H    0.7865900226   -3.6086819035    0.6509798583
 H   -1.2830405173   -2.4392889172   -0.2168268450
 H   -1.3411223318   -2.5457540147    1.5436643394
 H    0.1113752029   -0.3330876867   -0.8533011808