18

 C    0.1605503736    1.5339437844   -0.0714317806
 C   -0.0112667809    0.0147147103   -0.0268734282
 C    0.7409838712   -0.6471757299   -1.1872397269
 C    1.5921739713   -1.5565465718   -0.6860367229
 C    3.0710413559   -1.2767806559   -0.7161438116
 C    3.2981224487   -0.6768391618    0.4653198901
 C    2.1195860263   -0.8361648529    1.4136708585
 C    1.2242051617   -1.8115325691    0.7773617847
 N    0.5761180964   -0.5900940878    1.2011375820
 H    1.2157356617    1.8067930242   -0.1713460305
 H   -0.3891668714    1.9670565153   -0.9127249118
 H   -0.2216512972    1.9711370020    0.8555173555
 H   -1.0875446262   -0.2114426389    0.0236644285
 H    0.8952176699   -0.1165273680   -2.1217704916
 H    3.7273984128   -1.3064736144   -1.5758591834
 H    4.2183753930   -0.1895653971    0.7650046298
 H    2.3113008314   -0.8292101698    2.4801884242
 H    0.9272217517   -2.7874321088    1.1572732240