19

 O    0.9370042651   -0.0871671237   -1.0865849803
 C   -0.0115069306   -0.0254760231   -0.0541620988
 C   -1.2431470300   -0.8227359664   -0.4209857208
 O   -1.3264764403   -1.4216737456   -1.4676566819
 C    0.5881855938   -0.5420310369    1.2640711534
 C    1.8171715271    0.2282880136    1.8554821469
 C    1.0604269841    0.3765561065    3.1822863101
 C   -0.2111105154    1.1393990728    2.9644941559
 C   -0.1671855116   -0.3188029865    2.5831895922
 H    0.5345137699   -0.6384216171   -1.7764544495
 H   -0.3448823521    1.0167691154    0.0962620029
 H   -2.0631314424   -0.8366965217    0.3248500305
 H    0.8431346863   -1.5973953315    1.1296895698
 H    2.7056745876   -0.4017729194    1.9156221104
 H    2.0868588088    1.1630044656    1.3541320257
 H    1.4907833570    0.2484585566    4.1676148849
 H   -0.7887926774    1.3537183631    3.8579715217
 H   -0.2593201934    1.9236076856    2.2125846848
 H   -0.8310368767   -1.0382511972    3.0479489923