14

 N    0.6952000456    0.0935265438    0.8035241309
 C   -0.1207302267    0.1141187198   -0.2578493516
 O    0.0283339483    0.7653216991   -1.2778876670
 C   -1.3838499770   -0.7940264808   -0.1574850392
 O   -2.1271606790   -0.6673018016   -1.3266822025
 C   -0.9516672819   -2.2606947440    0.0355100835
 O   -0.3017063282   -2.6613360322    0.9616051355
 C   -2.2330556240   -0.3649835179    1.0552775566
 O   -1.8489857275   -0.3767432394    2.1922558393
 H    1.5283363022    0.6588116377    0.7955109577
 H    0.4776573644   -0.4872802675    1.5995896793
 H   -1.6230476844   -0.0324531731   -1.8714247099
 H   -1.3215474657   -2.9065579779   -0.7868226385
 H   -3.2507196961   -0.0480587059    0.7484210259