20

 C    0.0213983353    1.4559657874    0.0389330760
 C    0.0064929806   -0.0329469845   -0.0055797378
 C   -0.0126692473   -0.8870770821   -1.0341609798
 C   -0.0189003458   -2.2655908545   -0.3619038075
 C    1.0609788924   -2.0391131292    0.7480537541
 C    0.0106935206   -0.9728872642    1.2306940473
 C    0.0313509639   -0.3762685053    2.6201026438
 C   -1.0701512399   -2.0184397944    0.7709054978
 H    0.9096580211    1.8380687632    0.5588332589
 H    0.0137417044    1.8801374590   -0.9693167065
 H   -0.8468908154    1.8550577895    0.5793785422
 H   -0.0220627284   -0.6851638046   -2.0966714298
 H   -0.0342655950   -3.1563466581   -0.9891043961
 H    1.1640233830   -2.8823855482    1.4405075035
 H    2.0412125269   -1.6736092839    0.4308172448
 H    0.9231483788    0.2410052092    2.7787001233
 H   -0.8452887541    0.2572490130    2.7979910027
 H    0.0324684201   -1.1606807947    3.3839660363
 H   -2.0496859296   -1.6339204725    0.4746847615
 H   -1.1746628714   -2.8596912954    1.4655938153