21

 C   -0.1687861118    1.5590669787   -0.0317074307
 C    0.0043195991    0.0461175760   -0.0132261471
 O   -1.2494803336   -0.5724710315   -0.2653885161
 C    1.2489296485   -0.6079514950   -0.6865815668
 C    2.1245272903   -0.1588746279    0.5300971855
 C    3.1966265132   -1.2175045278    0.7922482119
 C    2.3661461934   -2.5052850033    0.5426055389
 C    1.0155374052   -1.8809166627    0.1985412460
 C    0.7673038062   -0.6476876011    1.1373671051
 H    0.7513650842    2.1006406811    0.1944501346
 H   -0.5062754864    1.8904073238   -1.0227415212
 H   -0.9332095206    1.8550871410    0.6935932295
 H   -1.6245964410   -0.1700925993   -1.0553570954
 H    1.5341203270   -0.5844496925   -1.7420617226
 H    2.4194321503    0.8852145160    0.6321210254
 H    4.0451607659   -1.1187633742    0.1073628398
 H    3.5914829943   -1.1564047366    1.8117338791
 H    2.7605464094   -3.1114309483   -0.2795156480
 H    2.3082113591   -3.1506705191    1.4251179109
 H    0.1777127109   -2.5321359416   -0.0360629012
 H    0.4899786764   -0.6718072656    2.1939795825