17

 C   -0.1846059907    1.5014360471    0.0579538272
 C   -0.0470971703    0.0066449581    0.0645150233
 C   -0.9152193527   -0.9299463717    0.8804715102
 C    0.5767689243   -0.8362944758    1.1279543909
 O    1.3606313820   -1.8133741555    0.4745406532
 C    1.5529845619   -1.3200850368   -0.8449528325
 O    0.3977128084   -0.5613854855   -1.1635806807
 C    2.7821949490   -0.5138604651   -0.9470767430
 C    3.7906780000    0.1328825458   -1.0393242213
 H    0.7653950347    1.9739712523   -0.2082444212
 H   -0.9417776125    1.8152984533   -0.6679053700
 H   -0.4918588996    1.8622970830    1.0439070299
 H   -1.5764846924   -0.4911756490    1.6212749970
 H   -1.2771777087   -1.8276638093    0.3934019562
 H    0.9932843595   -0.4531185319    2.0528016944
 H    1.5985230369   -2.1762767682   -1.5244603259
 H    4.6835954001    0.7025410892   -1.1223234476