18

 C   -0.0235434974    1.4045677769    0.0282968647
 C    1.4142569406    1.9472578813    0.0140443792
 C    2.1708512454    1.2539500011   -1.0816630625
 C    3.3558191262    1.5608082515   -1.7104389745
 N    3.6051453645    0.5739334717   -2.6322237891
 C    2.6008198515   -0.3624931056   -2.6034119345
 C    1.6948108309    0.0344753357   -1.6477562371
 C    0.3906667808   -0.5682613455   -1.2083716958
 O   -0.0427133008   -0.0140946208    0.0270365601
 H   -0.5523857861    1.7148466024    0.9340999123
 H   -0.5798714368    1.7930063641   -0.8415403646
 H    1.3980224552    3.0357428657   -0.1194849243
 H    1.8741058552    1.7530107285    0.9919049142
 H    4.0384950590    2.3854633160   -1.5798048095
 H    4.4096611862    0.5362661345   -3.2323264875
 H    2.6181966776   -1.2165913185   -3.2616936034
 H   -0.3904932579   -0.4134755204   -1.9744679781
 H    0.4708412159   -1.6475267786   -1.0407569695