13

 N    0.0957465927    1.3774226764    0.1599725986
 C    0.0326382142    0.0015885701    0.0311897680
 N   -1.0459180556   -0.7480563658   -0.0145923178
 N   -0.6775130731   -2.1075547313   -0.0373699332
 C    0.6215985353   -2.0789947248   -0.0188903616
 N    1.7389962911   -2.8918092757   -0.0348658310
 C    2.8256788013   -2.0466567940    0.0001136274
 N    2.5167604518   -0.7788090561    0.0398020315
 N    1.1367303065   -0.8132926081    0.0303784881
 H    0.7932330019    1.8096936179   -0.4334543498
 H   -0.8169391667    1.7877252108    0.0084598110
 H    1.7507586475   -3.8951563407   -0.0745595150
 H    3.8415037830   -2.4099587888   -0.0049669461