21

 C   -0.5104870578    1.3250034412    0.1975685460
 C    0.0088823304   -0.0730621050    0.0028649560
 O   -0.2746028431   -0.9987598362    1.0799952239
 C    1.0942384228   -0.6710182718    0.7966845190
 C    1.8129770600   -1.7260413731   -0.0203167516
 C    0.8108639642   -2.0503412263   -1.1555168850
 C   -0.0129266047   -0.7704549565   -1.3374417073
 C   -1.1990339993   -0.7279965510   -2.2611325077
 C    0.0587979161    0.0245090300   -2.6217652018
 H    0.0563956667    2.0495681843   -0.3949300348
 H   -1.5643843036    1.4004033658   -0.0925426922
 H   -0.4340177974    1.6035491689    1.2510885465
 H    1.6139943017   -0.1234863385    1.5805519080
 H    2.7420409336   -1.2958550900   -0.4141739765
 H    2.0816695767   -2.6090797248    0.5675648649
 H    1.3069225464   -2.3629366933   -2.0782606192
 H    0.1540794733   -2.8651506567   -0.8395430435
 H   -1.4366053095   -1.6297417594   -2.8161423980
 H   -2.0686389380   -0.1523877734   -1.9616005767
 H    0.0344352487    1.1078323264   -2.5758423541
 H    0.6817633528   -0.3694972407   -3.4182370059