19

 N   -0.1167480328    1.3246482387   -0.0235139949
 C   -0.1217235775   -0.0430174253   -0.0002033104
 N   -1.1053863446   -0.8069179548   -0.2748946822
 C   -0.6394291711   -2.1808844571   -0.0540407063
 C    0.8106499771   -2.0056406607    0.4922047225
 O    1.0584412205   -0.5857783192    0.4008703067
 C   -1.5339289311   -2.9762901339    0.8826973171
 C   -2.1988697475   -2.3195691450    2.0653578924
 C   -3.0240627764   -2.7731863210    0.8842532463
 H    0.7887847432    1.7511338184   -0.1418306881
 H   -0.8562789576    1.7311701223   -0.5741669736
 H   -0.6170324063   -2.7043087868   -1.0208163283
 H    0.8984295069   -2.3022795908    1.5423547155
 H    1.5731501727   -2.5235124672   -0.0948858758
 H   -1.1893813815   -3.9975366612    1.0310404479
 H   -2.2680260644   -2.8762180172    2.9935365013
 H   -2.0623308446   -1.2505664675    2.1839421646
 H   -3.4127552791   -1.9987247957    0.2338073570
 H   -3.6622170459   -3.6424776259    0.9998973881