21

 C   -0.5361411535    1.3181557447   -0.3500975046
 C    0.2900922346    0.0958155877    0.0893523496
 C    1.0360217450   -0.5191125077   -1.0030853947
 C    1.6372742975   -1.0148030883   -1.9207573451
 C    2.3891483569   -1.6044849252   -3.0187512406
 O    1.6258348050   -2.6353199879   -3.6358715696
 C    2.3068111541   -3.2380149895   -4.6913207032
 C    3.2911188669   -4.3439425551   -4.3982840430
 C    1.9319882882   -4.6490308294   -4.9994470415
 H    0.1107392155    2.0950530556   -0.7666353366
 H   -1.2636064286    1.0388033561   -1.1168695248
 H   -1.0769312500    1.7399840074    0.5023997795
 H    0.9881102903    0.3895537777    0.8839993591
 H   -0.3736393102   -0.6548442971    0.5373211047
 H    2.6425213407   -0.8283977792   -3.7608375017
 H    3.3446407178   -2.0116863085   -2.6508843797
 H    2.5304695278   -2.5673166009   -5.5229337675
 H    4.1744199450   -4.4388813730   -5.0202782636
 H    3.4345131009   -4.6080373119   -3.3563928874
 H    1.1953624277   -5.1027039443   -4.3465696394
 H    1.8722498485   -4.9536855112   -6.0380504398