22

 C    0.2579103494    1.4351292442   -0.8735595323
 C    0.0850914556    0.1374030929   -0.0794035675
 C   -1.3838474476   -0.2031093455    0.1483477805
 O    0.6463709686   -1.0001147698   -0.7338481126
 C    2.0473709200   -1.0622020551   -0.8140253127
 C    2.4287769694   -2.5394589974   -0.9411347268
 C    2.5915865578   -0.3084306074   -2.0494194951
 N    3.8012274795    0.2987005276   -1.8526337008
 O    2.0129272730   -0.2919550374   -3.1145930212
 H    1.3078827462    1.7310314810   -0.9504856933
 H   -0.1356393590    1.3147004019   -1.8862279390
 H   -0.2783949214    2.2496242964   -0.3756395555
 H    0.5819287464    0.2527335303    0.9004318616
 H   -1.8971863207   -0.3223916997   -0.8107470885
 H   -1.4761905291   -1.1394726325    0.7046818778
 H   -1.8811537389    0.5915207934    0.7120999172
 H    2.4977185926   -0.6394343154    0.1012116323
 H    2.0624807917   -3.0939996690   -0.0738834246
 H    1.9707322862   -2.9513652942   -1.8438485114
 H    3.5138806160   -2.6615235564   -1.0110001294
 H    4.2887387016    0.2607515926   -0.9749849813
 H    4.2622802428    0.7175335494   -2.6441152874