13

 N   -0.2119358449    1.2852576572    0.1769889342
 C   -0.0793638877    0.0036259162   -0.2377489050
 O    0.4942954438   -0.4008062378   -1.2087200030
 O   -0.7627910049   -0.8187287276    0.6627700189
 C   -0.7664083496   -2.1351213728    0.3877717533
 N   -0.1370936003   -3.0619432441    1.0218658229
 C   -0.5634086723   -4.2288403911    0.3912360428
 C   -1.4343030852   -3.9141639741   -0.5934980998
 O   -1.5813254265   -2.5497331400   -0.6012051652
 H    0.3459692184    1.9793822582   -0.2881443104
 H   -0.5802539538    1.4825920400    1.0911116739
 H   -0.2061042207   -5.1988394860    0.6969442743
 H   -1.9986451862   -4.4617143782   -1.3275474366