21

 C   -0.1115695367    1.5875697019   -0.0145883395
 C   -0.0141260058    0.0813238005    0.0034062692
 C    1.0521791715   -0.7347570429   -0.9001673729
 C    0.6806732420   -1.8223472512    0.1378252286
 C    1.0374013907   -2.8755060228    1.2123576628
 C    0.2893289897   -1.9002621808    2.2268347555
 C    0.6171740655   -0.7548728989    1.1983191667
 O   -0.7196178410   -2.0685908912   -0.1871477875
 C   -1.2597868313   -0.7440549674   -0.2994450545
 H    0.8485492512    2.0512308634    0.2325156738
 H   -0.4149579470    1.9543071687   -1.0020766403
 H   -0.8512300620    1.9397710650    0.7135006816
 H    0.7973219429   -0.8962832820   -1.9516972172
 H    2.0636705038   -0.3401851777   -0.7937408194
 H    0.6389239025   -3.8826117689    1.0733852108
 H    2.1078549610   -2.9215533588    1.4247418422
 H   -0.7661595129   -2.1520857002    2.3156733308
 H    0.7279692754   -1.7881387112    3.2204660997
 H    1.6123583866   -0.3594234337    1.4162722057
 H   -2.0659099373   -0.5928165295    0.4307401354
 H   -1.6602959486   -0.5722134024   -1.3070538616