21

 C    0.0072867025    1.4845158232   -0.1604166911
 C   -0.0551141267   -0.0310534041   -0.0815488611
 O    0.6692519588   -0.5658202906   -1.1829375249
 C    0.6947530000   -1.9930214050   -1.2585832328
 C   -0.5337864892   -2.4706281534   -2.0449219555
 O   -0.5872141492   -1.8597949729   -3.3175800321
 C    2.0034927417   -2.3834151156   -1.9582387079
 C    3.2342742571   -1.9242247273   -1.2108131261
 O    4.1807124823   -2.6281282089   -0.9622813349
 H    1.0450214187    1.8284091847   -0.1348686104
 H   -0.4500169869    1.8430787512   -1.0871384615
 H   -0.5276136814    1.9297775312    0.6834623022
 H    0.3889515027   -0.3902998846    0.8598854715
 H   -1.1005842790   -0.3733600996   -0.0990501538
 H    0.6695369784   -2.4222105517   -0.2448494638
 H   -0.4866415038   -3.5530991929   -2.2026040405
 H   -1.4446397827   -2.2617362600   -1.4609602099
 H   -0.4471292082   -0.9174170297   -3.1592413698
 H    2.0605337556   -3.4661642034   -2.0987679182
 H    1.9990120828   -1.9118721775   -2.9495329295
 H    3.2105440565   -0.8584715831   -0.8976599398