19

 O    0.2113537281    1.1801925489    0.1048596788
 C   -0.0730655739   -0.1752480345    0.1941606511
 C   -0.7624980981   -0.7540286051    1.3931973998
 C   -1.5040244570   -0.6985413592    0.0502717871
 C   -2.4962960067    0.3354189919   -0.0771320167
 C   -3.2701424057    1.2478499982   -0.2213839739
 C   -1.7798082128   -1.9412771601   -0.7571817839
 C   -1.1559165901   -3.2786141214   -0.4486196250
 C   -2.6276710209   -3.0603234711   -0.2050611097
 H   -0.6189404823    1.6496528639   -0.0559829887
 H    0.6920410416   -0.7819749866   -0.2817665694
 H   -0.4492395799   -1.7225635230    1.7669285413
 H   -1.0978183616   -0.0577861931    2.1529747063
 H   -3.9876110255    2.0236333694   -0.3280303807
 H   -1.9171350690   -1.7273313256   -1.8136895056
 H   -0.8554025897   -3.8927861096   -1.2901811122
 H   -0.5080812841   -3.3771700309    0.4153217665
 H   -2.9535930410   -2.9728548533    0.8257887724
 H   -3.3441124916   -3.5397256087   -0.8622812373