17

 C    0.6195824932   -1.0480491328   -0.1314923805
 C    0.3496246018    0.1212521390   -0.0848163969
 C   -0.0023094510    1.5502004087   -0.0199469115
 O    1.1349849332    2.4057443818    0.0719789249
 C    1.7363950671    2.4157664010    1.3364978293
 C    2.8558167963    1.4565731813    1.6455457579
 C    3.1404672400    2.9216061838    1.3826786627
 C   -0.7769490111    1.9508212752   -1.1973258259
 C   -1.4347644306    2.2732506187   -2.1475651021
 H    0.8615237398   -2.0813736700   -0.1786734501
 H   -0.6340546297    1.7006709567    0.8725169850
 H    1.0562402169    2.6935426644    2.1426756732
 H    2.9456409354    1.0756798374    2.6569592972
 H    3.1225689435    0.7545126147    0.8658772964
 H    3.5907032830    3.1742254578    0.4295863011
 H    3.4292880022    3.5623033216    2.2079356445
 H   -2.0098380402    2.5587440207   -2.9937776752