18

 C   -0.0736474732    1.5595741309    0.0401404404
 C    0.0146701865    0.0452636206   -0.0157476648
 C   -1.1899045587   -0.6669780709    0.5711252056
 C    0.6835525633   -0.6424388477   -1.2010633571
 C    1.2635340002    0.1147470485   -2.3433772740
 O    1.1086896795   -0.2211893567   -3.4912153605
 C    1.3574713895   -0.6305538354    0.1828181706
 C    2.5476157115    0.1439320958    0.4042369072
 N    3.4999549222    0.7714828247    0.5996434367
 H    0.8437368887    2.0537859204   -0.2837582792
 H   -0.8963615342    1.9161551584   -0.5879404332
 H   -0.2732125747    1.8810527955    1.0676108445
 H   -2.0988227084   -0.3950441698    0.0242928254
 H   -1.0823257069   -1.7545440970    0.5247946322
 H   -1.3310620717   -0.3830716026    1.6195404403
 H    0.2628841011   -1.5960125564   -1.5027827347
 H    1.8572944589    1.0143169066   -2.0811266614
 H    1.3602091665   -1.5844281050    0.7005753820