15

 N    0.0101357603    1.3373057591    0.1352465744
 C   -0.0265793039   -0.0312946509    0.0228712003
 N   -1.1245852473   -0.6992815394    0.0021837924
 C   -0.9034171439   -2.1049359425   -0.0279269238
 C    0.3192279642   -2.6803276292    0.7031980866
 O    1.2427180916   -1.6982095482    1.1104449102
 C    1.2703174248   -0.8095999611   -0.0007104433
 O    1.2348824655   -1.6386313473   -1.1580251245
 C    0.3143888890   -2.6424592025   -0.7944937379
 H    0.7989714664    1.8102958414   -0.2777899595
 H   -0.8774071837    1.7932780716   -0.0256357051
 H   -1.7993442072   -2.7163044110   -0.0409611475
 H    0.2975920154   -3.5488953722    1.3455605779
 H    2.1919004761   -0.2256680980    0.0142690723
 H    0.2894959827   -3.4775690896   -1.4797427726