18

 C    1.1111833628    0.9157030349   -0.0971494152
 N    0.1698283853    0.1079374182   -0.8908093827
 C   -0.2423558738    0.6192567459    0.4286112545
 C   -0.5044786546   -0.4195839581    1.4665862540
 C    0.4414196095   -1.6086500876    1.8313238473
 C   -0.3867655675   -1.4100795515    3.1358712665
 O   -0.3632285706    0.0293669040    2.8637815087
 C   -1.8030146001   -1.7953933991    2.6646378482
 C   -1.8856691458   -1.1189139187    1.5194357161
 H    1.9722783525    0.3722102287    0.2787843330
 H    1.3191368316    1.9362022354   -0.4071860886
 H   -0.2426359805    0.6727047577   -1.6281116482
 H   -0.9468889217    1.4493482582    0.4550217469
 H    0.3431325320   -2.5426260557    1.2768581974
 H    1.4832813288   -1.3007145571    1.9470241121
 H   -0.0388407450   -1.6904406137    4.1287151732
 H   -2.5034214487   -2.4555690035    3.1545110045
 H   -2.6706795342   -1.0509541480    0.7808086724