15

 C   -0.0251727140    1.5101602323   -0.0723767488
 C    1.5342967997    1.3361941216    0.0076561366
 C    1.1342886782    0.1491073283    0.9560140133
 N   -0.0948212476   -0.0407045169    0.0221040974
 C    0.6633990677   -0.3044842807   -1.1817687126
 C    1.7167097838    0.5180681957   -1.2806022546
 N    2.4159450620    0.2389351787   -2.4377991115
 C    1.7266679806   -0.7392294793   -2.9575028977
 O    0.6169933975   -1.1405785631   -2.2354392343
 H   -0.4842849757    1.9530993354    0.8160763301
 H   -0.4568850519    1.9200985178   -0.9867773004
 H    2.2203632396    2.1325475165    0.2881493658
 H    1.7920840568   -0.7198928005    1.0079786161
 H    0.7959012445    0.4503359745    1.9515416166
 H    1.9076599488   -1.2765729103   -3.8734299061