12

 N   -0.0162945121    1.4096928180    0.1432902441
 C    0.0019267046    0.0257768560    0.0423679665
 C   -1.1697424573   -0.7421680005    0.0249775492
 N   -1.1594093413   -2.0711945546   -0.0119842412
 C    0.0379723909   -2.6582233558   -0.0327684359
 N    1.2191140121   -2.0388579142   -0.0260376302
 C    1.1937511164   -0.7100345146    0.0110131126
 H    0.8120632562    1.8806500597   -0.1903427378
 H   -0.8610386052    1.8578986380   -0.1804492918
 H   -2.1446860823   -0.2552105630    0.0411152642
 H    0.0525611576   -3.7438950039   -0.0617129459
 H    2.1552200803   -0.1967528750    0.0157101063