21

 C   -0.0546680125    1.5219916016    0.0289545030
 C    0.0253537427    0.0116800094   -0.0083191465
 C   -0.8052523263   -0.7997268067    0.9536216106
 C    0.6891610877   -0.7402512925    1.1316306531
 O    1.3832616955   -1.9204625829    0.8845556738
 C    2.5696217879   -1.7484769656    0.1179829429
 C    2.2859268910   -1.7137903180   -1.3844679470
 C    1.4402102826   -0.5250905901   -1.8432080454
 O    0.1263864559   -0.5368047119   -1.2942778915
 H    0.8313890296    1.9873795925   -0.4166876304
 H   -0.9334042428    1.8674738551   -0.5256260541
 H   -0.1366668002    1.8834886907    1.0582871600
 H   -1.4487879376   -0.2886339756    1.6610088840
 H   -1.1818171988   -1.7398281370    0.5681562578
 H    1.0948656429   -0.1439845402    1.9519000366
 H    3.1031091895   -0.8386979807    0.4358674463
 H    3.2078715386   -2.6059710147    0.3563767414
 H    3.2426687318   -1.6920546933   -1.9247526023
 H    1.7736748032   -2.6414411425   -1.6638656654
 H    1.9524728387    0.4199135208   -1.6084012994
 H    1.3081908505   -0.5623689884   -2.9296659877