17

 N   -0.0391328203    1.2816937464   -0.5117072996
 C   -0.0760976911   -0.0855986451   -0.1642447283
 C   -1.1031047441   -1.0044307186   -0.0486642763
 C   -2.5808276770   -0.7279956646   -0.1912903412
 C   -2.9317358877    0.0841026901   -1.3577407613
 C   -3.2127467108    0.7648090688   -2.3092956902
 C   -0.5066929365   -2.2591799493    0.2738276983
 C    0.8520037565   -2.0710978606    0.3542793559
 N    1.1006244660   -0.7489322368    0.0810508234
 H   -0.8179341700    1.5039092244   -1.1238182218
 H   -0.1087816971    1.8872422377    0.3016740168
 H   -3.1158727558   -1.6831920526   -0.2553107861
 H   -2.9756912951   -0.2311550294    0.7075364001
 H   -3.4751085951    1.3448776109   -3.1590638482
 H   -1.0289360580   -3.1905808646    0.4360536481
 H    1.6527835012   -2.7557477494    0.5805402139
 H    2.0033796049   -0.3169284272   -0.0160203934