15

 C   -0.0195728194    1.4243229255   -0.0277809809
 N    0.0000512769   -0.0246426204    0.1179000590
 C   -1.1968622692   -0.7027598470    0.0629385243
 N   -2.3708105521   -0.1114848190    0.1119921826
 O   -3.3097380174   -1.1509637114    0.0737160121
 C   -2.6560450799   -2.3280280935    0.0124050138
 C   -1.3145901542   -2.1318627280   -0.0019329802
 N   -0.2180262689   -3.0054755676   -0.1304679702
 H    1.0011705838    1.8024697722    0.0624354408
 H   -0.4459084756    1.7552117849   -0.9850616681
 H   -0.6263161504    1.8567029555    0.7714683072
 H    0.7249158739   -0.4944734701   -0.4082587583
 H   -3.2728374925   -3.2127548446   -0.0237769331
 H   -0.5055546399   -3.9705467231   -0.2360965639
 H    0.4045761248   -2.9445344934    0.6695488247