16

 N   -0.0785689411   -1.1217127688    0.0291574389
 C   -0.0230259976    0.0321566120    0.0265957217
 C   -0.0066311582    1.4801441855    0.0353263265
 N   -0.8226797830    2.1060695179    1.0616221596
 C   -0.6581441001    3.5527247604    0.7459105098
 C    0.3657734549    3.4666173957   -0.3779822864
 C    1.3327235716    2.2706239834   -0.0772207009
 N    1.4244889551    1.8838554619   -1.5284713643
 C   -0.0121813616    2.2820827251   -1.3251759031
 H   -1.7893449958    1.8068842598    0.9970714900
 H   -1.5958226727    4.0192560982    0.4224589821
 H   -0.2878694808    4.1027747029    1.6178468862
 H    0.7763973230    4.3790902828   -0.8106499030
 H    2.1772535091    2.2222324482    0.6099604015
 H    1.9098049716    2.6240685185   -2.0420786616
 H   -0.7564793546    2.2431141965   -2.1214208970