12

 O   -0.0384203707    1.4133056556    0.0088286170
 C   -0.0080909567    0.0486621967    0.0010578499
 C   -1.1665278119   -0.6682654501    0.0040635796
 N   -1.0906189073   -2.0244458496   -0.0037620616
 C    0.1088303187   -2.7710362953   -0.0148665135
 O    0.0663921467   -3.9820935507   -0.0218427648
 N    1.2743792765   -2.0118292025   -0.0180167822
 C    1.1957724484   -0.7124512959   -0.0104062612
 H    0.8638341753    1.7491569404    0.0042450524
 H   -2.1487442160   -0.2125780528    0.0123987744
 H   -1.9327086993   -2.5823138852   -0.0018161836
 H    2.1459787062   -0.1678111506   -0.0131934264