17

 C   -0.0040556734    1.4861905942    0.0137823336
 C    0.0441083905   -0.0149168909   -0.0083623196
 N   -0.8252450996   -0.8515808072    0.8469100169
 C    0.6439113713   -0.8974491776    1.0318277022
 C    1.3584262765   -1.9422972873    0.1668786939
 N    0.3365580254   -2.1933689832   -0.9141644637
 C    0.5164012817   -0.7428854581   -1.2814538753
 C    2.0173706686   -1.0146620781   -0.9127204227
 O    3.0869171967   -0.8782008002   -1.4212835143
 H    0.8967627903    1.9145924298   -0.4397181551
 H   -0.8690067317    1.8645240441   -0.5429939485
 H   -0.0734713916    1.8632436039    1.0394435479
 H   -1.2033608763   -0.2491159570    1.5766998103
 H    1.1071083512   -0.5279070877    1.9386318064
 H    1.8528249179   -2.7981326186    0.6205873489
 H    0.7693357120   -2.7660606009   -1.6392008166
 H    0.1804054404   -0.4103418352   -2.2614650346