17

 O   -0.3250848899    1.3119546787   -0.0625557971
 C   -0.0095081624   -0.0516337196   -0.1014369162
 C    0.9654330693   -0.3147395976   -1.2404631158
 O    1.3508125389    0.5758920485   -1.9566476977
 C    0.5987945708   -0.5702865347    1.2008070739
 C    1.3588258017    0.3326321424    2.1111807059
 C    0.0302223067   -0.2535120808    2.5814850472
 C   -1.1363860101    0.6427513192    2.7983190516
 O   -1.9670384571    0.4369976538    3.6516507263
 H    0.1717485542    1.7170500289   -0.7929643590
 H   -0.9140111874   -0.6474397752   -0.3241152597
 H    1.2997204409   -1.3627801707   -1.3761180591
 H    0.9519496101   -1.5953101250    1.1133462859
 H    2.2634186513   -0.0219462917    2.5906031780
 H    1.3482316548    1.3875365369    1.8597187972
 H    0.0717498859   -1.0656578689    3.3002063834
 H   -1.1908532275    1.5252488058    2.1327678851