22

 C    0.0581524331    1.4960066948    0.2448790109
 C   -0.0172525621   -0.0142843590    0.0049145889
 C    0.6877530086   -0.4773644961   -1.2987715088
 C    0.0508591396    0.1399429714   -2.5578178763
 O    2.0399919924   -0.0500349339   -1.2572136899
 C    0.6143520790   -2.0026589423   -1.3748988788
 C   -0.6972530593   -2.7265557733   -1.4967126752
 N    1.7393757970   -2.6013277549   -1.3129591677
 O    1.6195433519   -3.9947361776   -1.3706973020
 H    1.0955029214    1.8357627877    0.1955623416
 H   -0.5217443948    2.0586962176   -0.4932085383
 H   -0.3400659823    1.7453936696    1.2331889848
 H    0.4720174559   -0.5365695210    0.8355472374
 H   -1.0641561387   -0.3404360161   -0.0020554892
 H    0.2040201585    1.2211694514   -2.5462923109
 H    0.5360639573   -0.2582549524   -3.4530363541
 H   -1.0235657252   -0.0558488618   -2.6213817757
 H    2.5759279594   -0.8530910842   -1.1801038499
 H   -0.7054736860   -3.3356041850   -2.4064194908
 H   -0.8219725058   -3.4200987845   -0.6589900127
 H   -1.5455410213   -2.0431659664   -1.5207342785
 H    2.5366394413   -4.2846651241   -1.3192717948