20

 C   -0.2219556904    1.3895065351    0.0803691782
 C    0.0357650466   -0.1233983986   -0.0307559423
 C    0.8451256510   -0.4797214520   -1.2846260715
 C    2.3293934861   -0.0953154198   -1.1837652058
 O    2.9692385309    0.2114499521   -2.1760843429
 C    2.8819386721   -0.2300384622    0.1496268955
 C    2.0832926903   -0.5380465110    1.2078270866
 N    0.7300105409   -0.6343938904    1.1624561053
 C   -0.0486086569   -0.8322527218    2.3678296029
 H    0.7198439704    1.9431775118    0.1314527017
 H   -0.7756982069    1.7389996398   -0.7961442001
 H   -0.8136180578    1.6311282099    0.9681678328
 H   -0.9308015061   -0.6389954431   -0.0764582447
 H    0.8108369167   -1.5652382103   -1.4470035439
 H    0.4135078012   -0.0037837703   -2.1679505682
 H    3.9523813172   -0.1452519544    0.2837418803
 H    2.5159853056   -0.7296482128    2.1865424800
 H    0.5830780048   -1.2654114688    3.1462045678
 H   -0.4751218058    0.1044078800    2.7544242571
 H   -0.8752589198   -1.5254490133    2.1758135611