15

 O    0.0134177526    0.0397211257   -0.2938659663
 C   -0.0068048474    1.1938576248    0.0343793219
 C   -1.2782276453    2.0351284283    0.2565783152
 C   -0.7848681815    3.3060240222    0.8995174095
 O   -0.0478970720    3.0743654897    2.1006597283
 C    0.7021478460    3.3429315520    0.8961338612
 C    1.2369223778    2.0688247109    0.2717417992
 C    1.4667858344    4.5554253349    0.8570386509
 C    2.1344142056    5.5532768279    0.8024086093
 H   -1.7591393318    2.2267454504   -0.7105189461
 H   -1.9910443151    1.4858172463    0.8778405670
 H   -1.3716998677    4.2198459240    0.8771670336
 H    1.9528195295    1.5501985122    0.9144977963
 H    1.7315091205    2.2665692485   -0.6861270093
 H    2.7180698142    6.4400112923    0.7627561594