18

 O   -0.1330091530    1.3434992157   -0.0003188390
 N    0.0112760468   -0.0580770080   -0.0163675121
 C   -1.1188557329   -0.6322596005    0.0023821250
 C   -2.5233789364   -0.0631592800    0.0604688441
 C   -3.3246790396   -1.3848806344   -0.0027894174
 C   -3.2385141883   -1.9900717775   -1.4244991753
 C   -1.7822631700   -2.5481151664   -1.4304444816
 C   -1.3046959413   -2.1363976782   -0.0142202250
 O   -2.5006095856   -2.2764486894    0.7698512506
 H    0.7829747295    1.6417184784    0.0114431802
 H   -2.6850576461    0.4587399710    1.0090334905
 H   -2.7279187698    0.6412925123   -0.7502180040
 H   -4.3226941121   -1.3445719353    0.4320804428
 H   -3.9712814058   -2.7906674409   -1.5447581674
 H   -3.4180164809   -1.2474476335   -2.2059011948
 H   -1.7714595208   -3.6362486589   -1.5257187984
 H   -1.1556136703   -2.1267814513   -2.2192479390
 H   -0.4891942533   -2.7182356431    0.4099743207