18

 N   -0.1336284318    1.3505472394   -0.0765268790
 C   -0.0346162487   -0.0416698350   -0.0542854378
 C   -1.1836212333   -0.8390303182   -0.1327784738
 C   -1.1023357372   -2.2277991888   -0.0489550415
 C   -2.3658932097   -3.0628450414   -0.1083722674
 O   -3.3877192316   -2.5026986922   -0.9194533142
 C    0.1435558055   -2.8387197122    0.1072403955
 C    1.2895479745   -2.0518157453    0.1888909938
 C    1.2098089896   -0.6673428425    0.1085559753
 H    0.6977520049    1.8317022069   -0.3869028627
 H   -0.9610958691    1.7097038757   -0.5297546563
 H   -2.1573297278   -0.3761834061   -0.2616452656
 H   -2.1140135924   -4.0860019757   -0.4276853306
 H   -2.8102253812   -3.1444426075    0.8912138940
 H   -3.0155924727   -2.3726277704   -1.7983331905
 H    0.2160018062   -3.9204724704    0.1594358017
 H    2.2607974699   -2.5222352183    0.3062341195
 H    2.1096949449   -0.0623717778    0.1709694797