25

 C    0.1260352780    1.5474348860    0.2046612171
 C    0.0143050910    0.0232427989    0.1216524171
 C   -1.4264480283   -0.4625726500   -0.0876049927
 C   -1.5176674213   -1.9765871766   -0.1360785506
 O   -1.1326739604   -2.6015027854    1.1130627592
 C   -2.2519479720   -3.5049707209    1.0533440483
 C   -2.8875374091   -2.7295659318   -0.1292144950
 C   -4.0953315833   -1.8914367392    0.2902952967
 C   -3.1899406140   -3.5432925054   -1.3839451619
 H    1.1631186424    1.8631748084    0.3556837275
 H   -0.2369174914    2.0240470241   -0.7131894481
 H   -0.4662358062    1.9431276275    1.0373388838
 H    0.6436464351   -0.3483775474   -0.6978639323
 H    0.4056084896   -0.4309979257    1.0388479368
 H   -2.0606497251   -0.0788551691    0.7196807201
 H   -1.8239539284   -0.0563968468   -1.0284906679
 H   -0.8743311698   -2.3471669052   -0.9517774763
 H   -1.9389297236   -4.5300329371    0.8083972577
 H   -2.8175641756   -3.5212642783    1.9930858558
 H   -3.9058472563   -1.3393891725    1.2152058394
 H   -4.3724960724   -1.1690706928   -0.4851217236
 H   -4.9623351391   -2.5392552851    0.4631773847
 H   -4.0428996198   -4.2128354015   -1.2242238153
 H   -3.4400489274   -2.8886073079   -2.2269202239
 H   -2.3324351226   -4.1566093060   -1.6789667765