18

 C    0.0219251438    1.5538839108    0.0325107732
 C    0.0057412453    0.0565470674    0.0295529985
 C   -1.2843613842   -0.7925390590   -0.0468113948
 C   -0.4936082236   -1.7963761182    0.7748368790
 C    0.9327714497   -1.7838164631    0.3240983948
 N    0.4375881206   -0.7583231659    1.3187964491
 C    1.0358482838   -0.7552729005   -0.7587328989
 C    1.4474053040   -0.7628828888   -2.1597544084
 O    2.2800290258   -0.1926132702   -1.1276022825
 H    1.0450357776    1.9255785092    0.1346921994
 H   -0.3912278935    1.9423654403   -0.9056934880
 H   -0.5814581665    1.9455377172    0.8565987883
 H   -2.0888979283   -0.3502519302    0.5473900004
 H   -1.6622117154   -1.0731707717   -1.0357944317
 H   -0.8766057663   -2.5879570712    1.4097029525
 H    1.6554089890   -2.5413324293    0.6023492295
 H    1.8308750211   -1.6766070699   -2.6116516688
 H    1.0208973673   -0.0443602368   -2.8588602415