17

 N    0.0958251694   -1.0861247929   -0.0408414953
 C    0.0609060453    0.0704278611    0.0041579485
 C   -0.0098481752    1.4972501516    0.0490007328
 N    0.3315170467    2.2991564579   -1.1610138217
 C    1.1936563078    2.3861311388    0.0292591753
 C    0.7756585998    3.4385604409    1.0748767273
 C   -0.7115193977    3.7169344757    0.7184895801
 C   -0.8844462087    2.2224515773    1.1025881808
 C    0.2081536734    2.4957059315    2.1951498826
 H    0.7687418977    1.6830752387   -1.8451183174
 H    2.2029968888    1.9931598712   -0.0026524487
 H    1.4843876078    4.2375918161    1.2882279591
 H   -1.1816552354    4.3663009984    1.4584513144
 H   -0.9584846403    4.0290994511   -0.2933175735
 H   -1.8521454092    1.7799661782    1.3318155359
 H    0.8261220878    1.6538808770    2.5199439587
 H   -0.1791336780    3.0408378174    3.0585477109