12

 O    0.0854245536    1.2851243212    0.1576960017
 C    0.0710806639   -0.0422635247    0.0185225032
 N    0.0996062539   -0.6928216997   -1.1290187889
 C    0.0669744066   -1.9988850306   -0.7017996037
 C    0.0199918052   -2.1252532081    0.6678646251
 N    0.0227578600   -0.8189972214    1.1477717544
 N   -0.0110716463   -3.4130885776    1.0516200710
 N    0.0151029117   -4.1304047879   -0.0511573521
 N    0.0628308352   -3.2794692631   -1.1279667308
 H    0.1201783243    1.6572857945   -0.7334660378
 H   -0.0034581104   -0.4810479950    2.0940799046
 H    0.0878306223   -3.6726820175   -2.0536114466