20

 C   -0.1162182944    1.5737619972   -0.1364366798
 C    0.0734879217    0.0746281902    0.0095165912
 N    1.1185757729   -0.6342256744   -0.8543448072
 C    2.4143571357    0.0344545332   -0.4309415605
 C    2.2387777672   -0.5666455342    0.9509946636
 C    1.3263245579   -1.5917573791    0.3433587741
 C    0.7177772260   -0.5537636992    1.2380051413
 C    0.1689458238   -0.7047912515    2.6174983888
 O    0.2303906177    0.5628260954    3.2643947392
 H    0.7456887441    2.1457018537    0.2136893218
 H   -0.3091790896    1.8329733320   -1.1833879754
 H   -0.9779845384    1.8925957620    0.4583584933
 H   -0.8740894792   -0.4346411657   -0.2039910937
 H    3.2375181789   -0.4288096208   -0.9818283118
 H    2.4533398443    1.1188922760   -0.5676833899
 H    2.9506934941   -0.6914550502    1.7577743981
 H    1.2992266758   -2.6716863931    0.3037356187
 H   -0.8704519720   -1.0675332218    2.5624649460
 H    0.7479053771   -1.4647615532    3.1685327026
 H   -0.2231283936    0.4881317834    4.1095653495