20

 C    0.0901542445    1.3311807257   -0.3401187604
 C   -0.0244115246   -0.0390323000    0.3387179799
 C   -1.3956713250   -0.6575391656    0.1705544973
 C   -1.8883057313   -1.2725778018   -1.1109775546
 O   -0.9014846177   -1.7012524208   -2.0388984531
 C   -0.2026931920   -2.6968900780   -1.4083413578
 C    0.9232502844   -3.2777006314   -2.1902481367
 N   -0.5764429629   -3.0275950057   -0.2339885424
 C   -1.6724751453   -2.1559242859    0.1104363424
 H    1.0806425110    1.7685900417   -0.1802752149
 H   -0.0720689470    1.2451599483   -1.4191429934
 H   -0.6517601641    2.0345521944    0.0538367240
 H    0.7430807241   -0.7115340533   -0.0548403639
 H    0.1845573653    0.0564159828    1.4113170362
 H   -2.1902681103   -0.1193184955    0.6845238997
 H   -2.8234764920   -1.0066693106   -1.5876015655
 H    1.7009024286   -2.5266330056   -2.3626906694
 H    1.3496975147   -4.1177789185   -1.6429943331
 H    0.5711029992   -3.6127133156   -3.1707194914
 H   -2.4575633295   -2.5853872045    0.7213635271