18

 C   -0.0550293549    1.5789305452   -0.0134889233
 C    0.0777565661    0.0552114941   -0.0438553583
 N    0.7225631917   -0.4951586472    1.1498623957
 C   -0.0761316022   -0.7145458632    2.3359490123
 C   -0.5004428526   -2.1197655236    2.5077541620
 N   -0.7870648801   -3.2315625093    2.6399590619
 C    2.0961386675   -0.6663233820    1.1399876210
 N    2.6193047634   -1.2889444782    2.2700871221
 O    2.7941303791   -0.2603703202    0.2296667428
 H    0.9349777359    2.0380284739    0.0407438489
 H   -0.5528584252    1.9326922116   -0.9217840939
 H   -0.6456108950    1.9212475151    0.8437135815
 H   -0.9032876851   -0.4222167307   -0.1469560909
 H    0.6856872542   -0.2456013275   -0.8980180423
 H    0.4791943348   -0.4172759208    3.2318989430
 H   -0.9702372631   -0.0854063487    2.2929816787
 H    2.1056716381   -2.0682469800    2.6586721555
 H    3.6013830173   -1.4890574487    2.1459385932