13

 N   -0.1986920237    1.3445410076   -0.1152383258
 C    0.0313010795    0.0317669734    0.1088614431
 O    1.0451443555   -0.4628074245    0.5345664212
 O   -1.1094963004   -0.6853478944   -0.1946397732
 C   -0.9920602226   -2.0963272592   -0.0521754612
 C   -2.0612481271   -2.5701159265    0.9457512253
 O   -2.6092774685   -3.6313567683    0.8937702248
 C   -1.0988630222   -2.7523371153   -1.3568760131
 N   -1.1803561296   -3.2620672617   -2.3891357707
 H    0.5813373075    1.9734870333   -0.0405802548
 H   -1.0224749572    1.6355158937   -0.6123674095
 H   -0.0076236322   -2.3164580844    0.3890241110
 H   -2.2500368591   -1.8171406337    1.7396972231