25

 C   -0.1559569681    1.4248067100    0.0666824326
 O    0.1373038056    0.0525721590   -0.0372576868
 C    0.6858213187   -0.5362207752    1.1377430567
 C   -0.3875523964   -0.7770527320    2.2041276320
 C    1.3508857474   -1.8452701916    0.7043525627
 C    2.4852123069   -1.6884922476   -0.3220282596
 C    3.7107808868   -0.9609110981    0.2464466142
 C    2.8782743324   -3.0621051074   -0.8681217400
 O    3.8349402809   -2.8826217902   -1.9039047659
 H    0.7261455069    2.0077763091    0.3760493798
 H   -0.4687630061    1.7632282850   -0.9246316066
 H   -0.9701435269    1.6348371670    0.7759670093
 H    1.4480181602    0.1443156597    1.5526834813
 H   -1.1633015667   -1.4457770116    1.8173894788
 H    0.0530470348   -1.2354456422    3.0952692790
 H   -0.8649294358    0.1565195695    2.5154121359
 H    1.7290845679   -2.3537035970    1.6012979122
 H    0.5654752974   -2.4879732553    0.2849087775
 H    2.0938141219   -1.1087239788   -1.1656741619
 H    4.0851545632   -1.4670870513    1.1456715115
 H    4.5156875602   -0.9469475038   -0.4914827696
 H    3.4806594757    0.0735017957    0.5174131733
 H    3.2907049878   -3.6804950349   -0.0520308864
 H    1.9811783253   -3.5768747586   -1.2480929770
 H    4.1222787901   -3.7502476894   -2.2014382728