19

 O   -0.1376885353    1.5201403943    0.0993323607
 C    0.0017152787    0.1102093919    0.1791011578
 C   -1.3617561636   -0.5049397442   -0.1287220024
 C   -1.3526700487   -1.9981866670   -0.0984247077
 C   -2.4547516491   -3.0543109297    0.0122949474
 C   -1.9507393823   -3.7915560918   -1.2267983454
 C   -0.5854679680   -3.1386224415   -0.8960432760
 O   -0.1882080319   -3.7745546835    0.3508718478
 C   -1.2442993797   -3.0391680841    0.9661728477
 H    0.7159165952    1.9186931376    0.2914277156
 H    0.7471265985   -0.2602062929   -0.5428376899
 H    0.3316633872   -0.2077708161    1.1802538735
 H   -2.0887280824   -0.1303586138    0.6024292669
 H   -1.6957439278   -0.1399512020   -1.1084491820
 H   -3.4711747519   -2.9182330659    0.3606493204
 H   -1.9719296895   -4.8857843406   -1.2475805002
 H   -2.3857866123   -3.3796601212   -2.1410953353
 H    0.2269124309   -3.0478425675   -1.6147595512
 H   -1.3012749179   -2.9977944819    2.0462811323