19

 O    0.0149093538    0.0518338723    0.1470688189
 C   -0.0392829388    1.2502985181    0.0652570284
 C   -1.2458959761    2.1701163735    0.0119665776
 C   -0.8598144618    3.1236363894    1.1939444253
 C    0.2814582237    3.5478522509    0.2393883210
 C   -0.6942056895    3.3016125817   -0.9496453807
 C    0.1148552809    2.8524831800   -2.1745032010
 C    1.4498390467    2.3448241947   -1.5488062346
 C    1.1162360808    2.2670846109   -0.0391716894
 H   -2.2276179411    1.7115956964   -0.0909265210
 H   -1.5997431225    3.9146096741    1.3362749369
 H   -0.6099629625    2.6690058363    2.1568224219
 H    0.8299482945    4.4822723932    0.3608926250
 H   -1.4356712971    4.0840993703   -1.1187576281
 H   -0.4008898578    2.0681373678   -2.7377777138
 H    0.2824785973    3.6849324693   -2.8638919457
 H    1.7717540891    1.3785135804   -1.9446729379
 H    2.2609527960    3.0606004188   -1.7183125345
 H    1.9639110843    2.0532992918    0.6125902617