19

 C   -0.1433927051    1.5820806060    0.0210469164
 C    0.0005140590    0.0564358907   -0.0148092369
 C    0.7611973497   -0.5082889457    1.1851038084
 C    0.9399775322   -2.0241691320    1.1959716787
 C    2.2560920788   -2.2499323046    0.4566875774
 O    2.7719344673   -0.9844283550    0.0835958955
 C    2.2908628148   -0.2412354940    1.1991505501
 O    2.7400254475   -0.9698743536    2.3370023151
 C    2.2364989256   -2.2408983503    1.9641644302
 H    0.8312999945    2.0807079267   -0.0051973222
 H   -0.7186938911    1.9429594755   -0.8368283278
 H   -0.6592187934    1.9116357066    0.9299321521
 H   -0.9965226423   -0.4000018718   -0.0447994485
 H    0.5112824284   -0.2515303282   -0.9332653519
 H    0.3287221183   -0.1530018531    2.1266577114
 H    0.1216448136   -2.7303150392    1.1886838988
 H    2.5132082973   -3.0689637265   -0.1977842009
 H    2.6834137998    0.7713059558    1.1988338032
 H    2.4778974249   -3.0522503173    2.6342285610