17

 C   -0.0432929118    1.5167245565    0.1281131325
 C   -0.0244096985    0.0287197869   -0.0007460623
 C   -0.0036808450   -0.7464519557   -1.1097868820
 C   -0.0279552463   -2.2293743242   -0.7808970949
 C    0.0285046566   -2.2464265301    0.7371922808
 O    1.2081900232   -1.6513315689    1.2801033395
 C    0.0082608675   -0.8503046945    1.2122795371
 C    0.0493042271   -0.2857514857   -2.4954967104
 O    0.0903551601   -1.0349502610   -3.4499155182
 H    0.8638008442    1.8661707799    0.6368564631
 H   -0.1176188086    2.0305945294   -0.8311821704
 H   -0.8893432717    1.8338767146    0.7505960109
 H   -0.9411210814   -2.7052679095   -1.1565428078
 H    0.8146554828   -2.7621823622   -1.2332103909
 H   -0.3842521918   -3.0709189139    1.3115470743
 H   -0.3878418068   -0.5236239085    2.1697823197
 H    0.0408217804    0.8151992270   -2.6418076309