9

 N    0.0977655940   -1.1359990452   -0.0050204519
 C    0.0256583253    0.0198445164    0.0024664967
 C   -0.0950295759    1.4236082605    0.0120108284
 C   -1.1591023079    2.2756443653    0.0311920739
 N   -0.6968814111    3.5759238479    0.0322650237
 C    0.5932916808    3.4549646068    0.0141751927
 O    1.0466503037    2.1867771063    0.0008967206
 H   -2.2096191500    2.0343732230    0.0440205493
 H    1.3387304812    4.2347525790    0.0085007166