15

 O    0.1568232282   -0.0228954853    0.2840925332
 C    0.0731404118    1.1418598670    0.0671874378
 C   -1.0318816639    2.2315624119    0.0284079564
 O   -0.0809157926    3.0043075921    0.8437625086
 C    0.9851521253    2.3893481179    0.0433947994
 C    0.6912373174    2.9748977721   -1.3579155020
 O    0.7706899066    2.0248069538   -2.4412643561
 C   -0.6721708611    1.9962011738   -2.5867752804
 C   -0.8610285905    2.8982807427   -1.3481345809
 H   -2.0183447564    2.1190834266    0.4730540815
 H    1.9772438971    2.4498726373    0.4844705080
 H    1.2042336558    3.9146865742   -1.5751790428
 H   -0.9839619961    2.4602947267   -3.5289436246
 H   -1.0728718050    0.9780987225   -2.5318471809
 H   -1.4504479165    3.8067759269   -1.4599334174