13

 N   -0.1547715323   -1.2133302630   -0.1200888761
 C    0.0237081175   -0.0787954695    0.0154048086
 C    0.0989113660    1.3603666595    0.0859285098
 C    0.4896827719    2.2138090657    1.2752276852
 C    1.7212100854    1.6530027444    2.0536839463
 O    2.1470290957    0.4334104093    1.4432177867
 C    2.5328687240    1.6701028145    0.8406333055
 C    1.3361466508    2.2315782087    0.0101156943
 H   -0.7257169063    1.8151674024   -0.4594186358
 H   -0.1722906199    2.9781654327    1.6594375611
 H    1.9587701582    1.8132578758    3.0972983584
 H    3.5859820453    1.8475373370    0.6653728651
 H    1.4286987039    3.0117718426   -0.7333885591