18

 C    0.1816025756    1.4724312659    0.1111134373
 N   -0.2568807281    0.1487708759   -0.3080270759
 C    0.5123746705   -0.4749848105   -1.3561451663
 C    1.9873851884   -0.4361915614   -1.1647227774
 N    3.1300312156   -0.3809371419   -0.9946068577
 C    0.0842245395   -1.9672736025   -1.4505191695
 O   -0.3784519654   -2.5391680944   -0.4841836995
 N    0.2892795647   -2.5334568624   -2.6629741843
 C    0.0433486879   -3.9417145710   -2.9222949478
 H    1.2248974405    1.5154750598    0.4617391414
 H    0.0783415535    2.1773679660   -0.7219647097
 H   -0.4706416767    1.8157688696    0.9178510444
 H   -0.3301836879   -0.5075918090    0.4625826635
 H    0.3070836875    0.0263139010   -2.3125573628
 H    0.7141526699   -1.9779602468   -3.3878323292
 H   -0.6486703837   -4.0683303988   -3.7606633110
 H    0.9751552231   -4.4711958500   -3.1474068100
 H   -0.4009182348   -4.3682780595   -2.0230207054