16

 C   -0.2886044738    1.3747728107    0.0603095647
 N    0.0427084368   -0.0352690959   -0.0565260234
 C   -0.0093954555   -0.8605523935    1.1350979213
 C   -1.3558516727   -1.0365226496    1.6811620864
 C   -2.4608932793   -1.1828372730    2.1454965417
 C   -3.7934086116   -1.3475044641    2.6728373289
 O   -4.0593084647   -1.9947115535    3.6583889436
 C    0.3566466896   -0.5766086495   -1.2730220413
 O    0.4090511955    0.0320249496   -2.3175329606
 H    0.4015940368    1.8784455728    0.7475507775
 H   -0.2018032198    1.8157493879   -0.9323701140
 H   -1.3105023376    1.5053832202    0.4326485965
 H    0.4107912748   -1.8445069449    0.8943179861
 H    0.6338844981   -0.4327187030    1.9178262661
 H   -4.5778887237   -0.8226222781    2.0915921458
 H    0.5712974170   -1.6609332162   -1.1942753192