23

 C   -0.0329784664    1.5432739095   -0.3007478673
 C   -0.0188729553    0.0993103049    0.2174120613
 C   -1.3877059501   -0.5458289700    0.1403562116
 C   -1.8700590106   -1.2389298138   -1.1049302165
 C   -1.6089202293   -2.0591811264    0.1550226821
 C   -0.4281020553   -3.0213424142    0.1720686397
 C   -2.7603580264   -2.5303430655    0.8846026802
 C   -3.7078308222   -2.9422730759    1.5060335839
 C   -4.8561757260   -3.4358136047    2.2533259617
 H    0.9606957179    1.9973316387   -0.2351135867
 H   -0.3547171620    1.5821060223   -1.3467142170
 H   -0.7230514259    2.1645849057    0.2804764244
 H    0.7082555433   -0.4820064980   -0.3596207973
 H    0.3342584970    0.0878535014    1.2568246404
 H   -2.1541275853    0.0037949546    0.6812465008
 H   -2.8974085335   -1.1037247092   -1.4218175867
 H   -1.1597565528   -1.3668852904   -1.9168092114
 H    0.4030243741   -2.6542093280   -0.4347173045
 H   -0.0638306357   -3.1775966375    1.1925817247
 H   -0.7298784651   -3.9947257053   -0.2270311213
 H   -4.6393514498   -4.4041580010    2.7184135049
 H   -5.1429503404   -2.7442965600    3.0539075253
 H   -5.7298396703   -3.5714293676    1.6054951978