18

 C    0.0481586004    1.5415378309    0.0098212555
 C    0.0414038439    0.0459493981    0.0441831542
 C   -0.9151150562   -0.8119181087    0.8194478986
 C    0.5696158359   -0.9881281240    1.0511412077
 C    1.2626995555   -1.7143433764   -0.1135972833
 C    0.6148555295   -2.8879190976   -0.8916231403
 C   -0.0837335382   -1.7751487797   -1.7146402330
 O   -0.9672110851   -1.7279374366   -2.5176943623
 N    0.6653955613   -0.7353502719   -1.0770987588
 H    1.0459983772    1.9255769931   -0.2227030179
 H   -0.6437544615    1.9120946720   -0.7547684772
 H   -0.2679836245    1.9494335954    0.9750076226
 H   -1.4218499323   -0.2954333654    1.6290675808
 H   -1.5268523047   -1.5695234646    0.3387325601
 H    1.0176781979   -0.8204972376    2.0226512799
 H    2.3529830605   -1.7045078760   -0.0559737945
 H    1.3120137671   -3.5159361059   -1.4513950780
 H   -0.0846337165   -3.5259961249   -0.3473316744