17

 C   -0.0397782525    1.4329250884    0.0127182334
 N   -0.0536435988   -0.0161798864    0.0296614897
 C    0.5626448524   -0.6192015459   -0.9181156399
 N    1.2676172458   -0.0329993025   -1.9491136768
 C    0.5800671385   -2.0937627856   -0.9224473533
 N    1.1321465531   -2.7679461423   -1.9342835245
 N    0.9625054148   -4.0591939799   -1.6091294917
 C    0.3209468254   -4.2276425367   -0.4231844981
 C    0.0539171424   -2.9674641796    0.0569179702
 H    0.9819727665    1.8457455631    0.0081779379
 H   -0.5619456726    1.8513313528   -0.8654258388
 H   -0.5510597688    1.8138582089    0.9005900663
 H    1.0289237840    0.9116451375   -2.2009846745
 H    1.5155283672   -0.6428735936   -2.7134582370
 H    1.3053970185   -4.7695090078   -2.2331956489
 H    0.1124246104   -5.2096611155   -0.0291342725
 H   -0.4429582661   -2.6868489350    0.9689829587