16

 O    0.0391258741   -0.0787775940   -0.1494187063
 C   -0.0556968481    1.1177847632   -0.0029363665
 C   -1.4022388255    1.8260546893    0.0979630780
 C   -1.5239540351    2.7554311244    1.2799455894
 C   -0.7755018042    3.8490851109    1.3915183213
 C    0.2409028107    4.2271583813    0.3428843417
 C    1.3996148205    3.2444350207    0.2138279281
 O    2.5557233380    3.5986670530    0.2257800077
 N    1.1103141596    1.8859414500    0.0582776860
 H   -1.5480417074    2.3853675088   -0.8384623075
 H   -2.1501910920    1.0339404331    0.1196280267
 H   -2.2360755353    2.4886314573    2.0539486888
 H   -0.8626871734    4.4954614325    2.2586841909
 H   -0.2418570765    4.2942112852   -0.6437393941
 H    0.6978452649    5.1956762133    0.5441914316
 H    1.9487977099    1.3198861610   -0.0176317257