21

 C    0.1216226674    1.4449345319    0.1052132044
 C   -0.1675261657   -0.0334543460   -0.1373614221
 N    0.6318450139   -0.5347556865   -1.2492358740
 C    0.8300696499   -1.8634101277   -1.4808801363
 N    1.1458827879   -2.3916990130   -2.6004790203
 C    1.3765906472   -3.8171637234   -2.3397539764
 C    2.8197331133   -4.2210174252   -2.6501210763
 C    0.9927951419   -3.9955717921   -0.8405825124
 O    0.7137342418   -2.6584342401   -0.3788906777
 H    1.1793221514    1.6020086601    0.3347395969
 H   -0.1276001578    2.0479953214   -0.7755046389
 H   -0.4774153266    1.8180494116    0.9407860237
 H    0.0897385763   -0.6216768710    0.7455782025
 H   -1.2448320096   -0.1783997947   -0.3156805105
 H    0.5928867439   -0.0019429298   -2.1056760851
 H    0.7074227615   -4.4123736669   -2.9744513608
 H    3.5195606736   -3.6637259631   -2.0180519758
 H    2.9753621438   -5.2923833682   -2.4789032428
 H    3.0571834113   -3.9995026780   -3.6940175921
 H    0.0963427784   -4.6047914304   -0.6898426119
 H    1.8057509260   -4.4038810888   -0.2319849840