19

 C    0.1367916294    1.5100026579   -0.0919864562
 C   -0.0550538214    0.0179612563    0.0552341636
 C   -1.3253891697   -0.5698710828   -0.5564089162
 C   -1.9028977504   -1.7789277598    0.1997508437
 C   -0.8105953230   -2.7327105570    0.7256291886
 C    0.0610281282   -1.9723409964    1.7056671298
 O    0.2496469356   -2.3057499879    2.8536301221
 C    0.6383062372   -0.6958860478    1.1637115710
 O    1.1170425827   -0.7624931023   -0.1900282656
 H    1.1144872804    1.8135423036    0.2894043284
 H    0.0754218440    1.7975524721   -1.1475472448
 H   -0.6406667214    2.0572616578    0.4508591324
 H   -2.0872609540    0.2135027638   -0.6269796480
 H   -1.0741150740   -0.8529600387   -1.5861141131
 H   -2.4934720125   -1.4250121721    1.0538451834
 H   -2.5946483773   -2.3252735452   -0.4489181359
 H   -1.2401220043   -3.5949968591    1.2395686142
 H   -0.1910457635   -3.0859952123   -0.1065677120
 H    1.2656508639   -0.1418601502    1.8601295846