19

 C    0.0521073430    1.3578812447    0.4062711993
 C    0.0448704492    0.0101729043   -0.2937235272
 O    0.9688429533   -0.3556643747   -0.9832398965
 C   -1.1909994678   -0.8498597266   -0.0810001831
 C   -1.1446868398   -2.3082674464   -0.5284193518
 C   -0.1387429337   -3.0662636437    0.2822786475
 C   -1.4839681641   -2.7860093121    0.8923505286
 C   -1.5662645720   -1.3521309127    1.3856530170
 O   -0.6984999426   -1.0510464568    2.4587430514
 H    0.2004985571    1.1868010672    1.4782468404
 H    0.8691535036    1.9719943636    0.0253399184
 H   -0.9023311600    1.8812480760    0.2845836713
 H   -2.0462613027   -0.3030088475   -0.4954251017
 H   -1.5322145683   -2.6799803243   -1.4675139999
 H    0.0102846948   -4.0978752684   -0.0191887259
 H    0.7550928035   -2.5778405226    0.6534715347
 H   -2.1498011226   -3.5792578122    1.2087288073
 H   -2.5956380597   -1.0659371530    1.6283139986
 H   -1.0307497113   -0.2736137547    2.9168026915