16

 C   -0.4507765019    1.3197325847    0.0137378118
 N   -0.1580435680   -0.0961825416   -0.1038961545
 C   -0.0851371815   -0.8939037601    1.1151372569
 C   -1.3315573682   -0.8927954469    1.8807500490
 C   -2.3475561026   -0.8714289025    2.5223770253
 C    0.1236220646   -0.7262640270   -1.2982384992
 N    0.1302821895    0.0996179166   -2.4169255646
 O    0.3117186957   -1.9285750462   -1.3905429326
 H    0.4557060077    1.9373287681    0.1063279854
 H   -1.0293228047    1.6627658719   -0.8471759150
 H   -1.0636509774    1.4801731996    0.9041851926
 H    0.1677301210   -1.9086100522    0.7977386761
 H    0.7316198251   -0.5323189393    1.7575443744
 H   -3.2489162637   -0.8748160624    3.0839503579
 H    0.4576816705    1.0475686800   -2.3170899137
 H    0.5037469039   -0.3803951527   -3.2217416698