18

 C   -0.0343607266    1.3855930421    0.0480068753
 O    0.0059382507   -0.0237032510   -0.0018129645
 C    0.6546526834   -0.5171281524   -1.1445492915
 C    0.6205161321   -2.0438200361   -1.0529026598
 N    1.2669417332   -2.6759394038   -2.1900814442
 C    0.7142437567   -3.0178511864   -3.3934852381
 N    1.6142998995   -3.5175268694   -4.2000604498
 N    2.8173219931   -3.5096765062   -3.5205448926
 C    2.5862210589   -3.0056406551   -2.3361264538
 H    0.9768600862    1.8200677758    0.0647082600
 H   -0.5770488825    1.8067170228   -0.8120895572
 H   -0.5552817556    1.6626643319    0.9669164146
 H    0.1524334689   -0.1842937262   -2.0685850532
 H    1.6992457448   -0.1666887423   -1.1981240315
 H    1.1197622980   -2.3668354694   -0.1358790090
 H   -0.4166622253   -2.3843347763   -0.9989494409
 H   -0.3345036148   -2.8889916639   -3.6140829081
 H    3.3151819593   -2.8651469141   -1.5525315757