16

 C    0.0061295437    1.3459434128   -0.0300903662
 O    0.0365864217   -0.0809004860    0.0134816602
 C    0.6555706359   -0.5949116550    1.0864530437
 N    1.2134680702    0.0557154435    2.0745164675
 C    1.6984171746   -0.9394978953    2.9073552638
 C    1.4226223655   -2.1742168757    2.4007925417
 N    0.7406361827   -1.9494751007    1.2088563740
 C    0.2192176108   -2.9427604679    0.2928600780
 H    1.0207341672    1.7545817745   -0.0438089417
 H   -0.5222347418    1.6039307745   -0.9487152999
 H   -0.5197011396    1.7484908404    0.8405242308
 H    2.2180909752   -0.6957659385    3.8210124623
 H    1.6308282919   -3.1731224150    2.7462217034
 H   -0.5573143406   -3.5488915730    0.7710910986
 H   -0.2137800350   -2.4289897398   -0.5652743252
 H    1.0178397277   -3.6049029487   -0.0561495112