21

 C   -0.6567924684    0.8917692631   -0.3975931665
 C   -0.1808993526   -0.5250573835   -0.7325393305
 C    1.3304258212   -0.5713861706   -0.9557061399
 O    1.8617868670   -1.8730857844   -1.1779858624
 C    1.6042974278   -2.4073603193   -2.4264837541
 C    2.0227181338   -3.8159337373   -2.6523009280
 C    0.5282623315   -3.4852535110   -2.6257400779
 C   -0.2807209841   -3.9419794972   -1.5382836441
 C   -0.9800802376   -4.3309543600   -0.6394913888
 H   -0.1828740325    1.2669404322    0.5164877064
 H   -0.4206181494    1.5955380901   -1.2039740579
 H   -1.7393700056    0.9171540577   -0.2437771235
 H   -0.4368139815   -1.2191474114    0.0740941310
 H   -0.6975143642   -0.8890528062   -1.6274409901
 H    1.6092998188    0.0890256265   -1.7937738015
 H    1.8513240408   -0.2039742465   -0.0649088355
 H    1.7141131917   -1.7014781183   -3.2514384107
 H    2.4699019857   -4.0939658680   -3.5996921189
 H    2.4038583207   -4.3423752628   -1.7852839545
 H    0.0288235662   -3.4663635668   -3.5909192461
 H   -1.5901149395   -4.6778062064    0.1568603636