21

 C   -0.1599088237    1.5589525280    0.0011927175
 C    0.0208200702    0.0378553457   -0.0061900525
 C    0.7780430342   -0.4723346449   -1.2687157624
 C    1.9306082814   -1.3893857856   -0.8096777165
 O    2.8498303376   -0.5754887339   -0.0491105179
 C    2.2658624057   -0.0778437979    1.1522128610
 C    0.7833293664   -0.5073403548    1.2433468045
 C    0.7750695965   -2.0150310099    1.1624635555
 C    1.3793809270   -2.4860295805    0.0703783546
 H    0.7989471236    2.0847002615   -0.0550928210
 H   -0.7556804747    1.8783649523   -0.8604006953
 H   -0.6775340318    1.8954297814    0.9064292562
 H   -0.9761533967   -0.4145354692    0.0164793063
 H    0.1096403024   -1.0065363489   -1.9510833728
 H    1.2144841909    0.3662572544   -1.8216334409
 H    2.5105699530   -1.7650758879   -1.6542424752
 H    2.8233214561   -0.4683838928    2.0146034590
 H    2.3608060499    1.0158777157    1.1592577059
 H    0.3384407413   -0.1278083641    2.1669917035
 H    0.3342228799   -2.6301571922    1.9393825877
 H    1.4961407409   -3.5352560665   -0.1758855573