18

 O    0.0376756918   -0.0140214317    0.2932156888
 C    0.0273585984    1.1970038717    0.1338890921
 N   -1.1439203500    1.8896597208    0.0297627253
 C   -1.3395791212    3.3167555179   -0.1591961716
 C   -0.0422504492    4.0613131418   -0.2383112245
 C    1.1411002302    3.4617324778   -0.1449125824
 C    1.2899110659    2.0064251109    0.0452607825
 C    2.4551297252    1.4754907717    0.8791719147
 C    2.4735472593    1.2845794988   -0.5975556348
 H   -1.9630397334    1.3030910230    0.0960053962
 H   -1.9242461619    3.4946421073   -1.0761310314
 H   -1.9484095789    3.7217495378    0.6651088567
 H   -0.1169465214    5.1347505149   -0.3781122205
 H    2.0564940895    4.0455301448   -0.2079681375
 H    3.1137387294    2.2141995435    1.3224524753
 H    2.2318588188    0.6105757134    1.4918879300
 H    2.2625782448    0.2916314845   -0.9755739866
 H    3.1450698128    1.8884394811   -1.1978526825