18

 C    0.0099469963    1.4949322299   -0.1824358763
 C    0.0338237759   -0.0056871763    0.1425173140
 O    0.5604374369   -0.2381971302    1.4405939156
 C   -1.3341775463   -0.6202325691    0.0191279463
 C   -1.9444113233   -1.3333786515   -0.9850024445
 N   -3.1847706565   -1.6033076394   -0.5066522269
 C   -4.2688381879   -2.3373795613   -1.1285227577
 N   -3.3391223614   -1.0933872531    0.7287639051
 N   -2.2243140524   -0.4977327300    1.0438562117
 H    1.0087879378    1.9167189653   -0.0421123358
 H   -0.3071681323    1.6709740646   -1.2159116358
 H   -0.6874268607    2.0135701088    0.4828783022
 H    0.7139418811   -0.5091904613   -0.5549425085
 H   -0.1742238179   -0.1264125092    2.0573294535
 H   -1.6146616202   -1.6631014066   -1.9559738871
 H   -3.9663430679   -3.3667299948   -1.3393618710
 H   -5.1009796683   -2.3393799218   -0.4248999007
 H   -4.5779145228   -1.8536053640   -2.0590252840