18

 C    0.0437383027    1.4490083497    0.0853164242
 C   -0.0699146482   -0.0357348761    0.0297497463
 C   -0.0381224842   -0.8944787565   -1.0135232883
 C    0.0008100087   -2.2743449878   -0.3655015423
 C   -0.0233562938   -3.5383526184   -1.1805216866
 N   -0.9134711281   -2.1359145565    0.8189361606
 C   -0.0629961680   -0.9799836221    1.2283789755
 C    1.1186197812   -1.9066885799    0.7087085091
 O    2.2396719333   -2.1769814576    0.9714331228
 H    0.9540153402    1.7517333090    0.6180812699
 H    0.0806842870    1.8847599506   -0.9167926631
 H   -0.7987949069    1.8980229254    0.6250964107
 H    0.0968692892   -0.6780674946   -2.0651841527
 H    0.8066800679   -3.5492738939   -1.8936182035
 H    0.0667431002   -4.4137684013   -0.5328092288
 H   -0.9558871153   -3.6246600555   -1.7486626606
 H   -1.8379583668   -1.8117378106    0.5198481068
 H   -0.1490374792   -0.5954572139    2.2428784100