16

 O    0.0367816408    0.0848349652    0.1794486226
 C   -0.0454719490    1.2752431306    0.0494557753
 C   -1.2851808540    2.0632198911   -0.2422358678
 N   -1.3822167967    3.2709566662    0.6316762989
 C   -0.8692422526    3.4093498697   -0.7300275455
 C    0.6500534328    3.5064634526   -0.7689046746
 C    1.1661934365    2.2658249393    0.0236677293
 C    1.6446559496    2.5530597943    1.3667492693
 C    2.0586189163    2.7823900200    2.4712300663
 H   -2.1834032834    1.5480797595   -0.5601119571
 H   -2.3608257306    3.5484776168    0.6639393419
 H   -1.4600204438    3.9329415290   -1.4747815247
 H    0.9935551667    3.4503328004   -1.8065772444
 H    1.0091940128    4.4439709611   -0.3394875683
 H    1.9624286588    1.7571381599   -0.5297138610
 H    2.4120323859    2.9839840844    3.4518420798