21

 C   -0.5690581520    1.4343801710    0.0136348751
 C    0.0457076803    0.0219163370    0.0103427267
 C    0.7391439967   -0.2607907120   -1.3358361232
 C    1.1824708948   -1.7015165677   -1.4523135776
 O    2.4460159811   -1.9751648989   -2.0719072475
 C    2.3145539220   -2.1859015711   -0.6596717864
 C    3.0551265696   -1.2384453442    0.2712825133
 C    2.1680188995   -0.6442528504    1.3483142817
 C    0.9332583402   -0.1497376313    1.2266008790
 H    0.2080369372    2.1972249076   -0.1057681143
 H   -1.2862194256    1.5501311669   -0.8053276624
 H   -1.0941846659    1.6367920310    0.9525155559
 H   -0.7909317939   -0.6885841652    0.1161765469
 H    0.0529711704   -0.0156095995   -2.1550566431
 H    1.6083230724    0.3942264640   -1.4502736786
 H    0.3990873851   -2.4145871603   -1.7148706572
 H    2.3241883576   -3.2362500177   -0.3675541886
 H    3.8882210242   -1.7686176336    0.7437449832
 H    3.5118905337   -0.4494200261   -0.3372901356
 H    2.6050281813   -0.6256365720    2.3444943346
 H    0.4676390414    0.2141878426    2.1428516279