19

 C   -0.4411588254    1.3517770468    0.0440424309
 N   -0.0460214297   -0.0365355079   -0.0248635613
 C    0.4820533793   -0.7059878698   -1.0769521540
 C    0.6931299068   -2.0034555599   -0.6637644556
 C    0.2533265624   -2.0273394194    0.6829874281
 N   -0.1933403447   -0.8270052574    1.0595770140
 C    0.2363963965   -3.1493206192    1.6421144559
 C   -0.0469193261   -4.5639181128    1.1782454763
 C    1.3348373568   -4.1932982742    1.6361450113
 H   -0.2484781708    1.8231489089   -0.9212532964
 H   -1.5062625412    1.4335762752    0.2785238100
 H    0.1286874084    1.8721889113    0.8190190736
 H    0.6634826591   -0.2159925056   -2.0209926316
 H    1.1035157348   -2.8099775880   -1.2497740592
 H   -0.1601369542   -2.8684415444    2.6113797364
 H   -0.6541794947   -5.1946620206    1.8181212281
 H   -0.2118523627   -4.7143778676    0.1167839115
 H    2.1125867047   -4.0907812628    0.8870503992
 H    1.6828507406   -4.5678858326    2.5924966928