18

 C    1.0875195817    0.5149521206   -1.0655515795
 C    0.0388023095    0.0070526299   -0.0576778609
 C    0.6820172964   -0.6004360257    1.1660124416
 C    0.8166624807   -2.0991311863    1.2732324284
 C   -0.5240654470   -2.8110617309    1.5210441188
 N    1.1555846272    0.0740803213    2.1442357967
 O    0.9857987741    1.4616316914    1.9607885086
 H    1.7440304593   -0.2951479778   -1.3993945914
 H    0.5987751251    0.9363020777   -1.9492532056
 H    1.7064513171    1.2908842601   -0.6097800277
 H   -0.5960692753    0.8424657632    0.2509082448
 H   -0.6025203130   -0.7384714679   -0.5383793572
 H    1.2636371204   -2.4816606521    0.3454164611
 H    1.5111789788   -2.3244685787    2.0870324190
 H   -0.9653737608   -2.4844666927    2.4674751418
 H   -1.2475138813   -2.6072289335    0.7252110565
 H   -0.3802894157   -3.8947270152    1.5681689651
 H    1.3685818528    1.8164361766    2.7695212299