18

 C    0.0344063917    1.5226808143   -0.0226980361
 C   -0.0124038487    0.0305718057   -0.0498928355
 C   -0.0854533173   -0.7828315857   -1.1172484645
 C   -0.0201290798   -2.2123522786   -0.7134272328
 C    1.2561480120   -2.6457393057   -0.0072833735
 C    0.0862619170   -2.1482555218    0.8002901300
 N    0.0447350118   -0.7423926199    1.1423949059
 C   -0.0177707047   -0.3032651107    2.4360879390
 O   -0.0728673903    0.8510481124    2.8026686920
 H    0.9557431307    1.8861461230    0.4417089922
 H   -0.0185025445    1.9012214287   -1.0465129856
 H   -0.7885017392    1.9398842236    0.5620997991
 H   -0.1571417686   -0.4396259145   -2.1394114715
 H   -0.6195544962   -2.9591829279   -1.2221050690
 H    1.4526947595   -3.7105564725    0.0545539443
 H    2.1335666004   -2.0161816685   -0.1039087740
 H   -0.4401905542   -2.8129502368    1.4739315970
 H   -0.0080067398   -1.1574241853    3.1416898328