16

 C   -0.0045830400    1.3782637144   -0.0017100518
 N   -0.0808720523   -0.0641824768    0.1387759004
 C   -1.1915498528   -0.6232116091    0.0372098785
 C   -2.6753590449   -0.2639080283   -0.1430063038
 C   -2.9050962935   -1.7715565308   -0.0609866112
 C   -2.0993515277   -2.5186383643   -1.0563362999
 C   -1.7604214607   -1.9608291671   -2.3425913845
 N   -1.5025395031   -1.5227176937   -3.3812044757
 N   -1.4357367929   -2.0576836350    0.2062015905
 H    0.6723674097    1.6164283010   -0.8285682360
 H   -0.9699647422    1.8703468510   -0.1864778895
 H    0.4381103602    1.8014197510    0.9062985761
 H   -3.0792007237    0.2763207972    0.7166099184
 H   -2.9765720965    0.2399719420   -1.0642426097
 H   -3.6797298849   -2.2671654945    0.5117830746
 H   -2.2135653646   -3.5982862670   -1.0650174165