16

 O    0.0459405991    0.0194293345   -0.9016984222
 C    0.0548969380    1.1764418438   -0.5747911141
 N    1.0611725675    1.7890029610    0.1920700956
 C    2.1448151681    0.9595212086    0.5988353090
 N    3.2539606155    1.2666263452    1.1133427733
 C    3.6533401631    2.6328335064    1.3838517702
 C    2.6055106232    3.4955533200    2.1064768299
 N    1.4824142953    3.9223042263    1.2967984867
 C    0.8688973870    3.1556819625    0.5075071111
 H   -0.7424407849    1.8895814043   -0.8472288728
 H    1.9180779099   -0.0797904150    0.3790313358
 H    4.5592186604    2.5963857964    1.9981848576
 H    3.9313292370    3.1271788345    0.4433762426
 H    2.2352388392    2.9443051396    2.9808369818
 H    3.0958477778    4.3967809540    2.4898586120
 H    0.0197441937    3.5617574781   -0.0439076064