20

 C    0.5602391318    1.6526511116   -0.0060765774
 C   -0.0446482176    0.2496339135    0.0691201070
 C    0.0686481453   -0.4612868960   -1.2905736698
 O   -0.5749783493   -1.7255043919   -1.2991437423
 C    0.2294683843   -2.8126323306   -0.9153034870
 C    0.6012129756   -2.8850902295    0.5727703145
 O    1.3484206057   -3.7529473443    0.9619690660
 C    0.0401901281   -1.8051133270    1.4968378897
 N    0.5489442403   -0.4676461015    1.1954313750
 H    1.6319499595    1.6068385356   -0.2363672615
 H    0.0792405611    2.2485686738   -0.7872741326
 H    0.4428052127    2.1677459491    0.9499914621
 H   -1.1179431229    0.3352573907    0.2893737891
 H   -0.4258540078    0.1404336807   -2.0622311774
 H    1.1287829640   -0.5665572399   -1.5756663519
 H   -0.3371528382   -3.7220471931   -1.1463687583
 H    1.1622302338   -2.8592449539   -1.4990830416
 H   -1.0529152998   -1.7802888876    1.4217687888
 H    0.3154366504   -2.0807249541    2.5195032407
 H    1.5625414932   -0.4725672856    1.1345523570