22

 C    0.1233158742    1.4534873944    0.2366478301
 C    0.0917508050   -0.0517296046   -0.0323029281
 C    0.7917699695   -0.4153694495   -1.3413516247
 O    0.7959904611    0.3273005370   -2.3091961758
 N    1.3923214559   -1.6399374356   -1.3483289109
 C    1.9879971456   -2.2220366158   -2.5324005931
 C    1.5267234509   -3.6726158103   -2.7085851527
 C    2.1736622761   -4.3462973546   -3.9141463215
 O    1.7534552590   -4.4104688880   -1.5027625395
 H    1.1436623218    1.7980946115    0.4309376526
 H   -0.2478308550    1.9944074263   -0.6361116383
 H   -0.4929639991    1.7081110798    1.1034122189
 H    0.5270256496   -0.6130018168    0.8025825330
 H   -0.9487114833   -0.3911766068   -0.1235101098
 H    1.3153358919   -2.2479197712   -0.5479277812
 H    1.6989027831   -1.6022474872   -3.3846638062
 H    3.0878940875   -2.1994114534   -2.4680898048
 H    0.4366149653   -3.6759011187   -2.8237394105
 H    3.2673240652   -4.3444863381   -3.8230989939
 H    1.8383229856   -5.3835225262   -3.9946042851
 H    1.9175582750   -3.8242026577   -4.8413175067
 H    2.7018865354   -4.5713891046   -1.4345583217