21

 C   -0.0136876693    1.5284973459    0.0295039286
 C   -0.0176413971    0.0208675803    0.0956182888
 C   -1.3190793375   -0.7178375572   -0.2541689111
 C   -1.3321434819   -2.0157350153    0.5613820931
 C   -2.6533781937   -2.6062055177    0.9828679423
 N   -0.2152603194   -2.9226126925    0.2129571649
 C   -0.1013615863   -2.0379873618    1.3992446022
 C    0.7094087510   -0.7846514217    1.1280562523
 N    1.2592460794   -0.6345755185   -0.2256523508
 H    0.9623912054    1.9164146500    0.3309580592
 H   -0.2083273135    1.8768676458   -0.9918689482
 H   -0.7817266513    1.9590758991    0.6822369502
 H   -2.1751971899   -0.0993528300    0.0401806961
 H   -1.4128259147   -0.9090285394   -1.3295155868
 H   -3.2286053319   -2.9511186772    0.1154850370
 H   -2.5061700701   -3.4631771720    1.6493259811
 H   -3.2652313883   -1.8690175760    1.5138597038
 H   -0.4384089898   -3.8697248616    0.5114572153
 H   -0.0815804755   -2.4870963188    2.3865430131
 H    1.2877616211   -0.3501023110    1.9378914080
 H    1.0997396632   -1.5118595805   -0.7223548692