18

 C    0.0296130355    1.4410262267   -0.1089507440
 N   -0.0043272591   -0.0123503449   -0.0681233354
 C    0.4902828137   -0.6172569341    0.9332624241
 C    0.5074473026   -2.1341148762    0.9920152047
 N    0.3842560310   -2.6759483552    2.3420645375
 C    1.4103540476   -2.1331980825    3.2230327500
 C    1.5706784781   -0.6139234888    3.1870203803
 O    2.0949941286    0.0300251209    4.0681249629
 N    1.0650430550    0.0027322367    2.0498040766
 H    1.0540686263    1.8424344574   -0.0649192391
 H   -0.4151421424    1.7837299930   -1.0457965967
 H   -0.5429630715    1.8969062404    0.7132885907
 H   -0.2937557682   -2.5059418075    0.3520554131
 H    1.4562835821   -2.4912977652    0.5676177226
 H   -0.5344510253   -2.4535515036    2.7129814998
 H    1.2167583346   -2.4167504565    4.2598766298
 H    2.3831414084   -2.5685976091    2.9539115798
 H    1.1414294629    1.0111944786    2.0621228431