16

 O   -0.0345409850    0.0984595619    0.6293403385
 C   -0.0522565406    1.1685951733    0.0763944011
 C   -1.3669432387    1.7726568117   -0.4351223772
 N   -1.4160270683    3.1934201387   -0.7622036780
 C   -0.8354174243    4.1421404971    0.1580527304
 C   -0.1665821400    3.8658340597   -1.1627720151
 C    1.1110878760    3.0952958717   -1.1883849064
 O    1.9883973064    3.3497790505   -1.9823476048
 C    1.2343142862    1.9551764229   -0.1879414623
 H   -1.6194746257    1.2126537871   -1.3462776398
 H   -2.1497879605    1.5480339680    0.2950902053
 H   -1.3752981739    5.0774594185    0.2752274509
 H   -0.3521553572    3.7831525223    1.0649070283
 H   -0.2632118826    4.5860123945   -1.9695580923
 H    1.5465341975    2.3721121801    0.7797946199
 H    2.0292302507    1.2738761621   -0.5002514784