21

 O   -0.2822758746    1.3100531968   -0.3296302941
 C   -0.1170371516   -0.0353700442   -0.0489160325
 C   -0.3528234037   -1.1045000753   -1.0836215117
 C   -1.2110919376   -1.0826226515    0.1664193281
 C   -0.3835123266   -1.6898521741    1.3154696931
 C    0.7040343282   -0.5812079004    1.1205113292
 C   -2.6934929187   -0.9886714385    0.1886630663
 C   -3.5285969101   -0.7145254472   -1.0363442704
 C   -3.5539885293   -2.0834195696   -0.4098637294
 H    0.3818687625    1.5706331182   -0.9772310835
 H   -0.8387333672   -0.7374329555   -1.9818548100
 H    0.3660749401   -1.9054229249   -1.2521223210
 H   -0.8853914517   -1.6183644922    2.2835893229
 H   -0.0551488639   -2.7237039554    1.1664160604
 H    1.7251297902   -0.9104040740    0.8977558794
 H    0.7311103853    0.1177850433    1.9596768032
 H   -3.0802078619   -0.5567030220    1.1093849624
 H   -4.3960114222   -0.0750233338   -0.9165677389
 H   -3.0322747925   -0.6042157562   -1.9934568557
 H   -3.0434451353   -2.8833489662   -0.9351884960
 H   -4.4422819995   -2.3948687470    0.1284483381