17

 O   -0.1849972420    1.3527171501    0.0494560510
 C    0.0366533353   -0.0558967789    0.0703347580
 C    0.6198357839   -0.5334427795   -1.1811844886
 C    1.1407660512   -0.8635663452   -2.2128676517
 C    0.9081163249   -0.4357832843    1.2899446673
 C    0.2142366753   -0.0907918895    2.6180226846
 O   -0.4542139901   -1.3032223331    2.9436448828
 C    0.4346110358   -2.3069278639    2.5349035130
 O    1.0670274156   -1.8498459036    1.3488354170
 H    0.5687220766    1.7594671826   -0.3919349651
 H   -0.9489046761   -0.5128385970    0.2197648743
 H    1.5859168577   -1.1763954367   -3.1251266167
 H    1.8893646891    0.0446080380    1.1930766828
 H    0.9503185452    0.1731257420    3.3915857839
 H   -0.5209392248    0.7090300806    2.5254723663
 H    1.2000792151   -2.4991424327    3.3079889218
 H   -0.1298920928   -3.2208130390    2.3265546891