15

 O    0.0963779153    1.3748830417    0.0760330132
 C    0.0461765203   -0.0290573898    0.0327705342
 C   -1.3979025723   -0.5387782202   -0.0484339700
 C   -1.5395876838   -2.0821444280   -0.0401783027
 O   -2.3904484377   -2.3568797336    1.1060092272
 C   -2.6086133217   -1.1522180669    1.6775445036
 N   -2.1355230016   -0.0968169463    1.1531649966
 C   -3.3940253677   -1.1766704755    2.8808607314
 N   -4.0250737089   -1.1960268870    3.8477704843
 H   -0.4863902286    1.6512556047    0.7940045943
 H    0.5983863500   -0.3433188371   -0.8600800404
 H    0.5343099760   -0.4909089146    0.9079020980
 H   -1.8715421709   -0.0824819868   -0.9243493460
 H   -2.0300320420   -2.4878038463   -0.9264853798
 H   -0.5891585263   -2.6018965745    0.1185957761