17

 C   -0.3295832965    1.5647733210    0.0093723975
 C    0.0218320722    0.0838873016   -0.0250662994
 C    0.6944541314   -0.5902031245   -1.2373342912
 C    2.1429056762   -0.2179109572   -1.3988695760
 C    2.7517033206    1.0465792066   -1.0844414965
 C    3.3194940138    2.0808409355   -0.8507319867
 C    1.7533978538   -1.2554243364   -0.3368716920
 C    1.1514422340   -0.5362429412    0.8470605554
 O    1.3616254245   -0.5535365975    2.0245635761
 H    0.5159174177    2.1886288558   -0.2827496980
 H   -1.1668069197    1.7799770748   -0.6627865066
 H   -0.6318203335    1.8485624155    1.0223879013
 H   -0.8672053355   -0.5083223896    0.2358632936
 H    0.1601146198   -1.0577097418   -2.0548603467
 H    2.5967135736   -0.7017092291   -2.2619173028
 H    3.8070025779    2.9981918022   -0.6300636019
 H    2.1858548894   -2.2479547157   -0.3543566862