21

 C   -0.0705849564    1.4750581789   -0.0166020660
 C    0.0266458953   -0.0403470022   -0.0041246417
 O   -1.1704644105   -0.6415633003   -0.4961436184
 C   -1.9092952443   -1.1262355250    0.6222277162
 C   -0.8709657906   -1.6381017565    1.6467249681
 C    0.3378545029   -0.7320311980    1.3614086395
 C    1.6320677523   -1.2990152902    0.7442259065
 C    1.3537769818   -2.1035991755   -0.4942714478
 C    1.3333787388   -0.6093313323   -0.5928219464
 H    0.8438254386    1.9277438062    0.3803081617
 H   -0.2169660420    1.8370789539   -1.0395704336
 H   -0.9153997082    1.8169369889    0.5903725869
 H   -2.5194759732   -0.3208589756    1.0622114348
 H   -2.5899007005   -1.9018928578    0.2591893921
 H   -1.2386672072   -1.5574751370    2.6730774820
 H   -0.6328671250   -2.6887992795    1.4599301538
 H    0.5375646454   -0.0199716087    2.1647731332
 H    2.5787668271   -1.3699542341    1.2657593411
 H    2.2250184921   -2.5801304464   -0.9321437461
 H    0.4323609031   -2.6650229644   -0.6136809581
 H    2.0006858606   -0.0572383544   -1.2438291878