25

 C    0.2240636956    1.6263934235    0.4735949051
 O    0.4699239918    0.2802456918    0.1347543959
 C    0.7125544116   -0.5529758761    1.2405827864
 C   -0.5062043231   -1.2207119895    1.9639042293
 C   -1.8515734857   -1.1209083186    1.2505809584
 C    0.2206478554   -2.5928278119    1.8258183372
 C    1.2907795450   -1.9566875793    0.8776195579
 C    1.1002414804   -2.3379194717   -0.5922165284
 C    2.7445163495   -2.1672902191    1.2988241180
 H    1.0755613673    2.0674151870    1.0154800829
 H    0.0770474932    2.1754626579   -0.4600508684
 H   -0.6750566107    1.7444380452    1.0958954255
 H    1.3640770157   -0.0309558462    1.9589330177
 H   -0.6245400287   -0.8901109948    3.0005965171
 H   -1.7758958645   -1.3949858710    0.1950574421
 H   -2.5790321852   -1.7913773434    1.7214405252
 H   -2.2584008359   -0.1053657454    1.2960202546
 H    0.6417412716   -2.9613724081    2.7652429820
 H   -0.3778950088   -3.3939862803    1.3817123976
 H    0.0676082786   -2.2067933193   -0.9236492053
 H    1.7315123471   -1.7237530675   -1.2413286424
 H    1.3729309409   -3.3889556838   -0.7424256888
 H    3.0445016531   -3.2136454237    1.1682720903
 H    3.4218136103   -1.5493489069    0.6977132473
 H    2.8977935754   -1.9067482289    2.3519269728