16

 O   -0.1073574487    1.4134788722    0.0107934629
 C    0.0093928099    0.0007829686    0.0019348840
 C   -1.4016466390   -0.5741191558    0.0121519292
 C   -1.4072085399   -2.0941634644    0.0038222842
 O   -2.7698998085   -2.5252746778    0.0140653690
 C   -2.9711686347   -3.8556491770    0.0099403634
 N   -4.1453550666   -4.3191127594    0.0181953686
 H    0.7775133415    1.7897314542    0.0044531017
 H    0.5514178156   -0.3501656934   -0.8921121188
 H    0.5682159876   -0.3598948106    0.8816547042
 H   -1.9313255182   -0.2136383133    0.8997362074
 H   -1.9480322103   -0.2039401970   -0.8611965723
 H   -0.9005617346   -2.4822645806   -0.8913937926
 H   -0.8840794296   -2.4920516336    0.8851499475
 H   -2.0406923604   -4.4418048417   -0.0008939802
 H   -4.1152630641   -5.3366034503    0.0133950016