23

 C   -0.1521614430    1.5978810050   -0.0081742082
 C   -0.2304161048    0.0766867261   -0.1588212481
 C    0.8700456352   -0.4867012186   -1.0676251632
 C    0.8203206512   -2.0065463426   -1.2084734404
 C   -0.1461470848   -2.6244350169   -2.2167170287
 C    1.3316601201   -2.7040584036   -2.4731933589
 C    1.9888733229   -1.9646699682   -3.6174919864
 C    1.0220325954   -2.7271904437    0.0230353298
 C    1.2045015425   -3.3185314111    1.0557087675
 H    0.8061365036    1.9045849259    0.4259475086
 H   -0.2504190729    2.1013328832   -0.9768645118
 H   -0.9469681003    1.9743761259    0.6432520847
 H   -0.1589688381   -0.3990353703    0.8258309466
 H   -1.2100470324   -0.2062560152   -0.5647408789
 H    0.7854983612   -0.0273886480   -2.0582432826
 H    1.8524342303   -0.1965686167   -0.6730699026
 H   -0.6826584097   -3.5205296376   -1.9281659266
 H   -0.7233883305   -1.9252606800   -2.8148926615
 H    1.7769361435   -3.6736789670   -2.2694722504
 H    1.4803149036   -1.0265195113   -3.8540856424
 H    3.0365766842   -1.7333175146   -3.3967124208
 H    1.9688201368   -2.5814059501   -4.5228983919
 H    1.3613216159   -3.8437220407    1.9648228863