21

 C   -0.0111815515    1.5415224726    0.0077269690
 C   -0.0066310902   -0.0042637433    0.0069965130
 C    0.7561234294   -0.5153660661    1.2505668257
 C   -1.4586381174   -0.5109251624    0.0649097576
 C    0.6501711228   -0.5188839621   -1.2501370620
 C    0.2109394787   -1.3084009056   -2.2849062391
 N    1.2001498608   -1.5064478320   -3.2238740529
 C    2.2369546634   -0.8455698015   -2.7703958639
 N    1.9629037283   -0.2303181056   -1.5835780895
 H    1.0045801316    1.9509036634   -0.0202499994
 H   -0.5514443128    1.9310133169   -0.8601206731
 H   -0.4941257306    1.9237106696    0.9135120018
 H    0.2807037362   -0.1531028706    2.1684397825
 H    0.7689920245   -1.6088849172    1.2788396491
 H    1.7954081775   -0.1690563433    1.2605621820
 H   -2.0355525368   -0.1596693294   -0.7958041804
 H   -1.4966566430   -1.6042901467    0.0771475850
 H   -1.9485967107   -0.1451387220    0.9727291809
 H   -0.7663441348   -1.7482207222   -2.4089707301
 H    3.2038429519   -0.7722403072   -3.2462160743
 H    2.6006164530    0.3324021447   -1.0463811119