20

 C    0.1244910867    1.5449787028   -0.0235446179
 C    0.0565657378    0.0282580224   -0.0186675102
 C    1.1254424090   -0.7308901037   -0.7752464131
 C    1.1529221771   -0.7013304829    0.7316984122
 C   -1.3040213749   -0.6195513835    0.0261447101
 C   -2.5661175760    0.1093335426    0.3738929091
 C   -2.3832912620   -0.4153547318   -1.0436800026
 C   -2.2015795393    0.4939076533   -2.1382282353
 N   -2.0643522096    1.2136937838   -3.0344900036
 H    1.1663135602    1.8722432238   -0.0870514600
 H   -0.4061395462    1.9811536678   -0.8747149762
 H   -0.2950464395    1.9653675467    0.8973715963
 H    0.8438403265   -1.6587767402   -1.2618559749
 H    1.8668810644   -0.1550934881   -1.3179324865
 H    1.9115897550   -0.1003210242    1.2215066363
 H    0.8971996062   -1.6097696113    1.2673085416
 H   -1.2685487845   -1.6541397345    0.3571723630
 H   -3.3123077842   -0.3815529998    0.9880665277
 H   -2.5156148308    1.1839687861    0.4995759085
 H   -2.9537974859   -1.2975565894   -1.3147937944