17

 O   -0.2761625502    0.6885991288    1.7429519108
 C   -0.0127002545   -0.0616351997    0.6052354778
 C   -0.7129497837   -1.3611669593    0.3114629760
 C   -1.0094226568   -0.1254737886   -0.5298125796
 C   -2.3199855753    0.6652338474   -0.4723205431
 C   -3.0013090702    0.7057818493   -1.8377918661
 O   -4.1917420620    0.7525779816   -2.0059623632
 C   -3.3198956098    0.2870635629    0.6128674471
 O   -3.0254271518    0.0874105088    1.7697744906
 H   -1.1760066617    0.4788485613    2.0430039756
 H    1.0351148484    0.0248940740    0.3352963341
 H   -0.1589113330   -2.1658869038   -0.1598552944
 H   -1.4596359149   -1.6936977888    1.0226291621
 H   -0.5888694038   -0.1324895954   -1.5333832047
 H   -2.0596859082    1.7181442858   -0.2521371978
 H   -2.2978587797    0.7029356162   -2.6996221331
 H   -4.3692337429    0.2233549295    0.2749809280