17

 C    0.5012938191    0.8774736431    0.1200085529
 C   -0.6636339667   -0.0704187404    0.1272555231
 N   -1.6411573623   -0.1518126523    0.9126806865
 O   -0.7022629863   -0.9378849910   -0.9765455555
 C    0.2609537696   -1.8804701777   -1.1114379449
 O    1.1594472658   -2.0614873030   -0.3256828449
 C    0.0535581784   -2.6756818451   -2.3523253533
 C    1.2797096813   -2.9518807261   -3.1675571111
 N    0.6591555572   -4.0144786213   -2.3895409275
 H    1.4321141240    0.3185642463    0.2416690793
 H    0.5475591217    1.4062381389   -0.8376363111
 H    0.4076359576    1.6065514571    0.9266723678
 H   -1.5693425569    0.5559480443    1.6433447244
 H   -0.9114648560   -2.5694276327   -2.8333492424
 H    1.1749438206   -3.0374832649   -4.2449587512
 H    2.2129411026   -2.5224297409   -2.8149881930
 H    1.1813474903   -4.1367453342   -1.5220439991