12

 O   -0.0489008850   -0.0813829352    0.0039905476
 C    0.0170933678    1.1364877824    0.0091106936
 N   -1.1667447743    1.9068106253    0.0287523854
 C   -1.2285222662    3.2655673574    0.0362464657
 C   -0.0888061969    4.0076969631    0.0246351412
 C    1.1569335438    3.3159163192    0.0045582797
 C    1.2155666648    1.9551033687   -0.0029115439
 H   -2.0143080994    1.3561485142    0.0373743266
 H   -2.2223721706    3.6970716650    0.0516673043
 H   -0.1379422118    5.0875630382    0.0305929297
 H    2.0776969950    3.8918178166   -0.0049409802
 H    2.1558611529    1.4179461350   -0.0181452096