17

 C    0.0625815747    1.5579162409   -0.2251181518
 N    1.5718861242    1.4650169032    0.0812944702
 C    1.1753739507    0.2738982136    0.9576810298
 C    1.1864171153   -1.2962746114    1.1960734585
 C   -0.4242883644   -1.1001559597    1.1326886850
 C   -0.0545796014    0.0545672251    0.1555592104
 O    0.2840366336   -0.6071440987   -1.1203728214
 C    1.1437518362   -1.6388435204   -1.0248913955
 N    1.6513246210   -2.0640439788    0.0563346279
 H   -0.4063051546    2.2369092626    0.4893257774
 H   -0.1932796849    1.8328995575   -1.2505128975
 H    2.0213573489    1.1278047232   -0.7687858796
 H    0.9147166998    0.7170566721    1.9220283890
 H    1.6227207865   -1.6736466568    2.1204383320
 H   -0.9985810935   -1.9451980406    0.7481748124
 H   -0.8292999772   -0.7487821063    2.0812017185
 H    1.3669338752   -2.0768918155   -1.9948116551