18

 O   -0.6515734063    0.7968611651    0.6355044564
 C    0.1567470742    1.0022934077   -0.2375556244
 C    1.3560069708    1.8944093298   -0.1408766677
 C    1.2028787307    3.2899661133   -0.8456944301
 C    0.4471155476    3.7358370239    0.4527770014
 C    1.4921408258    2.7760847715    1.1281561072
 C    2.7843013174    3.5720467913    0.8435996995
 N    3.6660698497    2.9997851123   -0.2043821721
 C    2.5805644953    3.9368065323   -0.5769797900
 H    0.0647975454    0.4909037730   -1.2248262268
 H    2.2374220031    1.3278272550   -0.4540324796
 H    0.7733558416    3.3877574221   -1.8430436790
 H    0.4970092326    4.7963065028    0.7158819155
 H   -0.5770530550    3.3692205824    0.5202875022
 H    1.3377918605    2.3613117305    2.1222855597
 H    3.1952465506    4.2446991841    1.5871066001
 H    4.5464101356    3.5112720576   -0.2016170589
 H    2.8220134705    4.9056350252   -0.9984234136