19

 O   -0.1448197388    1.3255349388   -0.4734485868
 C   -0.3992313440   -0.0410966042   -0.7548169667
 C   -1.3195955896   -0.5764562427    0.3336237161
 C   -1.6712138091   -2.0473532092    0.1248727046
 C   -2.5451221579   -2.6146858643    1.2287838123
 O   -2.8420720266   -1.9999564000    2.2279748238
 C   -3.0373782666   -4.0301901745    1.0654274163
 C   -3.7968154910   -4.4478138099   -0.1313085579
 O   -2.4439628556   -4.8391954748    0.0478040130
 H    0.4498948556    1.6671438537   -1.1473102120
 H   -0.8756882669   -0.1630378295   -1.7425078957
 H    0.5353894463   -0.6264580777   -0.7742027777
 H   -0.8401249511   -0.4433123117    1.3080274396
 H   -2.2319014320    0.0285070444    0.3589402424
 H   -2.1656539733   -2.2094595272   -0.8424289822
 H   -0.7707518323   -2.6760290228    0.0769195060
 H   -3.2500317196   -4.5311950619    2.0085257152
 H   -4.5374625415   -5.2387517650   -0.0271216948
 H   -3.9814822661   -3.7352088314   -0.9333325957