19

 O   -0.5701747011    1.2704656468    0.7321274419
 C   -0.0971630895    0.0950827914    0.0815447691
 C    0.8198926759   -0.7456574310    1.0111071410
 C   -0.1191178147   -1.7663284630    1.5991920689
 C   -1.2983730203   -1.7890316847    0.9717806364
 C   -1.3341194448   -0.7925867391   -0.1674464201
 C   -2.4187101989   -2.6923320752    1.2883342892
 C   -3.8339037893   -2.3054021746    1.1317796037
 O   -3.2114921069   -3.1621714164    0.1808900251
 H    0.1931873601    1.8130991578    0.9540534835
 H    0.4097968708    0.3612279360   -0.8560156185
 H    1.6302629131   -1.2301381178    0.4479019978
 H    1.3017882844   -0.1110648916    1.7660187619
 H    0.1562353321   -2.4168056211    2.4226966641
 H   -2.2333222177   -0.1693545260   -0.1863342361
 H   -1.2807610808   -1.3097651119   -1.1324100927
 H   -2.1980650715   -3.4622915879    2.0282744215
 H   -4.5825824800   -2.7739419536    1.7699495473
 H   -4.0871227310   -1.3094481483    0.7734094161