13

 N   -0.0257954310    1.3363572177    0.0101465912
 C   -0.0370878833    0.0720355555    0.0035280396
 O    1.1816927273   -0.6446041332   -0.0076760373
 C    1.2184791892   -1.9782258527   -0.0149636891
 C    0.1067249542   -2.7535989354   -0.0123104304
 C   -1.1809927162   -2.0868096613   -0.0009491948
 C   -1.2373472538   -0.7424799560    0.0065119843
 C    0.2204856591   -4.1715024384   -0.0205125939
 N    0.2952272451   -5.3273200087   -0.0270893423
 H    0.9257340253    1.7029423399    0.0063008539
 H    2.2302664267   -2.3652419531   -0.0231652682
 H   -2.0818063066   -2.6888403706    0.0013402744
 H   -2.1727825058   -0.1988204537    0.0150776226