16

 O    0.0434094011    1.3835892827   -0.2639715238
 C    0.0953830787    0.0352562587    0.1570781993
 C   -1.2895707537   -0.5815611904    0.1085298086
 O   -1.8618203560   -0.5383349075   -1.2364551527
 C   -2.1734049748   -1.9234433337   -1.1821579985
 C   -0.9523915241   -2.7636115200   -1.0922650744
 C   -1.4899238905   -2.1046143408    0.1775513946
 C   -1.8841078823   -2.8347294281    1.3316639857
 N   -2.2007057678   -3.4193905071    2.2795401155
 H   -0.3341553896    1.3841488872   -1.1515989905
 H    0.7988383791   -0.5542584666   -0.4488629166
 H    0.4594935210    0.0337115152    1.1900380284
 H   -1.9651830474   -0.0602154722    0.7945239541
 H   -3.1469682967   -2.2465256485   -1.5302350573
 H   -1.1179340104   -3.8353803123   -1.1222978731
 H   -0.0223214867   -2.4214462367   -1.5330055791