13

 O    0.1073490286    1.3344137379    0.0664861806
 C    0.0743136199   -0.0037607700    0.0322768245
 N    0.0879499146   -0.5958924461   -1.1531867668
 C    0.0550565586   -1.9313724662   -1.1903543926
 C    0.0073927389   -2.7310950492   -0.0541379998
 C   -0.0066680259   -2.1038085880    1.1858326883
 C    0.0269634336   -0.7097696619    1.2538211454
 C    0.0141383522   -0.0243696215    2.5035390251
 N    0.0029033112    0.5108773564    3.5299722221
 H    0.1371149537    1.6324223210   -0.8542285184
 H    0.0676935001   -2.3773315127   -2.1812582007
 H   -0.0178839322   -3.8100994488   -0.1380458655
 H   -0.0433569689   -2.6766104808    2.1052918177