21

 C    0.1093459328    1.5390605429    0.1683052279
 C    0.0995030101    0.0222513128   -0.0544913050
 C   -1.3013208641   -0.5722585525    0.0590335393
 C   -1.5310446063   -2.1229459656   -0.0489475980
 O   -0.3934808760   -2.9190711787    0.1976792038
 C   -2.5678667834   -2.0471874260    1.1305650775
 C   -2.5962752910   -3.1090517038    2.2186941046
 C   -1.9761710253   -0.6608550146    1.4411232807
 O   -1.9140111589    0.0029590948    2.4385090385
 H    1.1261939863    1.9378593616    0.1032637948
 H   -0.4990148751    2.0519135754   -0.5850755714
 H   -0.2957785443    1.7866630066    1.1529721267
 H    0.5111277618   -0.2229665602   -1.0407065653
 H    0.7634328752   -0.4541271841    0.6771127892
 H   -1.9850428798   -0.0601089021   -0.6313497605
 H   -1.9288469116   -2.4746883998   -1.0018184357
 H    0.0302453844   -2.6285871824    1.0126953173
 H   -3.5711779015   -1.8997939569    0.7098434210
 H   -1.5897942727   -3.3439846296    2.5764295770
 H   -3.1795012220   -2.7561767552    3.0739985222
 H   -3.0430502785   -4.0385297725    1.8543406654