19

 C   -0.8266882841    1.4268558666    0.3702381258
 O   -0.8136772854    0.0461619961    0.6638291337
 C   -1.2551099296   -0.7889474053   -0.3876589335
 C   -0.2494254027   -0.9231070627   -1.5350420692
 C   -1.5941908948   -2.1677487991    0.2014701534
 O   -1.8432477594   -3.0987208697   -0.5293275919
 C   -1.6202068604   -2.3005926388    1.7160465055
 C   -2.1017139991   -3.6644346779    2.1684584092
 O   -1.5420699464   -4.3280357256    3.0015533186
 H   -0.5756214073    1.9518936489    1.2946374625
 H   -0.0904617101    1.6983414417   -0.3981790497
 H   -1.8210738399    1.7564985144    0.0315542371
 H   -2.2096397782   -0.4020910611   -0.7907431912
 H    0.7270745681   -1.2261641418   -1.1455454585
 H   -0.6016172300   -1.6847104510   -2.2333584703
 H   -0.1329220730    0.0200868209   -2.0742601024
 H   -0.6291411906   -2.0899441757    2.1295611936
 H   -2.2818538231   -1.5232866856    2.1231747227
 H   -3.0384220041   -4.0104978244    1.6841076748