16

 N    0.0396832229    0.7182249010    1.2426092524
 C    0.0023137841   -0.0026383731    0.1982384954
 O    1.0650362473   -0.8084099679   -0.1513996365
 C    1.4773064971   -0.8344036684   -1.5133796310
 C    0.6507126674   -1.7444413149   -2.4263647497
 O    1.0476805329   -2.0280999012   -3.5268300340
 C   -0.6813778234   -2.2152739053   -1.8537000642
 C   -1.5405402416   -1.0301120620   -1.4848773167
 C   -1.2176259998   -0.0635291687   -0.6181282633
 H    0.9527710552    0.6293799380    1.6932006707
 H    1.4878852313    0.1743465522   -1.9456080143
 H    2.5056706543   -1.2040140255   -1.5154606859
 H   -1.1671696137   -2.8500444552   -2.5952080670
 H   -0.4654047438   -2.8188045821   -0.9627119062
 H   -2.4980247462   -0.9615238343   -1.9926350648
 H   -1.9199158440    0.7350316675   -0.4074459248