18

 N   -0.0793495962    1.2311799430    0.1457343512
 C   -0.0600800284   -0.0287185958    0.0987604872
 O   -1.2203656591   -0.7137670020   -0.0126106126
 C   -1.1198841346   -2.1238041360    0.0174317821
 O   -0.8171789715   -2.6031067308    1.3267503095
 C   -2.0117146016   -3.3587126525    1.6472263435
 C   -2.2280326175   -4.1853639233    0.3561803354
 C   -2.4935386660   -2.7547815341   -0.2128851610
 C   -3.1565065816   -2.4380195474    1.1684945251
 H    0.8716166809    1.5882183205    0.2144386055
 H    0.8278548561   -0.6726105154    0.1330498799
 H   -0.3362366429   -2.4465948241   -0.6797882268
 H   -1.9207869445   -3.7741887767    2.6485013558
 H   -1.3723485646   -4.7501960890   -0.0217504387
 H   -3.1290426427   -4.8003767428    0.3707650921
 H   -2.9735430343   -2.5634714017   -1.1701524925
 H   -4.1424140468   -2.8946758494    1.2644618473
 H   -3.1558590147   -1.4049274423    1.5152172071