21

 C   -0.0581231770   -1.2176468529   -0.1575355594
 C   -0.0569683656   -0.0192981221   -0.0633673124
 C   -0.0205155183    1.4336093400    0.0488703262
 C    1.4112273466    2.0057056038    0.0190737948
 C    1.4366937454    3.5325506358    0.1440301796
 C    2.8448346338    4.1125862999    0.0985275256
 C    3.5640123234    4.1513066611   -1.2716328229
 O    3.6897738411    5.5863785017   -1.2198776972
 C    2.9790531576    5.6511648399    0.0325027451
 H   -0.0722310515   -2.2759590554   -0.2403533418
 H   -0.6074066490    1.8778984096   -0.7659840152
 H   -0.5162290470    1.7409285600    0.9793386714
 H    1.9919605740    1.5548157784    0.8324640338
 H    1.8962114984    1.6959757758   -0.9142551711
 H    0.8374311302    3.9793388850   -0.6618121765
 H    0.9541828276    3.8305039210    1.0853852433
 H    3.4602834668    3.6670472057    0.8857137607
 H    4.5406310089    3.6555083295   -1.3270388160
 H    2.9529007480    3.8238055704   -2.1247491377
 H    2.0278696813    6.1936425637   -0.0620836030
 H    3.5778961055    6.1229142691    0.8211642929