21

 C    0.9345518638    1.1696877826   -0.0604748529
 O    0.9377282098   -0.2211642866   -0.2792517952
 C   -0.1620855532   -0.6648407711   -1.0388991358
 C   -0.0678361300   -2.1823282803   -1.2128285429
 O   -1.2520647920   -2.6684034773   -1.8382311324
 C    1.1982098467   -2.6060356044   -1.9587511634
 C    1.3421978843   -4.1381502145   -2.0426956158
 C    2.4950569493   -4.5584431623   -2.8284828956
 C    3.4503289268   -4.8783236436   -3.4845691526
 H    0.9836052819    1.7314723832   -1.0066756508
 H    0.0342731444    1.4940595859    0.4844753789
 H    1.8163255404    1.4088818962    0.5386571121
 H   -1.1145485846   -0.4211398071   -0.5419196485
 H   -0.1740871533   -0.1756016579   -2.0315397521
 H   -0.0695608799   -2.6360666927   -0.2143624047
 H   -1.2655191536   -2.3331005721   -2.7422302355
 H    1.1747396638   -2.1868924832   -2.9745697437
 H    2.0678580093   -2.1691000063   -1.4603576036
 H    1.4199655631   -4.5506480991   -1.0280455217
 H    0.4243179335   -4.5583725851   -2.4697316885
 H    4.2918243295   -5.1749104242   -4.0596931452