17

 O    0.0448926980    0.0824902448   -0.1549381669
 C    0.0863299136    1.2655974857   -0.0579632150
 O   -0.9854740125    2.1338432441    0.0838498326
 C   -0.0968137699    3.2677256958    0.2015725451
 C   -0.3073571036    4.6742844474   -0.3100304943
 C    0.6528055563    5.1351815155    0.8440416076
 C    0.5104418923    3.7417663245    1.5513344142
 C    1.6946322381    2.7544861402    1.3878888022
 C    1.1414247610    2.3744025865   -0.0284529338
 H   -0.0305359648    4.8961229843   -1.3436896257
 H   -1.3313013912    5.0160000751   -0.1332517092
 H    1.6695693062    5.3438233829    0.5028641874
 H    0.2992458603    5.9856421826    1.4276122922
 H   -0.0549210759    3.7476785844    2.4828119801
 H    2.6854318253    3.2144991565    1.3676604595
 H    1.7115108122    1.9252953844    2.0985982049
 H    1.7964206346    2.4311850353   -0.8971101611