19

 C    0.1653616498    1.2534757119    0.6362026604
 C   -0.0251156111    0.0715111956   -0.2946385735
 O    0.8284387866   -0.2319429903   -1.1015834785
 C   -1.3096537709   -0.7213261007   -0.1701641433
 C   -2.4955465634   -0.0575244175    0.5073315731
 C   -1.5671506274   -1.7237624956   -1.2550585191
 C   -1.1559842694   -2.2428460398    0.1031877069
 C    0.1610327728   -2.9079974930    0.2860732914
 O    0.3362994513   -3.7948318286    1.0881690292
 H    1.1506589908    1.6866268395    0.4638871928
 H   -0.6042709352    2.0136389766    0.4653891033
 H    0.0754488309    0.9396707976    1.6820639659
 H   -2.7953970123    0.8528138280   -0.0233341711
 H   -3.3564656716   -0.7315387354    0.5119801701
 H   -2.2812860106    0.2107516270    1.5460826150
 H   -2.5927668204   -1.8904991190   -1.5638448284
 H   -0.8212841752   -1.7734097313   -2.0406167555
 H   -1.9276746372   -2.6600341007    0.7426408974
 H    0.9736019324   -2.5511576542   -0.3753323759