20

 C   -0.0151769294    1.5850656860   -0.0135758485
 C   -0.0422371790    0.0557246249   -0.0490963109
 C    0.7543845240   -0.5205839994   -1.2367874232
 C    0.7859633392   -2.0146406852   -1.2586744954
 N    1.7504483676   -2.7663694067   -0.7441737428
 C    1.3111620055   -4.0304754810   -0.9748162915
 N    0.1475125124   -4.1192243140   -1.5949996632
 N   -0.1819505835   -2.8130443982   -1.7742879059
 C   -1.4382678075   -2.4756971515   -2.4088945980
 H    1.0101550305    1.9600708335    0.0751600879
 H   -0.4459884386    2.0128409347   -0.9259730016
 H   -0.5859810410    1.9705701543    0.8364530218
 H    0.3749977335   -0.3507039452    0.8789316554
 H   -1.0805477226   -0.2958752118   -0.0990835624
 H    0.3469093717   -0.1300505455   -2.1775179692
 H    1.7929248156   -0.1822155681   -1.1766076552
 H    1.8655644333   -4.9110712344   -0.6854098567
 H   -2.2750517104   -2.6098827593   -1.7163695915
 H   -1.4129421002   -1.4370233969   -2.7408475248
 H   -1.5862084909   -3.1279496661   -3.2712167942