12

 C    0.0465767343    1.4291625021    0.0591052560
 N    0.2494202117   -0.0072867995    0.0883879262
 C    0.6648353725   -0.5965042590   -0.9307138804
 O    0.9844926604   -0.0653505830   -2.1664964219
 C    1.3954251177   -1.1217148046   -2.9574251772
 C    1.3320735969   -2.2412072785   -2.2473056824
 O    0.8799473289   -1.9502897663   -0.9774256623
 H    0.6605661835    1.8968201411    0.8371027020
 H    0.2863150372    1.9007861797   -0.9015499497
 H   -0.9984683777    1.6516479970    0.3027162599
 H    1.6879226315   -0.8982989026   -3.9677599242
 H    1.5543439931   -3.2703067563   -2.4651657659