19

 C    0.7245620125    1.3278999659   -0.0830842680
 C   -0.0753611409    0.0051174947   -0.0337865274
 O   -1.4531729781    0.2963937193    0.0747119237
 C    0.1595674651   -0.8474760812   -1.3104788586
 C    1.0174209439   -2.0916945005   -1.0420004322
 C    2.0858898196   -1.7836596862   -0.0049230462
 O    1.4773241456   -1.4439033770    1.2575872649
 C    0.3487384849   -0.7171592652    1.2588512359
 O   -0.2859741839   -0.5843338906    2.2763652458
 H    1.8014866799    1.1640259897   -0.1908790551
 H    0.3733191771    1.9115057450   -0.9384837620
 H    0.5502820072    1.9053047627    0.8290369657
 H   -1.6406827778    0.2983348153    1.0264117337
 H   -0.8219232242   -1.1289448067   -1.6962745949
 H    0.6401331664   -0.2239709180   -2.0714917539
 H    0.3995091492   -2.9109582274   -0.6561158274
 H    1.4891748447   -2.4504189806   -1.9621916023
 H    2.7142199778   -2.6496587449    0.2134693107
 H    2.7383940010   -0.9623885642   -0.3268830724