18

 O   -0.1790516698    0.2056566162   -1.0629902878
 C   -0.1497983100    1.3240093598   -0.6237791463
 C   -1.1359796730    2.2605176325    0.0768789321
 C   -0.5389205474    2.6613826090    1.4264765035
 C    0.0118725999    3.2421434013    0.1599660078
 N    0.8694403386    2.2781670498   -0.5398071758
 C    2.2913184756    2.1588723722   -0.5031007437
 C    3.0177618490    1.6144060655    0.7129207011
 C    2.9221605640    0.7953161732   -0.5495172053
 H   -2.1692527050    2.4324815474   -0.1855585883
 H   -1.1710114696    3.3112619638    2.0262070904
 H    0.0446910773    1.9466384096    1.9978772033
 H    0.0206792433    4.2914418676   -0.1037413473
 H    2.7960308642    2.9506977982   -1.0506959508
 H    3.9691099045    2.0640976943    0.9756413592
 H    2.4186243040    1.3023578751    1.5602255242
 H    2.2504322654   -0.0534147367   -0.5594070279
 H    3.8091266490    0.6799087013   -1.1618553284