17

 C   -0.0452282655    1.5630636852    0.0220738054
 C    0.0694898145    0.0559304553    0.0521757295
 O   -1.0981854698   -0.5928815017   -0.4041180895
 C    1.3248706942   -0.7279432539   -0.2498183269
 C    2.5819801914   -0.0592163875    0.3172156936
 C    1.9329892375   -0.0762722469    1.7421704198
 C    0.6871511459   -0.7483534972    1.1565844960
 H    0.8409208902    2.0608563588    0.4216532511
 H   -0.1838532110    1.9170355082   -1.0074492014
 H   -0.9129752063    1.8844594502    0.6069407852
 H   -1.1811873685   -0.4132133167   -1.3472746947
 H    1.3039080247   -1.5012383153   -1.0093009485
 H    3.4610368129   -0.7052688300    0.2631299147
 H    2.8507750049    0.9167511713   -0.1002985379
 H    2.4750507680   -0.7307532060    2.4279346495
 H    1.7839602866    0.8884699098    2.2377425453
 H    0.1072804603   -1.5340445538    1.6253512389