18

 C    0.2736189195    1.0026721121   -0.6734548035
 O    0.0174347940   -0.3695594740   -0.4151413372
 C   -1.3334690412   -0.6673361991   -0.1011442320
 C   -1.5767445180   -2.1595739876   -0.4738289047
 N   -1.9444635550   -2.8069311290    0.7914193378
 C   -1.9160116490   -1.9055407759    1.8020203704
 C   -1.6560165513   -0.6351770110    1.3900887618
 C   -1.7218669775    0.5126190075    2.2530548048
 O   -1.5162690616    1.6730153216    1.9353398566
 H    1.3428733716    1.0855544732   -0.8835287659
 H   -0.2868750329    1.3492764231   -1.5561943003
 H    0.0060640836    1.6342207937    0.1792814933
 H   -1.9917073029    0.0003581600   -0.6735318431
 H   -2.3763243942   -2.2834791380   -1.2101261194
 H   -0.6499957682   -2.5702116337   -0.8844371078
 H   -1.8145667512   -3.7929180029    0.9434642688
 H   -2.1242344418   -2.2316448504    2.8150651105
 H   -2.0001973439    0.2630879306    3.3041790699