17

 C   -0.0341593996    1.5274770528    0.0496297697
 C   -0.0295290125    0.0326907970   -0.0230064048
 C    1.0027545188   -0.8684320592   -0.6683414783
 O    0.4292807649   -1.8878121294   -1.4447477387
 C   -0.7497448766   -2.1321327460   -0.7296132770
 C   -0.5650582992   -1.9268274959    0.7782067878
 C    0.6856835308   -1.0318215101    0.8118147875
 C   -1.2868726717   -0.8877466013   -0.0599085882
 O   -2.5987466995   -0.4749911167    0.0056818152
 H    0.9785338145    1.9154091869    0.2007071310
 H   -0.4244563459    1.9726322028   -0.8733233816
 H   -0.6560101856    1.8817673517    0.8789052673
 H    1.9564080881   -0.5128705270   -1.0371301739
 H   -1.3861151503   -2.9072759226   -1.1355800684
 H   -0.9167542516   -2.6147307032    1.5335133243
 H    1.4042578253   -0.9326080397    1.6136446533
 H   -2.9140645000   -0.3137957200   -0.8911229853