15

 O   -0.0373818671   -0.0225885000    0.0242848693
 C    0.0209788433    1.1890967764    0.0233738038
 N    1.1736164923    1.9100002154    0.0296425508
 C    2.4737750877    1.2691200858   -0.1742512861
 C    3.2668163035    2.3282311679   -0.9122600460
 O    2.5996807895    2.8252365476   -2.0773916166
 C    2.5202197839    3.5906083569   -0.8744571749
 C    1.2333622924    3.3644782054   -0.1035412959
 H   -0.8760908397    1.8397743305    0.0259809311
 H    2.9657564007    1.0219355007    0.7765437714
 H    2.3346520293    0.3426194045   -0.7364717772
 H    4.3497995865    2.2701463899   -0.9652118929
 H    2.9839682861    4.5725369130   -0.8901699194
 H    0.3501074954    3.7425734815   -0.6276498630
 H    1.2982793461    3.8706344546    0.8708114956