17

 N   -0.1218033172   -1.1689109305   -0.1549245013
 C   -0.0816966860   -0.0171817753   -0.0602306766
 C    0.0099522465    1.4347043447    0.0517892669
 N   -0.2918775363    2.0145537935    1.4199121408
 C    0.7459478265    1.4984185308    2.3392595318
 C    1.1188688630    2.5993940510    1.4311477724
 C    1.4154131852    2.0714421851    0.0500304347
 C    2.7015873694    1.5520982667   -0.5161812570
 C    2.0539605190    2.7902574403   -1.0956981427
 H   -0.6635573522    1.8952763355   -0.6755885132
 H    0.5268918905    1.7470222093    3.3726703954
 H    1.1473546002    0.5003256806    2.1827274729
 H    1.3016637756    3.6146448870    1.7677912946
 H    3.6014758173    1.6702746202    0.0782302486
 H    2.6615262137    0.6347929482   -1.0943923307
 H    1.5856350271    2.7165698329   -2.0721456949
 H    2.5144148977    3.7521658199   -0.8940667815