16

 N   -0.0303375819    1.3056769387   -0.0819801350
 C   -0.0588529739   -0.0588725146    0.0043453651
 N   -1.1223269178   -0.7685101869    0.0791440011
 C   -0.7514320330   -2.1820069158    0.1848652992
 C    0.7542626354   -2.2222175643    0.0244018566
 N    1.5511082658   -3.1784713170   -0.2194421640
 O    0.8809161140   -4.4063319232   -0.3006895020
 C    1.2657875178   -0.8012263231    0.0973823718
 O    2.1467512494   -0.4097925273   -0.9399205441
 H    0.7855158833    1.6876114310   -0.5373108796
 H   -0.9038775321    1.7358498091   -0.3492942555
 H   -1.0632153122   -2.6072759879    1.1490743200
 H   -1.2493730164   -2.7814542469   -0.5865526267
 H    1.5936929771   -5.0216337205   -0.5044877649
 H    1.7284709269   -0.6057293335    1.0803486260
 H    2.7297535276   -1.1599374577   -1.1070049779