19

 C    0.1242411165    1.4995060370   -0.0101365717
 C   -0.0552353885   -0.0141967721   -0.0499759375
 N    0.6713327976   -0.5894335364   -1.1640874566
 C    0.7968667925   -1.9290295325   -1.3351947671
 N    0.3504074749   -2.7884858143   -0.4962908518
 C    1.5278527765   -2.2523185554   -2.6295971375
 O    1.8856881720   -1.4164952284   -3.4257386202
 O    1.7182361921   -3.5670946619   -2.7817221929
 C    2.3948241006   -3.9576329318   -3.9849702237
 H    1.1793366963    1.7687711072    0.1014029040
 H   -0.2530299210    1.9682912181   -0.9259741989
 H   -0.4272952088    1.9247274886    0.8323991622
 H    0.3095799534   -0.4766187185    0.8740273658
 H   -1.1213552599   -0.2750848438   -0.1170116610
 H    0.9691758028   -0.0101963209   -1.9327515208
 H    0.5799481750   -3.7269081697   -0.8142283134
 H    3.3916750303   -3.5118869626   -4.0232886163
 H    2.4606656175   -5.0443983723   -3.9475716677
 H    1.8290775000   -3.6351896103   -4.8623287649