18

 C   -0.1767261060    1.4567533679    0.1655562331
 C   -0.0097452762   -0.0067473290   -0.0543283068
 N   -0.2188555590   -0.6450443282   -1.1316431856
 C    0.0847584222   -2.0495816518   -0.8443240577
 C    0.5165544967   -2.0820222171    0.6405458253
 C   -0.1349279854   -3.0739072265    1.6253478552
 O    1.1305372386   -3.7134332300    1.8838489254
 C    1.8347559254   -2.7639721268    1.0593383570
 O    0.4156084096   -0.7072997720    1.0420699562
 H    0.7716006673    1.9032554842    0.4806607899
 H   -0.5166351183    1.9288845039   -0.7553965741
 H   -0.9030122455    1.6396157352    0.9636937014
 H   -0.7977430368   -2.6732343672   -1.0292054870
 H    0.8775046681   -2.4095639927   -1.5105834081
 H   -0.5556936633   -2.5951385294    2.5178337305
 H   -0.8692676558   -3.7664538890    1.1950304566
 H    2.4002166502   -3.2519920341    0.2555097432
 H    2.5010957282   -2.1141447473    1.6394328353