20

 C   -0.5675709735    1.3557504693    0.0700066906
 C    0.1142536142    0.0050210412   -0.0423412885
 C    0.9741721017   -0.2636653337   -1.2968705617
 C    2.1629977295   -0.3240737079   -0.3094342146
 O    1.2767721910   -0.0994517887    0.8174256814
 C    2.9281115062   -1.6095207233   -0.2061572206
 C    4.2211848140   -1.7678096743   -0.9715809135
 C    4.2435258941   -1.6442813814    0.5295325909
 H    0.1249297161    2.1651285976   -0.1831340392
 H   -1.4282489416    1.4096434554   -0.6063210472
 H   -0.9246965292    1.5185754781    1.0917727388
 H   -0.6024160321   -0.7951006441    0.1885861614
 H    0.7661066119   -1.2011851291   -1.8162821817
 H    1.0046006185    0.5503914029   -2.0238920818
 H    2.8708234480    0.5118676383   -0.4132679063
 H    2.3011102543   -2.4932671123   -0.1200703358
 H    4.4365147728   -2.7323981569   -1.4170082516
 H    4.5714732155   -0.9229043182   -1.5559051968
 H    4.6053020730   -0.7156308623    0.9584852239
 H    4.4760973254   -2.5247944806    1.1175689520