19

 O   -0.0969753414    1.4031675464   -0.2503045889
 C    0.0037430363    0.0154843121    0.0341025890
 C   -1.3922062427   -0.5864695499   -0.0475419134
 C   -1.4143769702   -2.0904184768    0.2500148928
 C   -2.8036425046   -2.6878969910    0.1725038386
 C   -3.3665673145   -3.1426894940   -1.1512802637
 C   -2.9953415648   -4.1579550923   -0.0964380024
 H    0.7845188214    1.7842871709   -0.2034568210
 H    0.6696471902   -0.4908891322   -0.6847307897
 H    0.4247785271   -0.1552589451    1.0391783144
 H   -2.0411479069   -0.0539554785    0.6588121211
 H   -1.7991346897   -0.3961102962   -1.0475923679
 H   -0.7588382603   -2.6163162305   -0.4580068342
 H   -0.9921108127   -2.2734317858    1.2482238311
 H   -3.5192531740   -2.2368147498    0.8563433992
 H   -4.4177491622   -2.9732561176   -1.3566107951
 H   -2.7273918219   -3.0661516042   -2.0253780114
 H   -2.1088002993   -4.7611096444   -0.2645759237
 H   -3.7936444799   -4.6800247110    0.4196017951