20

 C   -0.6261618251    1.0974916804    0.0135007156
 C    0.8807115269    1.1926220929   -0.0003074929
 C    0.2185467543   -0.1556643523   -0.0010005496
 C    0.2578888545   -1.0744108656    1.2243332126
 C   -0.3984868802   -2.3643463578    0.7516041923
 C   -1.7062828765   -2.2489665166    0.0064348844
 C   -0.4128750789   -2.3565010418   -0.7645728130
 C    0.2345364638   -1.0616784659   -1.2363013907
 H   -1.1449766539    1.3568163424    0.9312402365
 H   -1.1622742906    1.3662490228   -0.8914948085
 H    1.3631200630    1.5261977050   -0.9137294318
 H    1.3804012088    1.5167743097    0.9071978249
 H    1.2964093722   -1.2823247017    1.5150898063
 H   -0.2365224105   -0.6246265221    2.0933002732
 H   -0.2006781553   -3.2764680253    1.3038260603
 H   -2.3527253132   -3.1200384364    0.0080611228
 H   -2.2370110104   -1.3026407722    0.0163684601
 H   -0.2256715579   -3.2628408155   -1.3298570572
 H   -0.2762336700   -0.6029753716   -2.0910281000
 H    1.2673313390   -1.2664700986   -1.5488511453