29

 C   -0.1556153917    1.5269815157   -0.2232405335
 C   -0.0336274680    0.0095344269   -0.0603338832
 C    0.7220375682   -0.4032405193    1.2096178806
 C    0.8339095879   -1.9265616923    1.3547577859
 C    1.5760606056   -2.4846692355    2.5990979891
 C    3.0368163431   -1.9967357039    2.6142266116
 C    0.8670309781   -2.0359831708    3.8906440221
 C    1.5298839019   -4.0324070645    2.4729068607
 C    2.1971707773   -4.8501648186    3.5848572764
 H    0.8313658652    2.0003133999   -0.2751665971
 H   -0.6986708197    1.7897712771   -1.1366376609
 H   -0.6904918999    1.9742887607    0.6221579963
 H   -1.0357084268   -0.4395620492   -0.0471417080
 H    0.4742604185   -0.4137282207   -0.9372194708
 H    1.7203611542    0.0516179630    1.1886939143
 H    0.2089477095    0.0255864875    2.0795822664
 H   -0.1805526925   -2.3499135567    1.3459971265
 H    1.3292047130   -2.3236478247    0.4572915038
 H    3.0941272415   -0.9066852203    2.6871899995
 H    3.5865750529   -2.4039845896    3.4680442534
 H    3.5640919477   -2.2988786971    1.7018386632
 H   -0.1778303601   -2.3674277092    3.9037329723
 H    1.3578051633   -2.4434540592    4.7795785716
 H    0.8727851559   -0.9467927830    3.9929073732
 H    0.4767210048   -4.3351045684    2.4000601919
 H    1.9875877379   -4.3078033335    1.5133519639
 H    2.0954431965   -5.9203002634    3.3770695002
 H    3.2671791221   -4.6373513862    3.6687463103
 H    1.7422021736   -4.6659788347    4.5627664703