21

 C    0.2141443847    1.5351288777    0.0287575530
 C    0.1037410413    0.0045284884    0.0570994554
 C    1.0026326758   -0.5643953559    1.1788382234
 C   -1.3645252226   -0.4134795035    0.2962882308
 C    0.5775218988   -0.5625328804   -1.2903543596
 O    1.0193348062    0.1345332787   -2.1738090882
 C    0.4635814006   -2.0594368452   -1.5088355952
 C    0.1143726309   -2.5424978989   -2.8617123880
 O    1.4424719281   -2.6256912226   -2.3805834999
 H    1.2431976034    1.8526084448   -0.1554349605
 H   -0.4048563059    1.9610764003   -0.7651225181
 H   -0.1137444871    1.9524783298    0.9863061561
 H    0.6921599627   -0.1505735214    2.1439508912
 H    0.9401508067   -1.6539377519    1.2521305115
 H    2.0513246889   -0.2950284913    1.0193219506
 H   -2.0196888337   -0.0299451866   -0.4924438472
 H   -1.4886896907   -1.4995013753    0.3428200830
 H   -1.7133574795   -0.0027121743    1.2494448310
 H    0.2079940342   -2.6843391545   -0.6568468851
 H   -0.4172955779   -3.4876046595   -2.9644103289
 H   -0.0482229649   -1.8010143983   -3.6411608751