18

 C    0.2093900509    1.5825239809   -0.0437552258
 C    0.0741085920    0.0697340822    0.0341470853
 O    0.7066004265   -0.5020807998   -1.1093972170
 C    1.2032286055   -1.7996019524   -0.8006532875
 C    1.4571130342   -1.7925248885    0.6921773613
 N    2.2053794156   -0.5916571860    1.1454514605
 C    0.7523381920   -0.5848114036    1.2320312447
 C    1.5232739813   -3.0322209284    1.4895196533
 O    1.3829134645   -4.1447495875    1.0448807572
 H    1.2639923992    1.8638577614    0.0034829996
 H   -0.2106340302    1.9465086968   -0.9849908154
 H   -0.3281757509    2.0612979436    0.7808757858
 H   -0.9921193188   -0.2143351152    0.0640641754
 H    0.4765634414   -2.5899847218   -1.0367572261
 H    2.1065707143   -1.9612540301   -1.3952186751
 H    2.6076789375   -0.7694645879    2.0658710370
 H    0.2594012164   -0.5922411966    2.1996541202
 H    1.7244310685   -2.8571587671    2.5746460366