19

 C    0.1087922141    1.5013149700   -0.1211958268
 C   -0.0348226369    0.0330917551    0.1669534431
 O    1.1807830535   -0.7641187793    0.0903325258
 C    0.4692183068   -0.7128607035    1.3446675219
 C    1.2781085020   -0.1558429403    2.4852726780
 O    2.3082886776   -1.0579612644    2.8630040109
 C   -0.4368505986   -1.9254694471    1.5607365844
 C   -1.4331827270   -1.8195878857    0.4274958706
 C   -1.2280184849   -0.7352751395   -0.3218023233
 H    1.0116085483    1.9113988149    0.3351728554
 H    0.1730351190    1.6691124986   -1.2020135041
 H   -0.7590716446    2.0551169183    0.2519404071
 H    1.6891289652    0.8260302894    2.2122866408
 H    0.6478962131   -0.0239705464    3.3711974151
 H    2.8348044585   -1.2154935201    2.0705986720
 H    0.1327411157   -2.8611093772    1.5320619113
 H   -0.9261692495   -1.8844877824    2.5427779456
 H   -2.1950278252   -2.5705542369    0.2512901871
 H   -1.8045314971   -0.4353686834   -1.1888251650