18

 O    0.8116246896    0.0457511951   -1.0990561455
 C   -0.0829461470   -0.0046730725    0.0114518339
 C   -1.3037430141   -0.7514831678   -0.3065202753
 C   -2.2723673572   -1.4155740419   -0.5664342685
 C    0.6008414139   -0.5803420479    1.2567188586
 C    1.8564636585    0.1859192439    1.8117030137
 C    1.1100137873    0.3562531529    3.1390285905
 N   -0.1211806751    1.1180179436    2.8187108937
 C   -0.0881162814   -0.3520133073    2.6109653900
 H    0.9373924781   -0.8575300897   -1.4105195340
 H   -0.3382125076    1.0383428882    0.2233602440
 H   -3.1419657530   -1.9767006760   -0.8050265956
 H    0.8231500160   -1.6401130292    1.0983787148
 H    2.7358509376   -0.4569284435    1.8813998017
 H    2.1191766616    1.1134796457    1.2987837979
 H    1.5231128730    0.3696033525    4.1399385157
 H   -0.6151367337    1.2801868846    3.6957211265
 H   -0.8030383366   -0.9973528707    3.1054248578