25

 C   -1.5364259714    0.9033213737   -0.6498306507
 C   -0.0573445877    0.7330712488   -0.2844734615
 C    0.7178921402   -0.1061702291   -1.2990081156
 C    2.2407010595   -0.4495598749   -1.0472463254
 C    2.9497913236    0.0426557233    0.2107566256
 C    1.8943883927   -1.9397465523   -1.1626882730
 C    0.8331177467   -2.3353933130   -0.1701428960
 C    0.4198580758   -1.6170539308   -1.4265878563
 C   -0.5155712257   -2.2207149057   -2.4373720389
 H   -1.6507292679    1.3586996608   -1.6401510006
 H   -2.0542469972   -0.0611877181   -0.6679647594
 H   -2.0538445413    1.5428933177    0.0723037893
 H    0.4146856482    1.7217532295   -0.2102758845
 H    0.0181378724    0.2888721973    0.7148938871
 H    0.6175632620    0.3664751939   -2.2837229117
 H    2.8211341071   -0.1339449894   -1.9202851038
 H    2.4328787907   -0.2628172730    1.1253197359
 H    3.9667515602   -0.3627284834    0.2584000077
 H    3.0295314217    1.1353104211    0.2228546539
 H    2.5157463974   -2.6859371482   -1.6464938597
 H    0.5960285362   -3.3951384631   -0.1545132387
 H    0.7713080438   -1.8660927713    0.8085041465
 H   -1.5663843024   -2.0486645802   -2.1748909227
 H   -0.3525114098   -1.7950326794   -3.4347425840
 H   -0.3702556446   -3.3041587943   -2.5101815434