19

 O   -0.0907048764    1.3183675542    0.0095436535
 C    0.0263069980   -0.0547219116   -0.0013835755
 C    0.6657332372   -0.9743002211   -1.0959239863
 C    0.0363265336   -1.9188872275   -0.0169421351
 O   -0.0659223773   -3.2931459312   -0.0290137770
 C    0.6544627350   -0.9926050079    1.0841563892
 C   -1.1837446702   -0.9932831610   -0.0154716744
 C   -2.4592401483   -1.0065120161    0.7436416063
 C   -2.4513127352   -0.9936495248   -0.7878722367
 H    0.7911624740    1.7040971875    0.0168053852
 H    0.1885816271   -0.9686700993   -2.0778704096
 H    1.7594118649   -0.9678836088   -1.1593977710
 H    0.8200320478   -3.6694557453   -0.0266036897
 H    1.7474257824   -0.9873621284    1.1590364558
 H    0.1671840901   -1.0033741922    2.0610760646
 H   -2.7622497955   -1.9253291462    1.2361441673
 H   -2.7721103145   -0.0994013342    1.2514393886
 H   -2.7589746249   -0.0780939330   -1.2835522316
 H   -2.7491415677   -1.9040261831   -1.2988593834