17

 C    0.0322905132    1.5298323405    0.0123318396
 C   -0.0349495838    0.0362859781   -0.0346271198
 C   -0.8508592460   -0.8290796361    0.8332211162
 N    0.6323283651   -0.8679494044    1.0250054671
 C    1.1476452730   -1.6951160024   -0.0627429543
 N    1.9073797480   -2.6928050220   -0.0731889602
 C    0.5589531076   -0.8228241847   -1.1424556949
 C    0.1595929805   -1.0703965635   -2.5293350253
 O    1.3188754379   -0.2899657599   -2.2050495074
 H    1.0023475536    1.8839668609   -0.3467850513
 H   -0.7442138795    1.9703205693   -0.6230697471
 H   -0.1188982825    1.8893087770    1.0336128634
 H   -1.3601848413   -0.3720736396    1.6765240393
 H   -1.3446807397   -1.7098655505    0.4292143980
 H    2.1565088816   -2.9649824137    0.8815712555
 H    0.3657396387   -2.0413843867   -2.9751214349
 H   -0.6745451263   -0.5140431223   -2.9543283141