23

 C    0.0885726272    1.5606691940   -0.0928767945
 C   -0.0195360493    0.0343916818    0.0208293943
 C   -1.4522639908   -0.5314630587    0.0498602143
 C   -2.2294108590   -0.0727068899    1.2973828674
 C   -2.2520029308   -0.1798593513   -1.2377238200
 O   -3.1595146954   -1.2536400903   -1.4794959352
 C   -2.5886262091   -2.4201351845   -0.9433785558
 C   -1.1661963380   -2.7604006181   -1.3054900619
 C   -1.4868258546   -2.0625972186    0.0079865957
 H    1.1376895481    1.8678939297   -0.1448976406
 H   -0.4065229549    1.9357066389   -0.9951170466
 H   -0.3575858334    2.0701793835    0.7666683441
 H    0.5145739734   -0.4245750837   -0.8200890663
 H    0.5041882643   -0.2970097593    0.9267796893
 H   -2.3027050029    1.0176174313    1.3497969029
 H   -3.2467050904   -0.4754176907    1.2808635610
 H   -1.7417933699   -0.4205257505    2.2148271581
 H   -2.8415225989    0.7361834408   -1.1444777672
 H   -1.5709599860   -0.0561458699   -2.0928222665
 H   -3.3281186158   -3.1935295101   -0.7737489406
 H   -0.8781789476   -3.8046586117   -1.2456961911
 H   -0.6752858881   -2.2134053202   -2.1033712033
 H   -1.3317033783   -2.5988794125    0.9377895524