20

 C   -0.4888785299    1.2726496807    0.2552849846
 N   -0.1146234582   -0.1150264102    0.0864008633
 C   -0.1366438599   -0.8013367496   -1.1036041485
 C    0.3268102456   -2.0756947446   -0.8787293396
 C    0.6494518191   -2.1635662452    0.5015474211
 C    0.3704121106   -0.9425933559    1.0824485920
 C    0.5244184610   -0.4712643091    2.4743579280
 C   -0.6573216125   -0.4626526544    3.4340810265
 C    0.4604137256   -1.4540526861    3.6145356926
 H    0.3885352955    1.9199458823    0.3736679209
 H   -1.0434667092    1.6021271626   -0.6254122921
 H   -1.1264775956    1.3936252105    1.1350974635
 H   -0.4830568814   -0.3193342052   -2.0045650912
 H    0.4191424220   -2.8555086363   -1.6189630162
 H    1.0493432413   -3.0217539366    1.0199838180
 H    1.2229925274    0.3522463621    2.6144081883
 H   -0.7383322076    0.3595745740    4.1368636193
 H   -1.6043401542   -0.8363500771    3.0610866504
 H    0.2551540391   -2.4900047583    3.3718949303
 H    1.1456091811   -1.3150093435    4.4429274488