15

 N   -0.0663769248    1.3347613307    0.2237105013
 C   -0.0036163038   -0.0242162770    0.0075785737
 N    1.2782814069   -0.5186781145   -0.1768926870
 H    1.8439094408    0.0379322150   -0.8060961495
 H    1.3265164180   -1.5022806913   -0.3966554646
 C   -1.1282291949   -0.7962865044   -0.0088862404
 C   -1.3642838235   -2.1483642484   -0.3808973483
 C   -2.6855646622   -2.4114568408   -0.2053609141
 C   -3.3376473686   -1.2020592917    0.2849762060
 O   -4.4754015608   -0.9447125136    0.5746672994
 O   -2.3257542323   -0.2291641193    0.3892729137
 H    0.6708466326    1.7071068851    0.8068834908
 H   -0.9878341338    1.6589665308    0.4832767880
 H   -0.6115900184   -2.8330022324   -0.7485325272
 H   -3.2196274751   -3.3306245882   -0.3860670520