17

 O   -0.1777458233    1.4068131149    0.1221522190
 C    0.0124516308    0.0043563323    0.0315524250
 C   -1.3712056329   -0.6299266568    0.0787665019
 C   -1.3465976408   -2.1306952208   -0.0350622786
 O   -0.3347101132   -2.7771448567   -0.1920556205
 C   -2.6944553635   -2.8998110605    0.0334824083
 O   -2.4770252520   -4.2580285877   -0.2301517510
 C   -3.3232327945   -2.6706062288    1.3400521890
 C   -3.8281592040   -2.4812104966    2.4140289726
 H    0.6859578518    1.8286470728    0.0973870564
 H    0.5188870633   -0.2811691505   -0.9013471323
 H    0.6226917357   -0.3803992986    0.8612756630
 H   -1.8893634119   -0.3538210079    1.0041730172
 H   -1.9936365753   -0.2299736334   -0.7333048215
 H   -3.3478338640   -2.4753633347   -0.7465520073
 H   -1.5097326036   -4.3589076545   -0.2311524842
 H   -4.2845748526   -2.3235168024    3.3602825030