25

 C   -0.1598060086    1.7541403439    0.3420862949
 C   -0.1932435760    0.2326955409    0.1599437180
 C    0.7363333278   -0.5148822903    1.1194808349
 C    0.6275564196   -2.0620512432    1.1387967756
 C    0.6117907196   -2.7319520311   -0.2438989770
 C    1.8734438207   -2.4523931912    1.9618910424
 C    2.9800030701   -1.4795996526    1.4952156393
 C    2.2565418253   -0.2162045898    0.9455970148
 O    2.6429409200    0.1098112135   -0.3876918675
 H    0.8334984713    2.1495443362    0.1127722806
 H   -0.8772567955    2.2459815239   -0.3223332081
 H   -0.4117436269    2.0379120854    1.3704793288
 H   -1.2179296434   -0.1329028410    0.3082491907
 H    0.0720663345   -0.0032525253   -0.8760209484
 H    0.4866188129   -0.1892253272    2.1405502342
 H   -0.2892649544   -2.3621131801    1.6595815898
 H    1.5327047488   -2.5494881083   -0.8111505415
 H    0.5203114783   -3.8181606526   -0.1390023366
 H   -0.2265808882   -2.3863200359   -0.8554200889
 H    1.6661073565   -2.3007291449    3.0273072894
 H    2.1549506945   -3.5027971122    1.8382390054
 H    3.6833079907   -1.2379426565    2.2965865982
 H    3.5767083249   -1.9109890754    0.6845193656
 H    2.5327181393    0.6760021934    1.5134564550
 H    2.4671829083   -0.6518373595   -0.9489902199