14

 C   -0.0353084122    1.5545684221    0.0890881348
 C    0.0097384307    0.0308006769    0.0719224146
 O   -1.2701995930   -0.5595375196    0.1930394827
 C    0.7209398890   -0.4899183607   -1.2060034930
 O    2.0373267374    0.0113617104   -1.3445132077
 C    0.7051291594   -1.9649963358   -1.2492248452
 N    0.7579447389   -3.1189330256   -1.2691185891
 H    0.9684534868    1.9749531039   -0.0038374184
 H   -0.6345209782    1.9312910021   -0.7501341962
 H   -0.4885740521    1.9054023358    1.0193481735
 H    0.5764797356   -0.3348392607    0.9375597910
 H   -1.8636664487   -0.1317945835   -0.4347536071
 H    0.1713637327   -0.1191092745   -2.0806170865
 H    2.5977594039   -0.4240165707   -0.6915371335