23

 C   -0.1246622168    1.5676203306    0.0098127023
 C    0.0794192305    0.0541018777    0.0199222547
 C    1.0537669900   -0.5087090361   -1.0645423705
 C    2.0063733122   -1.2814755763   -0.1216568442
 C    3.0335678513   -2.2115561231   -0.7026764677
 C    2.3030865700   -0.2488890227    0.9904783142
 C    0.8076016316   -0.5425349786    1.2591098992
 C    0.1607985588   -0.4463991835    2.6124840653
 O    1.0488124416   -1.9151646234    0.7952588292
 H    0.8236202647    2.1091394350    0.0969073190
 H   -0.5996080884    1.8893338292   -0.9229767441
 H   -0.7705169741    1.8905832871    0.8335982633
 H   -0.8950391290   -0.4395227451   -0.0577596346
 H    0.5627548324   -1.1804174005   -1.7732363705
 H    1.5661788446    0.2771929864   -1.6293507242
 H    3.7371454602   -1.6567599566   -1.3323604880
 H    3.5972326306   -2.7146336915    0.0880121949
 H    2.5530282363   -2.9758079475   -1.3227037081
 H    2.9403495424   -0.6666377496    1.7720640558
 H    2.6216698439    0.7602675186    0.7164861531
 H    0.0665350841    0.5994897199    2.9220220626
 H   -0.8420819635   -0.8866584483    2.5902026845
 H    0.7514709166   -0.9765859418    3.3645119539