18

 C   -0.0204230848    1.5285885377    0.0782533459
 C    1.2999849070    0.7980723155    0.0245727724
 C    2.2048863058    0.7203520059    1.2390610159
 O    2.6622062307   -0.6034021690    1.4933011963
 C    1.7607728467   -1.4029641536    2.2112913392
 O    0.6254508623   -1.8306795934    1.5073737393
 C   -0.3337683166   -0.8093523106    1.2565898192
 C    0.0079953809    0.0195493810    0.0334831361
 H   -0.2976994074    1.9994745128    1.0170215703
 H   -0.3526777261    2.0699329017   -0.8005454181
 H    1.8278506680    0.8158000353   -0.9240395282
 H    3.1024937365    1.3273292545    1.0840718979
 H    1.6943202886    1.1146325667    2.1316630469
 H    2.3088747094   -2.3095248918    2.4777293627
 H    1.4434623475   -0.8658735986    3.1263378905
 H   -1.2913374912   -1.3202269103    1.1144230130
 H   -0.4347528281   -0.1682665515    2.1463564224
 H   -0.2638944691   -0.4446571524   -0.9096016119