21

 C   -0.1149503343    1.5573283470    0.0128699744
 C   -0.0734012060    0.0293635807   -0.0159673900
 C   -1.4459383103   -0.5343027430   -0.3820901973
 C    1.1692576542   -0.6179663802   -0.6927906060
 C    2.0998317288   -0.3014749427    0.5267079798
 C    2.6198885895   -1.7472177832    0.6371946365
 C    1.1333875821   -1.8784956444    0.2639014507
 O    0.3875780971   -3.0394811761    0.1425525271
 C    0.7011774700   -0.6634185817    1.1433992761
 H    0.8501373873    2.0000526548    0.2743506085
 H   -0.4105019660    1.9547236720   -0.9652692845
 H   -0.8530713079    1.9105613025    0.7425825131
 H   -1.7629299826   -0.1652510411   -1.3653164049
 H   -1.4459348440   -1.6250059690   -0.4067331000
 H   -2.2018123451   -0.2081526452    0.3425757135
 H    1.4692249950   -0.6088654190   -1.7441510616
 H    2.6511973169    0.6204398343    0.6868942468
 H    3.3525158940   -2.0636783471   -0.1138385708
 H    2.9078028616   -2.0946009347    1.6346580668
 H    0.7757275772   -3.5757751747   -0.5575938976
 H    0.4656107526   -0.7029799093    2.2094925396