17

 C   -0.0279129512    1.4994368446   -0.1454863982
 C    0.0569890383    0.0310034494    0.2170063683
 O    1.0967531612   -0.5174539674    0.5138333395
 C   -1.2014742286   -0.6939166952    0.1869313549
 C   -2.2474252639   -1.2963593317    0.1654161219
 C   -3.4829611154   -2.0638698799    0.1410862083
 C   -3.2623869174   -3.5366690904   -0.2783577890
 C   -4.5359938915   -4.3453638622   -0.1526995218
 O   -5.0057927946   -5.0275467224   -1.0240115995
 H    0.9648323438    1.9482212124   -0.0896076365
 H   -0.4357327982    1.6137195052   -1.1557031314
 H   -0.7130989430    2.0158761100    0.5354338323
 H   -3.9395100512   -2.0313280617    1.1399316980
 H   -4.2020778223   -1.5891668276   -0.5380077030
 H   -2.8908351900   -3.6079049768   -1.3028421217
 H   -2.5136768585   -3.9828652975    0.3893709713
 H   -5.0298802476   -4.2679325790    0.8455499167