20

 C   -0.0678988213    1.5365321731    0.0043611386
 C    0.0551913459    0.0356273499    0.0123077726
 C    1.0263519330   -0.7617742259   -0.9023480283
 C    0.6786234761   -1.9208518850    0.0919325424
 C    1.4499255106   -3.2084188149    0.2120296755
 C    0.6430548881   -0.7958228880    1.1970726594
 C   -0.8426757315   -2.0299492313   -0.1335257210
 O   -1.5524154975   -3.0045932797   -0.1202859380
 N   -1.2051347644   -0.6932049006   -0.2979858538
 H    0.9036598041    1.9998468299    0.1982759248
 H   -0.4324310285    1.8923119071   -0.9646283149
 H   -0.7633840311    1.8824503092    0.7778724483
 H    0.7433217491   -0.8750251689   -1.9515449291
 H    2.0651885636   -0.4353645151   -0.8058612055
 H    2.5038019615   -3.0216808695    0.4403441963
 H    1.0290797676   -3.8367417059    1.0030101192
 H    1.3973967973   -3.7805292478   -0.7199000303
 H    1.6452846862   -0.4803717186    1.5012243687
 H    0.0060323140   -0.9524467682    2.0727002748
 H   -2.0882933930   -0.3801331897    0.0819324204