14

 C    0.6611391046    1.2228497922   -0.4077579128
 C    0.0376241181   -0.0745576036   -0.0282407433
 N   -1.2538924209   -0.2840825655   -0.0995556849
 O   -1.4068486030   -1.6001239874    0.3387675887
 C   -0.1853569168   -2.0415046325    0.6274801461
 N    0.7517164952   -1.1621064286    0.4275167165
 C   -0.0277907856   -3.4486230646    1.1318776278
 N    1.2702604367   -3.7516535129    1.3812187469
 O   -0.9733900248   -4.1905049447    1.2832977441
 H    1.1996836947    1.6481432972    0.4441937875
 H    1.3846914763    1.0740049256   -1.2146293530
 H   -0.1041701405    1.9268726789   -0.7367761363
 H    1.9946486733   -3.0701185212    1.2260512357
 H    1.4957686826   -4.6701962429    1.7241327372