14

 N   -0.8470695574   -1.1881462755   -0.1601011010
 C   -0.4506094170   -0.1062692764   -0.0790087058
 C    0.0287224760    1.2691340859    0.0248423098
 C   -0.1590817138    2.0053478686    1.4257807861
 C    1.3519385946    2.1425642784    1.3747786201
 N    2.4564134648    2.7130898851    1.7734806893
 C    3.3642737437    2.3172967552    0.7955236023
 C    2.7864671254    1.5507984804   -0.1969875547
 N    1.4820732450    1.4256387876    0.2347943567
 H   -0.3475189667    1.8544729510   -0.8188664520
 H   -0.7343689965    2.9304381901    1.3578366669
 H   -0.5683627272    1.3701560860    2.2131647028
 H    4.4040001745    2.5997361796    0.8683080648
 H    3.1868839445    1.0700981739   -1.0723673552