8

 N    0.0079039063    1.3686969663    0.1537874269
 C   -0.0410815754    0.0117798051    0.0413348827
 N   -1.1204651016   -0.7247544190   -0.0002141271
 O   -0.6256232739   -2.0045877933   -0.0436367467
 N    0.7428571690   -1.9635247966   -0.0345368400
 N    1.1112242035   -0.7590801044    0.0168775679
 H    0.8662100526    1.7912763351   -0.1640207653
 H   -0.8308229504    1.8619845467   -0.1095995584