20

 C   -0.2699888512    1.6049817305    0.0190766385
 C   -0.0080532002    0.1172851815    0.1056419449
 N    1.2348229216   -0.5680234107   -0.3102660714
 C    2.4921829445    0.2119753010   -0.3632059578
 C    2.9209799089    0.5156673650    1.0680216094
 O    2.0707641734    1.4367519761    1.7613401836
 C    1.8532311719    0.0341107887    1.9583230972
 C    0.7952641250   -0.6453125669    1.1130229985
 C    0.3259922203   -1.9870608101    1.6310364997
 H    0.5459705625    2.2127509968    0.3974461358
 H   -0.4727205740    1.8755208790   -1.0241709622
 H   -1.1693075370    1.8469691770    0.5961302438
 H   -0.8655147968   -0.4475655482   -0.2670544046
 H    3.2532285745   -0.4104111834   -0.8476541216
 H    2.3818453858    1.1229000134   -0.9619711637
 H    3.9733094479    0.5599225335    1.3409416638
 H    2.0290474415   -0.3238800893    2.9693863651
 H   -0.2932081802   -1.8677909084    2.5274594842
 H   -0.2645585914   -2.5016918865    0.8696693142
 H    1.1741650630   -2.6317860886    1.8892104025