18

 C    0.5351295749    1.5304929689    0.1047553962
 C    0.2218277908    0.0391043909    0.0451158300
 O    0.8107945081   -0.6798145260    1.1131803965
 C   -1.3046900380   -0.2277824327    0.0150557441
 O   -1.8145443025    0.4742959839   -1.1289540793
 C   -3.1589715223    0.5434842446   -1.2538311126
 N   -3.6602935463    1.2018840135   -2.2049405947
 C   -1.6169842330   -1.6545043687   -0.0415002035
 C   -1.8947540180   -2.8211432697   -0.1107542625
 H    1.6181451137    1.6773737100    0.1183938909
 H    0.1126277221    2.0557027763   -0.7537841495
 H    0.1164456729    1.9786166758    1.0158044044
 H    0.6420401090   -0.3942510173   -0.8682278223
 H    0.6204175783   -0.2094182136    1.9325314320
 H   -1.7437614849    0.2051772821    0.9281866481
 H   -3.7025264211   -0.0115086012   -0.4795241473
 H   -4.6762792162    1.1557444288   -2.1612168478
 H   -2.1278463075   -3.8559574855   -0.1690065727