21

 O   -0.0770873542    1.4650158280   -0.0337188868
 C    0.0275462438    0.0493999970    0.0242516276
 C   -1.3783805277   -0.5311851675   -0.0059782869
 C   -2.1670308044   -0.2216857276   -1.2984241329
 C   -3.2152807498   -1.3550239080   -1.4164648813
 C   -2.5653067448   -2.5514850515   -0.7386677439
 C   -1.1288569644   -2.8801466876   -1.1101162889
 C   -1.4355794129   -2.0523533042    0.1173059724
 O   -1.2360298445   -2.6114327529    1.3833259474
 H    0.8106426243    1.8343785186   -0.0312649162
 H    0.6086525015   -0.3426766564   -0.8268386829
 H    0.5395130411   -0.2695316373    0.9481515842
 H   -1.9210452050   -0.1291657513    0.8598059355
 H   -2.6167596751    0.7723979719   -1.2779427528
 H   -1.4876823922   -0.2382711078   -2.1584448129
 H   -4.1295465609   -1.0885866570   -0.8727349052
 H   -3.5030844758   -1.5460155288   -2.4559709713
 H   -3.1830425207   -3.3682575439   -0.3830227187
 H   -0.8149854949   -3.9002734177   -0.9171140561
 H   -0.6765170354   -2.4277747491   -1.9870201032
 H   -0.2877095978   -2.6805445070    1.5349038727