20

 N   -0.0331432464    1.2470437170    0.5352861817
 C    0.0579682806    0.0552116705   -0.1104862202
 O    1.1122396498   -0.3140606891   -0.6169267271
 C   -1.2185007829   -0.7660806918   -0.1722910049
 C   -1.9759549678   -0.6315916157   -1.5190067737
 C   -2.8506449118   -1.9140855955   -1.6109118485
 C   -2.3539494646   -2.8542269742   -0.4795367497
 C   -0.9883222784   -2.2948935698   -0.0698358928
 O   -0.0369040218   -2.7448087218   -1.0103394087
 H    0.7785557816    1.8430034441    0.5617013885
 H   -0.8932636020    1.5757790236    0.9362143368
 H   -1.8830518918   -0.4687878199    0.6490661679
 H   -2.5618944714    0.2899828423   -1.5705667108
 H   -1.2471372137   -0.6065832022   -2.3324029464
 H   -3.9124861649   -1.6812146343   -1.4912198044
 H   -2.7362312877   -2.3814916395   -2.5912210029
 H   -3.0358145094   -2.8288239244    0.3776139616
 H   -2.2573366313   -3.8945704097   -0.7976355459
 H   -0.7049856217   -2.5892013786    0.9534900257
 H    0.6837995956   -2.0908692009   -1.0046851863