27

 C   -0.1439891651    1.7301040782    0.2023183689
 C   -0.0154332164    0.2028940238    0.2421165085
 C   -1.3153045437   -0.5317803463   -0.1015277161
 C   -1.8404048491   -0.3350601124   -1.5339607627
 C   -2.9528063478   -1.3886725135   -1.6529279753
 C   -3.4380631002   -1.6616361338   -3.0753403180
 C   -2.3449455144   -2.6199228706   -0.9419661171
 C   -1.2948064740   -2.0871219616    0.0809008344
 C    0.0749998240   -2.7447515467   -0.1367984205
 H    0.7922540068    2.2131972520    0.4994742803
 H   -0.3961535148    2.0881911131   -0.8009131912
 H   -0.9284545876    2.0786864708    0.8840271354
 H    0.7811471466   -0.1116441926   -0.4433434815
 H    0.3115347226   -0.0988819250    1.2460145491
 H   -2.0930641267   -0.1455119931    0.5740708604
 H   -2.1968843385    0.6807133398   -1.7308937565
 H   -1.0441986771   -0.5468297117   -2.2631992217
 H   -3.8070200293   -1.0321931418   -1.0598957378
 H   -2.6127080823   -2.0045728655   -3.7107905944
 H   -4.2125073656   -2.4364276095   -3.0918609948
 H   -3.8603806842   -0.7612350830   -3.5346831270
 H   -3.1117831986   -3.2421343248   -0.4702286613
 H   -1.8454688092   -3.2555005773   -1.6843527577
 H   -1.6112088912   -2.3241229716    1.1030026130
 H    0.4725736165   -2.5291531729   -1.1353828007
 H    0.8155448685   -2.4133785815    0.5973497654
 H   -0.0115153695   -3.8333555626   -0.0504021410