14

 O   -0.2559230955    1.3577110605   -0.3731991589
 N   -0.0400030832   -0.0229467340   -0.3825806361
 C   -1.0936957643   -0.6658160257   -0.0116002755
 C   -1.0192320703   -2.1083339484    0.1695537401
 C   -2.0732640700   -2.9552986626    0.1029438359
 N   -3.3572943749   -2.6994493596   -0.3242362450
 C   -3.9172381398   -1.5413066738   -0.2838941022
 N   -3.5306120286   -0.3914582438    0.3765224402
 C   -2.3184183127   -0.0111278037    0.5143308046
 H    0.6023061647    1.7031159397   -0.6412244074
 H   -0.0360332278   -2.5152808664    0.3864080593
 H   -1.8894031955   -4.0090347750    0.2989008737
 H   -4.9067773034   -1.4588869692   -0.7323806143
 H   -2.1400265187    0.8798507221    1.1179442657