15

 O   -0.1276346260    1.5016909427    0.2745564491
 C   -0.0087922099    0.1128814861   -0.0202010167
 C    0.6262367821   -0.7216329282    1.1555837124
 O   -0.4217898766   -1.4441451038    1.8511747336
 C   -1.5025023449   -1.3581257094    1.0470891364
 N   -2.6775689032   -1.9406355702    1.1561175914
 N   -3.3250685040   -1.4413051437    0.0552474569
 C   -2.5760410056   -0.5941587473   -0.6993764998
 C   -1.3558147205   -0.5206179240   -0.0673001386
 H    0.7510332473    1.8926145294    0.2182463922
 H    0.5857876476   -0.0246551294   -0.9338547195
 H    1.3420055200   -1.4573248247    0.7722119766
 H    1.1224999526   -0.0673144071    1.8766617330
 H   -4.2684481500   -1.7412374381   -0.1169862961
 H   -2.9758331092   -0.1311826623   -1.5876567410