21

 C   -0.0367960909    1.7155071915   -0.0544671853
 C   -0.2957016791    0.2142031868   -0.2169449345
 C    0.7518512339   -0.4803410572   -1.0736679094
 O    2.0563723809   -0.3527153034   -0.4431864242
 C    2.6700509176   -1.5467148701   -0.6605633582
 N    3.9648050576   -1.5897267513   -0.2153770386
 N    2.0123656180   -2.5043878427   -1.1861773857
 C    0.6288393152   -2.0195020850   -1.3181212537
 C   -0.2951803128   -2.7869897385   -0.3666674757
 H    0.9313270471    1.8921013277    0.4219868908
 H   -0.0305506882    2.2241311823   -1.0250309795
 H   -0.8105229845    2.1825253428    0.5622014091
 H   -0.3342345213   -0.2655011320    0.7667002143
 H   -1.2746302249    0.0539291988   -0.6854419028
 H    0.8256817844    0.0356446833   -2.0413758414
 H    4.4604656431   -0.7121956971   -0.2506279428
 H    4.4844788100   -2.3822204087   -0.5592104317
 H    0.2807468824   -2.1920922457   -2.3432743157
 H    0.0004373220   -2.6438835310    0.6772951591
 H   -1.3406054151   -2.4813384968   -0.4789423852
 H   -0.2240280256   -3.8551580337   -0.5876257989