12

 C    0.1131971728   -1.1905326066   -0.0051401077
 C    0.0146078668    0.0083641269    0.0026911288
 C   -0.1086294926    1.4102011153    0.0119538905
 C   -1.1867048218    2.2445175811    0.0310551059
 C   -0.6101187904    3.5466945205    0.0303153358
 N    0.7130220034    3.4868055532    0.0120803436
 O    1.0302532091    2.1490609968    0.0005437160
 C   -1.2884530025    4.7914693180    0.0462337220
 C   -1.8971622873    5.8278879669    0.0600804848
 H    0.2025221688   -2.2492916168   -0.0120871340
 H   -2.2295755442    1.9804289660    0.0437312292
 H   -2.4228200621    6.7509466689    0.0721884951