16

 O   -0.0032414254    0.0252148865    0.1860700624
 C   -0.0036255014    1.2165722491    0.0260129412
 C   -1.2614594812    2.0938347180   -0.1694249855
 N   -0.8294605541    3.3736097881   -0.7522676003
 C    0.5979515442    3.4819292294   -0.5303785992
 C    1.0723323737    3.3591752866    0.8636564926
 C    1.1937494781    2.1261089105   -0.0664110231
 C    2.4741872362    1.6209691301   -0.4304846903
 C    3.5559647938    1.2010045155   -0.7475502583
 H   -1.9783747244    1.5773865183   -0.8103618999
 H   -1.7485516649    2.2386295813    0.8033740329
 H   -0.9961650089    3.3529537129   -1.7521262785
 H    1.1423213431    4.1025979249   -1.2308753087
 H    2.0212691395    3.8164516164    1.1148191095
 H    0.3543137959    3.3202739002    1.6758993054
 H    4.5072586859    0.8187926722   -1.0232534200