23

 C   -0.2785705918    1.3271132980    0.2437133817
 C   -0.1450351396   -0.1175914818    0.1118231560
 C   -0.0330122075   -1.3123339548   -0.0001554160
 C    0.1067343769   -2.7666726149   -0.1426155615
 C    0.8394887691   -3.0956955895   -1.4543743525
 C    0.8129809137   -3.3606827139    1.1072015454
 C   -0.2668529579   -3.3806829536    2.2095012503
 C   -1.6327871906   -3.4385764048    1.4610131362
 C   -1.2850766329   -3.4496885900   -0.0424706879
 H    0.2234701399    1.6948046895    1.1457365397
 H    0.1621870629    1.8480335315   -0.6137512187
 H   -1.3305129809    1.6277766701    0.3062029456
 H    1.8370846908   -2.6467084658   -1.4691315613
 H    0.9475596933   -4.1798471694   -1.5677106130
 H    0.2879424470   -2.7123898555   -2.3180169348
 H    1.1292690734   -4.3820961344    0.8624551709
 H    1.7065321512   -2.7975515844    1.3879262517
 H   -0.1291056646   -4.2253418323    2.8900450918
 H   -0.2064612230   -2.4725526376    2.8151878718
 H   -2.2244545244   -4.3141332078    1.7418891126
 H   -2.2340729494   -2.5584759622    1.7040838656
 H   -2.0369955223   -2.9563876316   -0.6634586951
 H   -1.1820386932   -4.4801645146   -0.4040288184