20

 C   -0.1252303779    1.5622541478    0.0714237619
 C    0.0217153121    0.0560255613   -0.0415396927
 C    1.4190517440   -0.5564339719   -0.3847103224
 N    1.8676786962   -0.1104048040    0.9946253854
 C    0.5115785505   -0.7622662109    1.1956910233
 C    0.9248434428   -1.9082486276    0.2058030793
 O   -0.0749016366   -2.5466063890   -0.5773220622
 C    1.8863996022   -3.0343671105    0.6096732251
 O    2.9053947422   -2.6453427465    1.5196938707
 H    0.7163064759    2.0010924156    0.6087958553
 H   -0.1832937151    2.0167284063   -0.9241522493
 H   -1.0513917297    1.8185444968    0.5986211659
 H   -0.8060086729   -0.4016130799   -0.5807371242
 H    2.0325634067   -0.3970716539   -1.2743945244
 H    2.6037493718   -0.7242005807    1.3395793152
 H    0.0534174524   -0.8464518567    2.1843939698
 H   -0.5739601367   -3.1418183403   -0.0070920543
 H    1.2706105969   -3.8341879282    1.0563165006
 H    2.3125710892   -3.4419438528   -0.3183406246
 H    3.5315512860   -3.3705721549    1.6008863916