20

 C    0.0269521762    1.4505692918    0.0441349963
 C    1.3515593636    0.7338879113    0.0550423965
 C    0.0243728926   -0.0554068981    0.0632380660
 C    0.3644588409   -0.6062157867   -1.3103813462
 C   -0.3028108532   -0.4715666014   -2.6608331684
 C    0.8570379230    0.0171006205   -3.5853727002
 C    1.8485460049    0.8078901778   -2.6741188798
 C    1.6606241679    0.1646363151   -1.3183870035
 N    1.6557337110   -1.3025795736   -1.3417253933
 H   -0.2532280026    1.9313852406    0.9777104036
 H   -0.2999405268    1.9910453774   -0.8404945588
 H    2.0579528666    0.8574733481    0.8692500821
 H   -0.4140245528   -0.6126420536    0.8845149696
 H   -0.7571356143   -1.3943396063   -3.0344641205
 H   -1.0957225910    0.2827063431   -2.5957554477
 H    1.3706965833   -0.8509394062   -4.0034603741
 H    0.4936345226    0.6194483832   -4.4231251208
 H    2.8728155378    0.7644686754   -3.0568813833
 H    1.5649401614    1.8650579286   -2.6121834906
 H    1.8872499192   -1.6823767170   -0.4278534270