18

 C    0.0597707270    1.5611230070   -0.0331972828
 C    0.1111160762    0.0393159628    0.0030348558
 C    0.6886542331   -0.5250906298    1.2988295238
 O   -0.0317359383   -0.1104213258    2.4432783766
 O   -1.2389070535   -0.5059046239   -0.0624092278
 C   -1.8125210805   -0.6295772184   -1.2674170576
 N   -1.2727255545   -0.3056432094   -2.3668127939
 C   -3.2010973842   -1.2218660763   -1.1352210998
 O   -3.8965028581   -1.4332081975   -2.0930856554
 H    1.0785680744    1.9609107749   -0.0186750426
 H   -0.4293394234    1.9070739222   -0.9453342441
 H   -0.4707171702    1.9427550373    0.8420606940
 H    0.6674404491   -0.3470380737   -0.8564134899
 H    0.7301317149   -1.6223984589    1.2247201359
 H    1.7129794250   -0.1588473819    1.4216784803
 H   -0.9399085672   -0.4081569083    2.3213599544
 H   -1.9290462140   -0.5203515081   -3.1206578874
 H   -3.5219731157   -1.4431563721   -0.0977044995