18

 C   -0.0484305911    1.4275439768   -0.0642147070
 N    0.0159529040   -0.0046224583    0.1600446106
 C   -1.1735406433   -0.7195291513    0.0697331875
 C   -2.4484964932   -0.2349471285    0.0496196242
 O   -3.3453271927   -1.2993367739    0.0244239943
 C   -2.6063174351   -2.4225867766    0.0131734616
 O   -3.2386728514   -3.6000722161   -0.0258246800
 C   -4.6638847599   -3.5724620655   -0.0012987232
 C   -1.2729384728   -2.1575593493    0.0408632953
 H    0.9587177621    1.8481136915   -0.0171427805
 H   -0.5032551034    1.7006919907   -1.0306970187
 H   -0.6435810351    1.8946232002    0.7286548979
 H    0.7768997116   -0.4523157979   -0.3302921224
 H   -2.8908175164    0.7432938566    0.0704571150
 H   -4.9789368400   -4.6159492277   -0.0310782862
 H   -5.0357328763   -3.0971910272    0.9122575575
 H   -5.0655994023   -3.0375026903   -0.8678523911
 H   -0.4723993346   -2.8781515932    0.0538696352