17

 N   -0.2207544863   -1.1657262705    0.2868019727
 C   -0.1219316587   -0.0237758411    0.1432410800
 C    0.0167261541    1.4242003778   -0.0341249787
 C    1.4534066761    1.8735089442   -0.0190737881
 N    1.8695413748    3.1669847311   -0.6076538521
 C    2.4952658379    1.8899548726   -1.0612656303
 C    3.5768652875    1.4639356726   -0.0276541080
 C    3.6640148318    2.4112083895    1.1387347965
 C    2.5066255830    1.4524036394    1.0566088339
 H   -0.4557305528    1.7041969881   -0.9835232730
 H   -0.5505459479    1.9252264410    0.7617694406
 H    1.1787233684    3.4236501920   -1.3132962543
 H    2.4538316097    1.5910541718   -2.1007324974
 H    4.3207664391    0.7074417126   -0.2369613771
 H    4.4117151452    2.1398178979    1.8775551052
 H    3.5131605827    3.4738843859    1.0015314837
 H    2.3099077053    0.6843772150    1.7927712066