21

 C    1.3099549846    1.7288738444   -0.0120913583
 C    1.4706445563    0.2190527104   -0.1667247259
 C    0.6989554796   -0.3607160791   -1.3480028112
 O   -0.0398423523    0.3231726986   -2.0240826508
 C    0.9118842712   -1.8381458589   -1.5995043278
 C    0.2188064107   -2.5621836357   -2.7903414672
 C    1.2078584832   -1.8391817105   -3.7561997498
 C    2.0700099332   -2.3204625111   -2.5543909170
 C    1.3039598377   -3.6707562882   -2.6418254235
 H    1.6756181298    2.2534624175   -0.8988330698
 H    0.2575315952    1.9963837598    0.1096379327
 H    1.8649889460    2.0915471430    0.8576257874
 H    2.5264090112   -0.0645937780   -0.2791341936
 H    1.1340256072   -0.3080142491    0.7374862103
 H    0.8950941449   -2.3799178485   -0.6456640592
 H   -0.8541119769   -2.6971150496   -2.9248838086
 H    1.4008257943   -2.3438806261   -4.7066595007
 H    1.0709061880   -0.7677151397   -3.8890552208
 H    3.1400279377   -2.1744278978   -2.3966114067
 H    1.2714242827   -4.2818548824   -1.7352533209
 H    1.4993493258   -4.2775765991   -3.5297459685