17

 C    0.0068455403    1.4998764993    0.0088285574
 C   -0.0598247469   -0.0299717844    0.0028319330
 C   -1.4941595160   -0.5274346437    0.0134705255
 O   -1.4507175534   -1.9749171075    0.0069326663
 C   -2.5916408156   -2.6230491821    0.0139661490
 N   -2.7314876404   -3.9184849184    0.0093953325
 C   -4.0952212541   -4.0289518054    0.0207448000
 N   -4.7727695609   -2.9131512868    0.0318589789
 O   -3.7408235923   -1.9368511140    0.0271322821
 H    1.0453390888    1.8406915332    0.0010358466
 H   -0.4899391322    1.9258603359   -0.8694139252
 H   -0.4741661672    1.9182362723    0.8994290423
 H    0.4452876667   -0.4309782965   -0.8826846577
 H    0.4609494380   -0.4385495199    0.8757258357
 H   -2.0332716815   -0.1932910359    0.9065848360
 H   -2.0490570653   -0.1857445258   -0.8670285838
 H   -4.6077411180   -4.9807647603    0.0209966717