17

 O   -0.6746648867    1.1911867158    0.6767008067
 C   -0.5781667508   -0.2110037430    0.5631592642
 C   -1.4843814776   -0.7298701012   -0.5523941037
 O   -1.1714890155   -0.0717077689   -1.7812659338
 C   -1.4188864884   -2.2473981274   -0.7391451100
 O   -1.7834953978   -2.9353406879    0.4516176761
 C   -3.0607721157   -3.3621781468    0.5559787445
 N   -3.4671661352   -3.8719503615    1.6343190719
 H   -0.6745010144    1.5311147014   -0.2270067391
 H    0.4604287657   -0.5327353801    0.3532714514
 H   -0.8664929588   -0.6479191011    1.5229805434
 H   -2.5163764848   -0.4345609334   -0.3301655200
 H   -0.2711413671   -0.3175641596   -2.0286464232
 H   -2.0599974488   -2.5394290413   -1.5802367049
 H   -0.3927055050   -2.5571372586   -0.9719886158
 H   -3.6407691531   -3.2257636174   -0.3680384388
 H   -4.4380647057   -4.1618089191    1.5394341613