18

 C   -0.0549045570    1.6063780630   -0.0593200806
 C   -0.0000885131    0.0787086534    0.0369809764
 C    0.7538909407   -0.5875354824   -1.1737412704
 C    1.5575495050   -1.8195220373   -0.6379101626
 C    1.5999468944   -1.4817589735    0.8140079595
 C    0.7785110500   -0.4769134348    1.1994649608
 C    0.9877046675   -0.4183387172    2.6005368602
 N    1.8677636727   -1.3121947425    3.0016820141
 O    2.2632563532   -2.0098731779    1.8406697823
 H    0.9537166013    2.0327725108   -0.0743584883
 H   -0.5714250527    1.9210873172   -0.9722311738
 H   -0.5908971571    2.0386583405    0.7917893109
 H   -1.0326102128   -0.2967067128    0.0707033385
 H    0.0712453653   -0.8605136177   -1.9821584517
 H    1.4609022640    0.1425074214   -1.5813579569
 H    1.0288993235   -2.7655192464   -0.8094795626
 H    2.5436510888   -1.9146640902   -1.1019466757
 H    0.5522182961    0.2316227564    3.3471315200