25

 C   -0.0357528629    1.1772397477    0.9799855339
 C   -0.2903891031   -0.0794049213    0.1646323325
 O    0.8929924967   -0.4083885860   -0.5368572121
 C    0.7916062679   -1.5790405738   -1.3012063194
 C   -0.0137557277   -1.5570551347   -2.6297348216
 C    1.1233122957   -2.4069532412   -3.2644016098
 C    1.5086634627   -2.1614962057   -4.7158091881
 C    2.0696541852   -1.9535333214   -2.0981616526
 C    2.9846089548   -0.7685276695   -2.3995310536
 H    0.7783951856    1.0139583472    1.6919131297
 H    0.2440869806    2.0081820196    0.3260982699
 H   -0.9339983909    1.4606457036    1.5368762712
 H   -0.5831890429   -0.9156439597    0.8226769075
 H   -1.1228197858    0.0807866016   -0.5396487651
 H    0.4623699931   -2.4169964875   -0.6655253281
 H   -1.0269366306   -1.9668180184   -2.6352912017
 H   -0.0371824096   -0.5447221552   -3.0462777032
 H    0.8923478265   -3.4701850050   -3.1330010631
 H    1.7389489616   -1.1080733489   -4.9035083356
 H    2.3864172014   -2.7514520436   -5.0032726620
 H    0.6885099904   -2.4433405731   -5.3857948473
 H    2.6626786979   -2.7585057839   -1.6525893334
 H    2.4438098530    0.0729583336   -2.8418636539
 H    3.4471066119   -0.4040812531   -1.4783297752
 H    3.7816523987   -1.0605116713   -3.0910725190