14

 N    0.0598888247    1.3223429206    0.2664998919
 C   -0.0353335692    0.0027798006    0.0676579836
 C   -1.2345351725   -0.6804426730    0.0356309972
 C   -1.4164942425   -2.0585748065   -0.2007048099
 N   -0.5838496151   -3.0705674047   -0.1453155213
 C    0.7252665363   -2.9135446524    0.1718137852
 N    1.5565495308   -1.9202942872    0.0835974815
 C    1.3067766427   -0.6203990334   -0.2531040073
 O    2.1651839894    0.1235754146   -0.7008627312
 H    0.9476737697    1.7384135655    0.0160158169
 H   -0.7476130997    1.9026536104    0.4174582107
 H   -2.1450402497   -0.0884180037    0.0965208096
 H   -2.4457756840   -2.3433619265   -0.4299256447
 H    1.1758216689   -3.8414654044    0.5308706077