15

 N    0.0300004580    1.4241215854   -0.1417414745
 C    0.0446462556    0.0235799763   -0.0435676141
 C   -1.0617029468   -0.7877619339   -0.0314284980
 O   -2.3894692744   -0.4757168365    0.0132388011
 N   -0.6357709836   -2.1091402221   -0.0018747761
 C    0.7161860949   -2.1549028779    0.0096107316
 C    1.1916468613   -0.8478525227   -0.0270902940
 C    2.5950834735   -0.4804133246   -0.0541101912
 O    3.5246635329   -1.2636400141   -0.0297351001
 H    0.7748998698    1.8625834654    0.3844858149
 H   -0.8569593046    1.8030409454    0.1693011603
 H   -2.7081754477   -0.2910271099   -0.8789409922
 H   -1.2604906353   -2.8957787000    0.0533057746
 H    1.2673458843   -3.0792954788    0.0456321997
 H    2.7894506921    0.6160665681   -0.1058738522