17

 C   -0.0275996673    1.5003180404    0.0000261219
 C   -0.0145961329   -0.0075620305    0.0337348726
 N   -0.0081015586   -0.7175042026    1.1056197671
 O   -0.0097025627    0.0594206535    2.2761362151
 C   -0.0044020372   -0.7397541443   -1.2314718768
 C    0.0030014392   -0.1784380628   -2.4967110852
 N    0.0146006705   -1.1962426670   -3.4106852397
 C    0.0156102574   -2.4076809312   -2.7585594024
 C    0.0044207948   -2.1602967503   -1.4118368806
 H    0.8978958938    1.8774934244   -0.4492796891
 H   -0.8581026259    1.8572780286   -0.6177290010
 H   -0.1251783584    1.9151951367    1.0008865273
 H   -0.0191450465   -0.6186743285    2.9592506925
 H    0.0034987891    0.8514955434   -2.8134938804
 H    0.0209376024   -1.0745857687   -4.4077016370
 H    0.0232068553   -3.3337848092   -3.3103615670
 H    0.0019297068   -2.8915274719   -0.6206140872