17

 O   -0.0412153089    1.4164737328   -0.0441350379
 C    0.0206851490   -0.0008152595    0.0080550624
 C    0.6211953930   -0.5234471571    1.3448452535
 C   -0.5992756631   -0.8023999941    2.2132278400
 C   -1.8417475672   -0.3859513911    1.5385257418
 C   -1.4171742284   -0.5138585092    0.0543539780
 C   -1.4223408212   -2.0386582243    0.3091838667
 N   -1.5801238346   -1.8508959399    1.7930199185
 H    0.8570276785    1.7589571045    0.0021633383
 H    0.5605705939   -0.4013416383   -0.8639297111
 H    1.2428618683   -1.4138442193    1.2003031899
 H    1.2541678201    0.2426075663    1.8047038422
 H   -0.5136524487   -0.7481433501    3.2928628045
 H   -2.6767238182    0.1525963688    1.9691769757
 H   -2.0566416361   -0.1159954433   -0.7317363226
 H   -2.3194864142   -2.5340087300   -0.0678562080
 H   -0.5421724822   -2.6162336461    0.0008091582