23

 C   -0.0709516821    1.5698784323    0.1684995603
 C   -0.0425204132    0.0407299735    0.1021216274
 C   -1.4309431034   -0.5828699367    0.0128503932
 C   -1.4579533104   -2.1175483395   -0.0421175187
 C   -2.8200631910   -2.4383456312    0.5895948457
 C   -2.9301458016   -1.3449167700    1.6371910501
 C   -4.1555509340   -1.0653762574    2.4447397479
 C   -2.9043988034   -1.6156786374    3.1169253207
 O   -2.1938510586   -0.2277845614    1.1766990533
 H    0.9398039629    1.9813500795    0.2487481943
 H   -0.5346735074    1.9958906756   -0.7284074369
 H   -0.6481771414    1.9043329714    1.0344116893
 H    0.5370430551   -0.2879227311   -0.7705863838
 H    0.4596585243   -0.3647523991    0.9893042497
 H   -1.9494224046   -0.1752363498   -0.8719255422
 H   -1.3439261993   -2.5018953237   -1.0585639032
 H   -0.6462429986   -2.5266754351    0.5703799167
 H   -3.6197708388   -2.3389578795   -0.1542499349
 H   -2.8803484776   -3.4418679443    1.0169145815
 H   -4.3964925100   -0.0235543015    2.6243912722
 H   -5.0153969493   -1.7178856213    2.3301381588
 H   -2.9108305487   -2.6439375091    3.4645812117
 H   -2.3315335388   -0.9280254343    3.7290645768