15

 O    0.2746542273    1.3232894838    0.0190646166
 C    0.1548748156   -0.0211077531    0.0140011330
 N    0.1532957957   -0.7256425555   -1.1062615839
 N    0.0164790538   -2.0053755846   -0.6748986438
 C   -0.0658342348   -2.1029594155    0.6689570110
 C    0.0265263860   -0.8187568317    1.1773369354
 C   -0.0286819038   -0.3586905525    2.6040618875
 C   -1.4578853992   -0.3468858393    3.1254009290
 O   -1.8266891894   -0.9071066414    4.1243599759
 H    0.3700039691    1.6074624559   -0.8985366975
 H   -0.0075948190   -2.7460634996   -1.3530948862
 H   -0.1737387561   -3.0547927684    1.1659023617
 H    0.5731345904   -0.9821790961    3.2710539896
 H    0.3537688022    0.6686250811    2.6582470209
 H   -2.1671929678    0.2233752368    2.4834699209