11

 O    0.0553878076    0.0368343017    0.5499731795
 C    0.0345795850    1.1429975088    0.0918411847
 O   -1.1713772115    1.7183078454   -0.2560123520
 N   -1.2665073651    2.9915740173   -0.7895907385
 C   -0.1513864500    3.6379384872   -0.9534897918
 N    1.1328177549    3.1819151080   -0.6476118016
 C    1.2055131767    2.0014496518   -0.1543320364
 C   -0.2518166319    4.9486884838   -1.5034127157
 C   -0.3126849471    6.0559241912   -1.9657475301
 H    2.1757467190    1.5833058236    0.1072146806
 H   -0.3707107279    7.0351052812   -2.3749834787