19

 C   -0.1758646962    1.6292000895   -0.1211710324
 C   -0.0544181942    0.1147681260   -0.0466510497
 C    1.1830344804   -0.5864856202   -0.6534306036
 C    2.0871277465   -0.2483917059    0.5826235565
 C    2.5412540227   -1.7248839256    0.7378375909
 C    2.9283646258   -2.2005907940    2.0514257275
 C    3.2482684216   -2.5924547326    3.1431168123
 C    1.0484298559   -1.8031040605    0.3224356067
 C    0.6569006878   -0.5392033042    1.1606171639
 H    0.7645446079    2.1257089503    0.1395465858
 H   -0.4548733968    1.9524938445   -1.1302427966
 H   -0.9469260714    1.9950668794    0.5659142990
 H   -1.0060455090   -0.3647248803   -0.3106404074
 H    1.5132160156   -0.6349539563   -1.6931673246
 H    2.6898815280    0.6463507154    0.7366317010
 H    3.2462141107   -2.0677876901   -0.0287071359
 H    3.5319054158   -2.9389888421    4.1057218141
 H    0.4363757167   -2.6931720458    0.1709571578
 H    0.3795905322   -0.5316184176    2.2149738049