21

 O    0.1611850759    1.4301771046    0.0490308022
 C    0.0667704861    0.0139675599    0.0084708712
 C    0.5761868802   -0.6211903152    1.3360647702
 C   -0.6857502909   -0.6826564427    2.1815727836
 C   -1.7672920957   -0.6236423681    1.4041369681
 C   -3.2557864371   -0.4818232054    1.5896271512
 C   -3.7730841397   -0.1320076628    0.1598886844
 C   -2.5365539710    0.3672556252   -0.6300708665
 C   -1.3970480480   -0.4900865661   -0.0605333913
 H   -0.2747935801    1.7188751843    0.8596775710
 H    0.6622056723   -0.2858369359   -0.8577723420
 H    0.9953152069   -1.6224484218    1.1596076496
 H    1.3771924978   -0.0140225815    1.7720021592
 H   -0.6720911314   -0.7566310845    3.2635647145
 H   -3.7273758214   -1.3908329931    1.9789355084
 H   -3.4848260858    0.3144451100    2.3073176952
 H   -4.1675354160   -1.0369420112   -0.3157680561
 H   -4.5872850613    0.5976212474    0.1757013795
 H   -2.6659910317    0.2726851284   -1.7116742154
 H   -2.3377966130    1.4229326078   -0.4167237762
 H   -1.4066841460   -1.4804501392   -0.5427619210