20

 C    0.0103463004    1.5229957680   -0.4160022103
 C    0.0682437454    0.0381851582   -0.1051068788
 N    1.1987322054   -0.8085295539   -0.7367764378
 C    2.1149235922   -0.2393931673    0.3565882459
 C    0.8062405286   -0.5714143339    1.1260406309
 O    0.5123028390   -0.4925632936    2.4765597822
 C    0.8510442959   -1.8876309664    0.3271582058
 C   -0.3176454231   -2.8031554313    0.0083400328
 O   -0.0355287777   -3.5372652251   -1.1730703097
 H    0.9012098375    2.0843413548   -0.1268993750
 H   -0.1436721852    1.6709527292   -1.4900658966
 H   -0.8461745099    1.9686521986    0.1015784045
 H   -0.9096008862   -0.3943171400   -0.3197513578
 H    2.9899220526   -0.8624050271    0.5548798332
 H    2.4019135981    0.7996539005    0.2006239767
 H    0.5779928117    0.4270669647    2.7569076543
 H    1.7285154372   -2.5123002157    0.5216851534
 H   -0.4252516233   -3.5336667437    0.8175212457
 H   -1.2768647683   -2.2743850693   -0.0714413007
 H    0.3033879396   -2.9003720166   -1.8139537489