16

 N    0.0066249734   -1.1543598154    0.1055070117
 C   -0.0292737110    0.0003936792    0.0719510703
 C   -0.0339129957    1.4608510537    0.0274721153
 C    1.3853646460    2.0444071693    0.0128784250
 C    1.5693401632    3.5619381905   -0.0090586359
 C    1.5356953275    3.9763863455    1.4741649732
 O    1.2575884013    2.8118499057    2.2527196551
 C    2.1653491047    2.1054659942    1.3603446213
 C    2.8027591308    3.4642126931    0.8883920393
 H   -0.5857036432    1.7832709403   -0.8629582885
 H   -0.5643836099    1.8461264236    0.9038171210
 H    2.0038282453    1.5735555359   -0.7554372655
 H    1.3816507972    4.2545510886   -0.8194733889
 H    1.2331935197    4.9462206206    1.8446671875
 H    2.6406947673    1.2395259373    1.8139507667
 H    3.8093265335    3.8462617880    0.8026793326