16

 C    0.3264124433    1.4407498263    0.2816629573
 O    1.2622829977    0.3723424494    0.0817166681
 C   -0.1299561307    0.0604434832    0.0966948408
 C   -0.6008764209   -0.7956730925    1.2537676702
 C    0.0129079231   -2.2259636415    1.2240348466
 O    0.4723777663   -2.4312669714    2.5508562176
 C    0.8107327612   -1.1499640621    3.0115992322
 O   -0.1819584497   -0.2726059200    2.5105279763
 H    0.3198154925    1.8613805752    1.2830947568
 H    0.2485912337    2.1485315588   -0.5419618433
 H   -0.5422075043   -0.2275061894   -0.8733982525
 H   -1.6976680479   -0.8271345687    1.2494539556
 H   -0.7143037255   -3.0048914410    0.9863858753
 H    0.8452437461   -2.2724823091    0.5081482219
 H    0.7788254915   -1.1416257165    4.1044661409
 H    1.8039086536   -0.8447333908    2.6438107561