19

 C    0.0554850494    1.4433487070    0.1233111628
 C   -0.0073134273   -0.0376774747   -0.0661084689
 C    0.5767404625   -0.9444150503   -1.1786040888
 C    0.0483656531   -1.8444027203   -0.0332761890
 C    0.2020102808   -3.3108974587    0.2097223170
 O    0.6643816542   -0.9033028366    0.9348016602
 C   -1.2587478236   -0.9794712755    0.0049388781
 C   -2.0558716858   -0.9821501045    1.2095500619
 C   -2.7522848731   -0.9857945983    2.1901534756
 H    1.0960641586    1.7799642808    0.1535872675
 H   -0.4522822992    1.9543447903   -0.7005978607
 H   -0.4318972202    1.7240316424    1.0615620243
 H    0.0702609598   -0.9776299603   -2.1473596708
 H    1.6635670529   -0.9124621475   -1.2634483368
 H    1.2613060905   -3.5814735588    0.2511039218
 H   -0.2682752488   -3.5868142182    1.1580580969
 H   -0.2723500777   -3.8817645917   -0.5945560617
 H   -1.8752713330   -1.0148995484   -0.8990824568
 H   -3.3546449032   -0.9884512569    3.0645106874