18

 C    0.0540420188    1.5365691998    0.0715563614
 C    0.0323458143    0.0212628906    0.0137807534
 O    0.7073796684   -0.4790631225    1.1665704491
 C    0.7722184347   -1.8225808297    1.2614822954
 C    0.3136789711   -2.8221337488    0.4600782327
 O    0.6385644427   -4.0153647742    1.0047411111
 N    1.3265030569   -3.8021408833    2.1904422353
 C    1.4075770754   -2.5027168162    2.3470697819
 C    2.0885860372   -1.8939172064    3.5268224432
 H    1.0826602766    1.9071308998    0.0802783934
 H   -0.4575360389    1.9524136050   -0.8011633380
 H   -0.4502324459    1.8949841257    0.9730537638
 H   -0.9986360429   -0.3619599837    0.0031541940
 H    0.5366165796   -0.3498289764   -0.8905989479
 H   -0.2269754622   -2.8536651280   -0.4704870784
 H    2.9253482917   -1.2626229894    3.2105455854
 H    1.3980104941   -1.2570394385    4.0890057629
 H    2.4655197084   -2.6776502437    4.1862458115