16

 C    0.0957006017    1.5118300191    0.1962222747
 O    1.5089350875    1.4352163533   -0.1682050338
 C    1.2871510088    0.2076558523   -0.9066076085
 C    1.5178784854   -1.2091265568   -0.3384822656
 N    0.7748737099   -0.7623900708    0.8804234778
 C   -0.0391980331    0.0318257496   -0.1501868207
 C   -0.7906175183   -1.0610619588   -0.9165469302
 O   -0.2565276919   -1.2976848789   -2.2332804843
 C    0.3595958325   -1.9635062104   -1.1189093921
 H   -0.0439616199    1.7821542086    1.2453495251
 H   -0.4463753281    2.1991937485   -0.4650149090
 H    1.3629422412    0.3591001549   -1.9795937127
 H    2.4662824677   -1.7360044522   -0.2177803749
 H    0.2226940487   -1.5204998725    1.2857762779
 H   -1.8151982955   -1.3721248146   -0.7446932818
 H    0.3059431635   -3.0481938313   -1.1217779620