20

 O   -0.2064759474    0.0319866599    0.1171143811
 C   -0.0473283540    1.2219888009    0.0315064020
 C    1.2891555374    1.9265117645   -0.0213831871
 C    1.3833190964    2.8399700488   -1.2564634461
 C    2.7683467364    3.4957811022   -1.3057878686
 C    3.1661209783    4.1447276550    0.0066583299
 C    2.2492885807    5.0645174895    0.7281709521
 N    2.5458094130    3.7418700768    1.2781502070
 C    1.4676531280    2.7425620159    1.2834596077
 H   -0.9225243371    1.9161641416   -0.0050644186
 H    2.0639404649    1.1544710362   -0.0806327045
 H    1.2197512086    2.2594619089   -2.1702594694
 H    0.5895158463    3.5972947135   -1.2227934775
 H    3.5084095479    2.7231306992   -1.5494341581
 H    2.8174503761    4.2363237282   -2.1127083079
 H    4.2354225024    4.3287261153    0.1007503270
 H    2.6402310831    5.9067979817    1.2940494218
 H    1.2603753389    5.2332193537    0.3041348132
 H    0.5219462739    3.2466952163    1.5265764744
 H    1.6674721864    2.0432486420    2.1023263217