16

 O   -0.0693196154    1.4496843984   -0.0305951162
 C    0.0359222688    0.0374285571    0.0223536257
 C   -1.3828333927   -0.5194505310   -0.0275279373
 C   -1.4047379071   -2.0567261558    0.0313404063
 O   -0.7852739546   -2.5733030902    1.2030194801
 C   -2.7712526209   -2.5689161565   -0.1165983491
 C   -3.9049678337   -2.9788339213   -0.2005683033
 C   -5.1841568472   -3.4460227168   -0.3000391706
 N   -6.2730002036   -3.8419482259   -0.3836736434
 H    0.8132466775    1.8214796089    0.0560690988
 H    0.6160988943   -0.3561471717   -0.8290500896
 H    0.5328707240   -0.3025314703    0.9413379589
 H   -1.9634883185   -0.1129217170    0.8090819191
 H   -1.8737388737   -0.1841249928   -0.9473038352
 H   -0.8021813921   -2.4533312855   -0.7962199798
 H   -1.3194287551   -2.3106070998    1.9620703255