19

 C   -0.2044983547    1.5529410233   -0.0039320216
 C   -0.0033479734    0.0562496113   -0.0668879493
 C    0.7057644508   -0.6371108296   -1.1896633781
 C    1.2952762801    0.0865008803   -2.3785160827
 C    1.3714167340   -0.5837526869    0.1972520240
 C    2.5172175336    0.2300409864    0.4182052113
 C    3.5038436201    0.9023516448    0.6258908472
 C    4.6581084164    1.7242634601    0.8473295888
 O    5.5730938002    1.4497848014    1.5929848151
 H    0.6656726342    2.1035461754   -0.3665209262
 H   -1.0697655340    1.8499643434   -0.6061921671
 H   -0.3884691288    1.8725560950    1.0267466512
 H   -0.8161197918   -0.5112805939    0.3789509408
 H    0.3248912137   -1.6269385675   -1.4276442234
 H    1.7590662350    1.0342740961   -2.0984164764
 H    2.0654276845   -0.5263008096   -2.8577220666
 H    0.5206636901    0.2945301027   -3.1243882544
 H    1.3622494262   -1.5101618519    0.7634944294
 H    4.6562013138    2.6691132789    0.2644028879