23

 C   -0.0476879113    1.5283698069    0.0208358319
 C   -0.0202145907    0.0124474303    0.0235474729
 C   -0.8434224365   -0.6937432793    1.0707684787
 C    0.6678111808   -0.6887476372    1.1827252302
 C    1.4527981308   -1.9836804896    0.9788684623
 C    1.7397483312   -2.3038130854   -0.4898700786
 O    2.2010494569   -3.6490806252   -0.5272308628
 C    0.4969263723   -2.0865391803   -1.3568080351
 C    0.1000102342   -0.6040766112   -1.3656843510
 H    0.8682233466    1.9421619831   -0.4182022296
 H   -0.8947605065    1.9067381390   -0.5646773908
 H   -0.1418604152    1.9286671406    1.0352611961
 H   -1.4166668524   -0.0861535842    1.7637839203
 H   -1.3193528739   -1.6355441268    0.8147620737
 H    1.0726084596   -0.0315529388    1.9468661922
 H    2.4025313470   -1.9355573014    1.5200429659
 H    0.9049175279   -2.8375023514    1.3958226022
 H    2.5299012291   -1.6230718732   -0.8528511985
 H    2.3921168736   -3.8711022331   -1.4441286807
 H    0.6987233373   -2.4151839514   -2.3846283033
 H   -0.3165859927   -2.7197857605   -0.9819698243
 H   -0.8379121020   -0.4636740958   -1.9184059608
 H    0.8658317341   -0.0444276051   -1.9214497711