16

 C   -0.0957561352    1.3746673684    0.1051175704
 N   -0.0017507436   -0.0639989171    0.0055105199
 C    0.2309643215   -0.8158924413   -1.0948621093
 C    0.2246894602   -2.1386642916   -0.7019383865
 C   -0.0271295336   -2.0657646561    0.6805169759
 O   -0.1390607627   -3.1543986268    1.4870476630
 C   -0.0169773482   -2.9845967150    2.8340319110
 N   -0.2559339813   -3.9666870235    3.5857979182
 N   -0.1723867631   -0.8210267250    1.1159368648
 H    0.0592686703    1.8052544559   -0.8855100326
 H   -1.0821620331    1.6672964419    0.4755353991
 H    0.6658735204    1.7602777130    0.7887307227
 H    0.3817185055   -0.3617481347   -2.0617250260
 H    0.3788458047   -3.0180190568   -1.3029241534
 H    0.2961239046   -1.9764809204    3.1129016727
 H   -0.0973901964   -3.6999330411    4.5557405900