21

 C    0.0839926567    1.6523485049   -0.0030799297
 C   -0.0452508621    0.1248378201    0.0014733834
 C    0.6529211933   -0.5244357086   -1.1870876315
 C    2.1906378404   -0.5649490659   -1.1844307241
 O    2.5963510881   -1.4197713188   -0.1005657060
 C    2.2161863942   -2.0224197143   -1.3425688111
 C    0.6684514706   -2.0974871100   -1.3601335543
 C    0.0209192694   -2.9680428383   -0.2974108552
 O    0.1695854118   -2.3800411186   -2.6585452409
 H    1.1338933774    1.9623321496    0.0370648185
 H   -0.3554784117    2.0865556496   -0.9081068586
 H   -0.4233796218    2.0948114535    0.8595446152
 H    0.3770775880   -0.2769339907    0.9288928502
 H   -1.1067042999   -0.1524066069   -0.0081328258
 H    0.2859484869   -0.1107235255   -2.1320018810
 H    2.9020758434    0.1866828991   -1.5062781519
 H    2.9320385046   -2.6740714041   -1.8333927731
 H    0.4516119126   -2.7649853496    0.6853333605
 H   -1.0589541988   -2.7962128196   -0.2573092400
 H    0.1863085293   -4.0296943099   -0.5227743073
 H    0.2211418575   -3.3330001062   -2.7940003573