18

 C    0.1128931114    1.0130208972    0.6858452323
 C   -0.3223334594    0.2115040715   -0.5425575106
 N   -1.5312485277   -0.5705914615   -0.3129280348
 C   -1.5095580381   -1.8869573653   -0.0283529168
 O   -0.5062081214   -2.5831008920    0.0102938940
 C   -2.8902498034   -2.5704573047    0.1991688496
 O   -2.6707381895   -3.8552034508    0.7122952755
 C   -3.7631963808   -1.7700077771    1.0606569007
 C   -4.4824283500   -1.0869586281    1.7400493833
 H    1.0134777713    1.5924430973    0.4601455869
 H   -0.6675680699    1.7133538172    1.0016581534
 H    0.3329811115    0.3453533998    1.5233185396
 H   -0.4990680480    0.8788264124   -1.3933280138
 H    0.4546169317   -0.4993729882   -0.8306195495
 H   -2.4050045150   -0.0851870408   -0.1715061572
 H   -3.3631135449   -2.6322511599   -0.7978372283
 H   -1.7063514192   -3.9747252781    0.6347442059
 H   -5.1234079485   -0.5029380490    2.3537811398