20

 C    0.1366078666    1.5714242539   -0.0018323176
 C    0.0477092632    0.0417477673   -0.0280138037
 C   -1.4299877774   -0.4114872741   -0.0211432537
 C    0.7972786275   -0.6316151118   -1.1668055345
 C    2.2799388002   -0.5866114513   -1.1709131840
 N    1.5984408368   -1.7958484297   -0.6869669063
 C    1.4911437339   -1.8258384097    0.7745575310
 C    0.7198659368   -0.5747908165    1.2182607792
 O    0.6281785391   -0.1539233423    2.3415467578
 H    1.1721897711    1.9161478732   -0.0717182803
 H   -0.4228918724    2.0081679638   -0.8351347568
 H   -0.2818099649    1.9491031486    0.9356274419
 H   -1.9422502697   -0.0329369726   -0.9119335632
 H   -1.5185881212   -1.5026388311   -0.0222299033
 H   -1.9437485186   -0.0253213212    0.8635033831
 H    0.2664471842   -0.7898902641   -2.1020585700
 H    2.8256467168   -0.7109339303   -2.1014724877
 H    2.7800397130    0.0498245846   -0.4410734156
 H    0.9278425649   -2.7159723886    1.0826031018
 H    2.4703249100   -1.8761021682    1.2598349519