19

 C   -0.0604686532    1.5365008347    0.0501648454
 C    0.0197469563    0.0208573642    0.0265226333
 O   -1.3085057894   -0.4861396796    0.0257728670
 C   -1.4439434584   -1.8377503462    0.0048625017
 C   -2.6541365338   -2.4719358162   -0.0004847821
 C   -4.0508456928   -1.9733292423    0.0126058685
 O   -2.4432714383   -3.8255394331   -0.0225130359
 C   -1.1057643579   -4.0349404329   -0.0308786779
 C   -0.4302365221   -2.8556904253   -0.0150146695
 H    0.9449755778    1.9674151359    0.0512041184
 H   -0.5968258713    1.9067609961   -0.8278957669
 H   -0.5870551583    1.8797044902    0.9449699132
 H    0.5538717609   -0.3281399881   -0.8693333484
 H    0.5632391977   -0.3553093589    0.9055960688
 H   -4.6097900650   -2.2932909507   -0.8750388392
 H   -4.6038644617   -2.3235897871    0.8924687568
 H   -4.0359563960   -0.8812061503    0.0312304516
 H   -0.7893484963   -5.0647353930   -0.0481990661
 H    0.6398279517   -2.7292388075   -0.0171364986