23

 C    0.2331373460    1.6668061803   -0.3904282945
 C    0.3459847825    0.1443749619   -0.2794134595
 C    0.8357128045   -0.3200306617    1.1000629040
 C    0.9507052567   -1.8290440171    1.1835851512
 C    2.2194359063   -2.5866964744    0.9542236816
 O    3.3488158941   -1.8867793957    1.4901937512
 C    2.8569161132   -2.1125682580    2.8480662829
 C    2.9289187385   -0.9081234800    3.7653862443
 C    1.5409664619   -2.6741870403    2.3073006981
 H    1.2023332606    2.1481834884   -0.2193615143
 H   -0.1194461478    1.9708222088   -1.3810320974
 H   -0.4686970062    2.0667879366    0.3500871866
 H   -0.6300356748   -0.3123630369   -0.4922196585
 H    1.0324169379   -0.2325614363   -1.0481270522
 H    1.8147521604    0.1253517920    1.2992946529
 H    0.1492178274    0.0510352216    1.8730799279
 H    0.0961575726   -2.3547097896    0.7552976777
 H    2.4077568372   -3.3203038273    0.1781201726
 H    3.4445713117   -2.9337815347    3.2826611350
 H    3.9634219249   -0.5570916962    3.8417824186
 H    2.3065234868   -0.0820866119    3.4196220260
 H    2.5969306388   -1.1939057252    4.7696153416
 H    0.9908656768   -3.4901225143    2.7577765140