18

 O    0.0772749624    1.4000880546    0.0637884817
 C    0.0535331121    0.0100602723   -0.2144827967
 C   -1.3418746225   -0.5792479282   -0.0295197883
 C   -1.5397604918   -2.0992426792   -0.1213498074
 C   -0.8535988286   -2.8168653955    1.0091279095
 C   -2.1636983103   -2.1391350016    1.2754183810
 C   -1.9749970710   -0.6178572838    1.4246644243
 C   -1.1382295986   -0.1383905622    2.5171230302
 N   -0.4272422667    0.2587604488    3.3397507162
 H    0.1445741188    1.5068015314    1.0190225699
 H    0.3498021566   -0.1096066881   -1.2632871119
 H    0.7918793028   -0.5312080252    0.3917780877
 H   -2.0328031282   -0.0432503969   -0.6844250714
 H   -1.8622267020   -2.6226479310   -1.0125385604
 H   -0.9069816343   -3.8993176750    0.9594672374
 H    0.0638032039   -2.4423065854    1.4533983945
 H   -3.0383756968   -2.6712540741    1.6256291785
 H   -2.9250381058   -0.0808001607    1.4487438651