13

 C   -0.0078815153    1.4705991322   -0.0188648812
 N   -0.0051379773    0.0071583429   -0.0085024302
 C   -0.0152714124   -0.6868869424    1.2013542184
 O   -0.0264347973   -0.1402116993    2.2746603631
 C    0.0074276536   -0.6522432791   -1.2093812032
 N    0.0169641426   -0.0617871321   -2.3762723201
 O    0.0273581799   -1.1050553192   -3.2590513051
 N    0.0236324323   -2.2908726951   -2.5629020081
 N    0.0116237164   -2.0327517566   -1.3310504883
 H    0.8851462519    1.8453508986   -0.5254988163
 H   -0.8916342101    1.8418139495   -0.5439987877
 H   -0.0192761041    1.7952748827    1.0198098984
 H   -0.0118605501   -1.7765117820    1.0582509103