17

 C   -0.1139136226    1.5698963838   -0.2674341220
 C   -0.0168402982    0.1506697662    0.2840176474
 N   -1.3146555835   -0.5173606736    0.1489416344
 C   -1.5826306890   -1.2495570821   -1.0637167251
 C   -1.3558250622   -1.9949527777    0.2359230223
 C   -0.1530431526   -2.7738777012    0.3913296213
 C    0.8418523253   -3.4283967250    0.5510024616
 C   -2.5098879025   -2.5124093222    0.9492407226
 N   -3.4338142891   -2.9335502971    1.5005009888
 H    0.8381422134    2.0918856972   -0.1349183177
 H   -0.3484363543    1.5624632835   -1.3368829184
 H   -0.8961383210    2.1329492834    0.2482890272
 H    0.7862188520   -0.4050482820   -0.2226247734
 H    0.2267340156    0.1716373485    1.3511480445
 H   -2.5920215254   -1.1841035509   -1.4590319086
 H   -0.7882077351   -1.3553638986   -1.8012477968
 H    1.7184933691   -4.0130049421    0.6872886720