18

 C   -0.2633295551    1.4082828737    0.0410642227
 N    0.0326399296   -0.0155570875    0.0943813704
 C    1.3920934873   -0.4326281705   -0.2250225087
 C    0.8706022950   -0.5636700825    1.1655113793
 C    1.4471382488    0.2596245689    2.2988354968
 C    0.4304471092    0.4391658469    3.4488621538
 C    0.9893650564    1.1758454706    4.5798693533
 N    1.4504416777    1.7614060607    5.4629938617
 H    0.5691171831    2.0680741369    0.3326242900
 H   -0.5418322451    1.6640638847   -0.9860019756
 H   -1.1220041710    1.6294701611    0.6839559188
 H    1.4928652453   -1.3023802472   -0.8690480566
 H    2.1348245220    0.3469761576   -0.3972882457
 H    0.5353970261   -1.5519920303    1.4831784024
 H    2.3359172112   -0.2492617599    2.6883576745
 H    1.7807024486    1.2405469747    1.9513028899
 H   -0.4590056329    0.9692064043    3.0914811469
 H    0.0887915537   -0.5399018022    3.8045948160