17

 O   -0.4559881698    0.6358475483   -1.0925208863
 C    0.0551427418    0.9503263436   -0.0430047871
 C    1.2816543963    1.7857876232    0.0181898204
 C    1.4894701293    2.8836791111    1.0320645003
 C    0.6294282773    2.9752504657    2.2863825092
 C    0.7968517473    1.6051703483    2.9908764246
 C    2.0173021948    0.9467321457    2.2933238766
 N    2.3360059644    1.6992454190    1.0603984099
 H   -0.3867637747    0.6188254102    0.9175721800
 H    1.6908246543    1.9523327260   -0.9751897665
 H    1.9422289014    3.8002046026    0.6617324721
 H    1.0179683061    3.7865129106    2.9097968022
 H   -0.4160840463    3.2134842158    2.0719989310
 H    0.9699376350    1.7237531429    4.0633241009
 H   -0.1027969915    0.9938413318    2.8873974483
 H    2.9075628652    1.0174687395    2.9258554728
 H    1.8641664889   -0.1123573944    2.0677035518