17

 O    0.2977401318    1.1580382445    0.5765877678
 C    0.0452419943   -0.1223307243    0.0761528992
 C   -1.4414552804   -0.4463348611   -0.1220415139
 C   -1.4029033691   -1.5667034287   -1.1754649337
 N   -0.2285097763   -1.2166033378   -1.9956662559
 C   -0.0359678466   -1.6707091308   -3.2764291752
 O    0.9032214869   -1.3810083781   -3.9838889092
 C    0.6174593579   -0.3148110724   -1.3206156491
 N    1.6458588380    0.3063635141   -1.7121772095
 H    1.0705695170    1.4776716688    0.0846815788
 H    0.4961891282   -0.8935142568    0.7276499649
 H   -1.9496227159   -0.7511039949    0.7937898009
 H   -1.9394308745    0.4422754892   -0.5219711470
 H   -1.2630318388   -2.5494491197   -0.7089193086
 H   -2.3027195864   -1.6085538762   -1.7936934153
 H   -0.8526015325   -2.3419269694   -3.6049575767
 H    1.8875405464    0.0762596235   -2.6754704575