18

 C    0.0426224004    1.4719625856    0.0961320907
 C   -0.0144040803   -0.0151216557   -0.0588174223
 C    0.6443403312   -0.9358903846   -1.1207458505
 C    0.0609773374   -1.8130600702    0.0055623015
 O    0.6179731415   -0.8622471476    0.9958955000
 C   -1.2448318572   -0.9792030983   -0.0363701576
 C   -2.1300212640   -0.9621344733    1.2088953195
 C   -2.9780191405   -2.1487946399    1.2977531192
 N   -3.6408549656   -3.0942548257    1.3482182574
 H    1.0820204588    1.8083539390    0.1512584958
 H   -0.4346415327    1.9597690443   -0.7595146416
 H   -0.4713861920    1.7910653661    1.0081917393
 H    0.1885394953   -0.9901216396   -2.1125761612
 H    1.7333123917   -0.8918853935   -1.1483788103
 H    0.1925606779   -2.8762902131    0.2013372188
 H   -1.8266387098   -1.0405717500   -0.9601853693
 H   -1.4884502598   -0.9067595384    2.0937274159
 H   -2.7751981322   -0.0755972052    1.2087979047