17

 C    0.0352807749    1.5105099515   -0.0008984099
 C   -0.0646662293    0.0249501359    0.1038000307
 O    1.0729138871   -0.7829782740   -0.2572093680
 C    0.5225233996   -0.9443719755    1.0649954604
 C    1.4106065872   -0.7597924188    2.2503537615
 C   -0.7126185697   -1.8255132779    0.9326359586
 N   -1.8648605298   -0.9760983730    1.3427019572
 C   -1.3006655655   -0.8547767333   -0.0299836801
 H    0.9843384037    1.8661137046    0.4089404495
 H   -0.0220868190    1.8345241289   -1.0461786397
 H   -0.7861204958    1.9800145496    0.5487771380
 H    2.0371476428    0.1282405267    2.1321372552
 H    0.8067793701   -0.6493479370    3.1561534165
 H    2.0724647312   -1.6231417872    2.3824862960
 H   -0.7769908310   -2.9064775309    0.9254757578
 H   -2.7048891258   -1.5536319535    1.2734444066
 H   -1.8984876006   -1.0551191861   -0.9104105302