13

 C   -0.1591270394    1.3644047910    0.2358171017
 O   -0.3442585156   -0.0132513187   -0.0478573629
 C    0.5494596802   -0.5022556244   -1.0323731831
 C    1.9490020332   -0.6888774970   -0.4069845768
 O    2.9609016919   -0.2358294560   -0.8654320873
 C    0.0851901238   -1.7986931369   -1.5087424132
 C   -0.2288482454   -2.8940864715   -1.8890900803
 H    0.8440918827    1.5802960970    0.6293968622
 H   -0.3207285519    1.9819147998   -0.6595551196
 H   -0.9005536709    1.6282383856    0.9921188262
 H    0.6500840775    0.2032338038   -1.8713817551
 H    1.9192480512   -1.2737605980    0.5378054287
 H   -0.5268265773   -3.8531522447   -2.2357871706