21

 C    0.0516228219    1.4900754179   -0.0091702135
 C   -0.0433339456   -0.0006504000   -0.0179527093
 C   -0.0521966162   -0.8087984096   -1.0984825981
 C   -0.0792842266   -2.1973379795   -0.6776486198
 C    0.2615831707   -3.4092410772   -1.1275563869
 C    0.2282150633   -4.4167352522    0.0100113262
 C    0.2445050964   -3.5148753214    1.2809818860
 C   -0.4375658372   -2.2230643742    0.7986528565
 C   -0.0589007973   -0.8058143011    1.2795254230
 H    0.9446828208    1.8258206591    0.5344799928
 H    0.0944794738    1.9010994910   -1.0214389139
 H   -0.8077702805    1.9385242070    0.5064565310
 H    0.0240518281   -0.4679820794   -2.1249306469
 H    0.5557183046   -3.6653754126   -2.1387023014
 H   -0.6831557853   -5.0340323920   -0.0219902228
 H    1.0707422410   -5.1171133931   -0.0174504624
 H   -0.2420117197   -3.9811852715    2.1427009612
 H    1.2842258632   -3.3019465281    1.5571929222
 H   -1.5295067431   -2.3303419773    0.8869906648
 H    0.9416583683   -0.7833120443    1.7387315710
 H   -0.7500158305   -0.3918905714    2.0225034402