21

 C   -0.2352981339    1.5506712424    0.0139162514
 C    0.0121230946    0.0450449863    0.0039070506
 C    0.8570780736   -0.4954161430   -1.1972273393
 C    1.9782026971   -1.2508232979   -0.4520965719
 O    1.2975416374   -1.7528489572    0.7143782310
 C    0.8800063615   -0.4801399541    1.1699492198
 O    2.0782412265    0.2858453964    1.2624850896
 C    2.9292029983   -0.2274329865    0.2095291409
 C    4.1924902714   -0.8253754958    0.8084024910
 H    0.7097245095    2.1003599389    0.0277881455
 H   -0.8042899881    1.8599181743   -0.8686045271
 H   -0.8078152967    1.8510898865    0.8984266426
 H   -0.9464573485   -0.4833708283    0.0424127361
 H    0.2790442423   -1.1744388956   -1.8275026621
 H    1.2490230458    0.3065327876   -1.8292747247
 H    2.4635112375   -2.0668442377   -0.9859105153
 H    0.4111844163   -0.5467157730    2.1522698729
 H    3.1754943440    0.5933869174   -0.4752258793
 H    3.9427075919   -1.6989893716    1.4162274927
 H    4.8915093467   -1.1262946091    0.0202973221
 H    4.6905564029   -0.0901368900    1.4466537635