14

 O   -0.6406833574    0.6270750559   -0.6561565408
 C    0.0852153118    1.0140550605    0.2256671621
 C    1.2581304259    1.8929808763    0.0007884265
 N    1.5409034539    3.0331149919    0.9566720262
 C    2.2209162161    3.6606318903   -0.2076594734
 C    3.1127868751    2.5909392200   -0.8303408763
 C    1.6144502065    2.7850861306   -1.2452075620
 C    2.7192066031    1.3188346393   -0.1676526505
 O    3.1999820583    0.2367519357   -0.0295263252
 H   -0.0662632078    0.7229512209    1.2879007701
 H    0.6635393296    3.5405643627    1.0838622302
 H    2.5034279680    4.7050564853   -0.2358348992
 H    4.0015240437    2.8212320463   -1.4006202083
 H    1.2061803733    2.8904849344   -2.2394304195