18

 C    0.1348929723    1.3574570753   -0.2740493638
 C    0.0984857805   -0.1134606831    0.1401318012
 C    0.7988041339   -0.3689501135    1.4655456215
 O    1.3266432839    0.4800391288    2.1376278586
 C   -1.3206340412   -0.6520291200    0.2100373328
 N   -1.9275461912   -1.0684252962   -1.0553418785
 C   -1.6590741029   -2.0960756790   -0.0205574003
 C   -0.6621566488   -3.0909323368   -0.3092453368
 C    0.1669794006   -3.9374836884   -0.5137544260
 H    1.1644267890    1.7177990079   -0.3336428108
 H   -0.3420368388    1.4852117273   -1.2491769750
 H   -0.3862993267    1.9832409815    0.4569504445
 H    0.6259906911   -0.7298516112   -0.6015568216
 H    0.7927325462   -1.4347136272    1.7858457811
 H   -1.9610911623   -0.1382968301    0.9272905462
 H   -2.9212407891   -0.8533493606   -1.0686190816
 H   -2.5147151199   -2.4718264825    0.5367871604
 H    0.8966463932   -4.6842941420   -0.7085207718