13

 C   -0.0231727105    1.4971868646   -0.0357425688
 C   -0.0243851979   -0.0132737546    0.0321392030
 O   -0.0417121492   -0.6306971591    1.0779137606
 C   -0.0029526287   -0.7395869120   -1.2581076827
 C    0.0003232678   -2.0885939587   -1.4407370212
 O    0.0223543553   -2.3353762209   -2.7739735546
 C    0.0317985739   -1.1022198656   -3.3474662002
 N    0.0175739310   -0.1229693052   -2.5100968245
 H    0.8634909590    1.8512739064   -0.5718317936
 H   -0.8876574999    1.8516688943   -0.6065459143
 H   -0.0428040324    1.9047148095    0.9751672348
 H   -0.0104975328   -2.9352256603   -0.7775200968
 H    0.0496236544   -1.0720312186   -4.4253685217