20

 C   -0.1634066477    1.5577719974   -0.0542206010
 C   -0.0449661358    0.0342901693   -0.0115347454
 C   -1.3727460012   -0.6342321312   -0.3554749209
 C    1.2034970379   -0.5005256960   -0.7630261722
 O    1.8728420599   -0.8192339434    0.4755612313
 C    0.6836014117   -0.5574555079    1.2367084607
 C    0.9540671292    0.3255614142    2.4594346684
 C    1.7226086590   -0.3764057561    3.4854019371
 N    2.3194043063   -0.9389255442    4.2991104751
 H    0.7924660802    2.0508899198    0.1463721737
 H   -0.4943822629    1.8791149808   -1.0476610251
 H   -0.8978082802    1.9266714392    0.6702837875
 H   -1.7124336503   -0.3371816050   -1.3537894353
 H   -1.2875660018   -1.7252810105   -0.3402554934
 H   -2.1549399007   -0.3476330074    0.3568110486
 H    1.0219849262   -1.3968548012   -1.3703505750
 H    1.7688717108    0.2275003299   -1.3561303901
 H    0.2207596688   -1.4952111480    1.5765621235
 H    1.5016126011    1.2243562685    2.1622370526
 H    0.0006191795    0.6453380619    2.8969415899