19

 C   -0.0044856041    1.6005253301   -0.0181932269
 C    0.0298582794    0.0619883500   -0.0470656219
 C    0.6979523143   -0.4837963373   -1.2202599651
 C    1.2524759636   -0.9344203020   -2.1940624136
 C    1.9195039891   -1.4652663095   -3.3656712549
 O    2.0388809990   -2.6601785388   -3.5520350564
 C    2.4541541464   -0.4285634803   -4.3357690739
 C    3.1435005172   -1.0429185704   -5.5451564868
 O    3.5899417265    0.0316702004   -6.3596995091
 H    1.0080044489    2.0125237402   -0.0211133370
 H   -0.5329534215    1.9944365980   -0.8902268670
 H   -0.5166721407    1.9499161637    0.8826558149
 H    0.5318342533   -0.3186267876    0.8518479580
 H   -0.9921688791   -0.3365151360   -0.0077043615
 H    1.6253489424    0.2155965072   -4.6564602703
 H    3.1455694547    0.2337955312   -3.7991803777
 H    3.9775242375   -1.6767285695   -5.2120942334
 H    2.4386191606   -1.6951792207   -6.0798897458
 H    4.0284471324   -0.3420283986   -7.1293872115