20

 O    0.0962996367    1.4748395662   -0.0216952444
 C    0.0772579699    0.0625292213    0.1052616064
 C   -1.3501216438   -0.5213874052    0.0578748745
 C   -2.0354258744   -0.2266134757   -1.2594959253
 C   -2.1836965073   -1.3167481953   -2.0122216864
 C   -1.6615480056   -2.5559039855   -1.3296166458
 C   -1.3798926807   -2.0612302959    0.0949475125
 C   -0.6366225626   -2.8605681192    1.0985150844
 N   -2.1076771891   -2.7668479268    1.1637985325
 H   -0.1698588315    1.6906239791   -0.9209550348
 H    0.6950500850   -0.4201829727   -0.6676820600
 H    0.5380616563   -0.1520056703    1.0745837454
 H   -1.9041936994   -0.0935731420    0.9048497721
 H   -2.3438894743    0.7742730048   -1.5415855549
 H   -2.6215538461   -1.3363428245   -3.0042186386
 H   -2.3830880474   -3.3797640773   -1.3117965418
 H   -0.7564524652   -2.9340961780   -1.8253626538
 H   -0.2526257923   -3.8424529568    0.8326356606
 H   -0.0477679617   -2.3412969397    1.8503840172
 H   -2.3742554466   -2.1107840865    1.8951297502