14

 N   -0.0604194537    1.3214814433    0.0287471790
 C   -0.0077297120   -0.0030499495    0.0005874821
 N    1.1185687242   -0.7210921837   -0.0441363993
 H    1.0111914202   -1.7258921664   -0.0246346738
 H    2.0258535387   -0.2968695954    0.0201973208
 N   -1.1720179491   -0.6652612949    0.0125175337
 N   -1.2285313358   -2.0712336163    0.0048565939
 N   -2.4896084012   -2.3522174282    0.0098048999
 C   -3.2699498504   -1.2471955304    0.0194290307
 C   -2.4850878366   -0.0804789931    0.0229517956
 O   -2.6589449847    1.1539447754    0.0328124455
 H    0.7670793510    1.8885426571   -0.0212964112
 H   -1.0365938414    1.6918763849    0.0332621119
 H   -4.3444152691   -1.3121294027    0.0253250613