20

 C   -0.2313851349    1.7560548517   -0.4312915984
 C   -0.0631006904    0.2745626192   -0.1398070031
 C    0.9817473162   -0.4728233076   -1.0132666356
 C    1.7686573781   -0.5696051010    0.2721407847
 N    2.8795702075   -1.0528646921    0.5975255072
 O    0.8242617880    0.0871523501    1.0337369222
 C   -1.3834726351   -0.4293049603    0.0660264832
 C   -1.4861480556   -1.7136121679    0.8455796122
 C   -2.0472689719   -0.4344783204    1.4190204675
 H    0.7403000074    2.2439661364   -0.5481847775
 H   -0.8027037533    1.8969822812   -1.3549263619
 H   -0.7723445752    2.2466413335    0.3829011372
 H    0.6539528271   -1.4317806277   -1.4173478884
 H    1.4578982276    0.1167059516   -1.7987487456
 H    3.0646472402   -0.9123042077    1.5924511563
 H   -2.0416068241   -0.3340926873   -0.7942047306
 H   -2.1768131433   -2.4697032623    0.4896301348
 H   -0.5847399135   -2.1040795987    1.3032839634
 H   -1.4995208443    0.0131881118    2.2405300912
 H   -3.1230157104   -0.3093094325    1.4661503714