19

 C    0.0037354844    1.6121769969   -0.0030802940
 C    0.0985353260    0.0917739776    0.0113743804
 C    0.8006532460   -0.6651342193   -1.1183181607
 C    2.2800922406   -0.7974762180   -0.7555400428
 C    2.4959692891   -0.1284265546    0.5994872627
 C    1.0823817648   -0.6466665615    0.9713064677
 C    1.2550266651   -1.7583788309   -0.1595995071
 C    1.1283963094   -3.1607559847   -0.1787116902
 C    1.0153024767   -4.3606146230   -0.1740442106
 H    0.9697721044    2.0860777753   -0.1973709719
 H   -0.6874317091    1.9457235421   -0.7849790244
 H   -0.3734569827    1.9910643501    0.9536514687
 H   -0.8986680989   -0.3411858818    0.1487786171
 H    0.4619636713   -0.8127389846   -2.1362298630
 H    3.0184789609   -1.0415953501   -1.5082951099
 H    3.2686578204   -0.6497738818    1.1703859533
 H    2.6782792873    0.9504262353    0.6406376770
 H    0.8094338773   -0.8375936715    2.0068659938
 H    0.9168150270   -5.4173178956   -0.1741498160