18

 C    0.0307805236    1.2509488350   -0.4906414741
 C   -0.0180775458   -0.2219762079   -0.0705981650
 C   -1.4342176434   -0.6930522924    0.1905871846
 O   -2.3177817859   -0.5841438297   -0.9714356465
 C   -2.7301284489   -1.9604253408   -0.8524218864
 C   -1.7403088574   -2.1965266490    0.3031060742
 O   -0.9171033964   -3.0281785431   -0.5660602262
 C   -1.8182944943   -2.9017025241   -1.6222740459
 N   -1.8161301193   -3.4123036090   -2.7633973288
 H    1.0581369857    1.5628887894   -0.6983873801
 H   -0.5645008376    1.4110475144   -1.3937177199
 H   -0.3661012581    1.9036553154    0.2946512781
 H    0.4294414237   -0.8539148550   -0.8434694805
 H    0.5653134392   -0.3776455262    0.8465042009
 H   -1.8827579015   -0.1403796001    1.0291243413
 H   -3.8094918086   -2.1067530450   -0.8689712343
 H   -1.9269850850   -2.6692541190    1.2646899554
 H   -0.9897709201   -3.9933114828   -2.9172129168