19

 C   -0.0409655059    1.5716247217    0.2079974982
 C    0.0306317977    0.0814459840    0.0376779399
 C   -0.8782590831   -0.9075372476    0.7185112642
 C    0.6077060163   -0.9827851635    0.9692818002
 C    1.3558026976   -1.6093127779   -0.2442568045
 O    0.3910271000   -1.9928511432   -1.2516298189
 C    0.8024741549   -0.6107838546   -1.1477645849
 C    1.3311755501    0.0047633789   -2.4100167381
 O    2.1575683465   -0.8989113575   -3.1099676581
 H    0.9368211151    2.0458481842    0.0633625857
 H   -0.7400092837    2.0266678759   -0.5042164822
 H   -0.3847763938    1.8278556460    1.2151416294
 H   -1.4511754682   -0.4924674329    1.5424620690
 H   -1.3769177432   -1.6872963985    0.1573569257
 H    1.0550257907   -0.8490555125    1.9456002729
 H    2.3048014740   -2.1310063142   -0.2420216301
 H    0.4823910376    0.3454317198   -3.0285812047
 H    1.9338256075    0.8888715021   -2.1738344306
 H    1.7024306497   -1.7502956803   -3.0725167231