16

 C   -0.1047147545    1.3755128357    0.0094381411
 O   -0.0543593405   -0.0531076172    0.0041523575
 C   -1.2098980080   -0.7023339836    0.0124594091
 N   -1.3519057802   -1.9870005951    0.0105428949
 C   -2.7366988736   -2.1581047861    0.0216915617
 C   -3.3432836366   -3.5195666735    0.0234231007
 O   -4.7532796434   -3.3765319825    0.0352692943
 C   -3.3484264809   -0.9555946531    0.0298691947
 O   -2.3539423833    0.0139751385    0.0237583621
 H    0.9345565371    1.7031800798    0.0016493066
 H   -0.6233583307    1.7536544691   -0.8765779458
 H   -0.6080859217    1.7475873424    0.9067603255
 H   -2.9937292408   -4.0708008491   -0.8645250726
 H   -2.9793292542   -4.0749717999    0.9029495992
 H   -5.1427639821   -4.2548790243    0.0364817293
 H   -4.3645999268   -0.6095277911    0.0393315818