17

 C    0.1137472459    1.5123980218   -0.0657989702
 C    0.0516256274    0.0327322246    0.0894939434
 O    0.4850779964   -0.7925511553   -1.0344288532
 C    1.2017031776   -1.6373048960   -0.1833256986
 O    1.9230920543   -2.5311668046   -0.4944957750
 C    0.7155794222   -0.9493753368    1.0551954996
 N    1.3006205422   -0.7356075432    2.3237715482
 C   -0.8613497462   -0.7977886961    0.9051013615
 N   -1.5631307583   -0.2067851577    2.0005266057
 H    1.1274200238    1.8459445033   -0.3064999971
 H   -0.5557350379    1.8355433952   -0.8697608294
 H   -0.2133370411    1.9997860945    0.8560656781
 H    1.3403193989   -1.5932045897    2.8658523943
 H    2.2446408390   -0.3713743630    2.2518583647
 H   -1.4046985962   -1.5891816478    0.3973812850
 H   -2.0625155050   -0.9228532232    2.5173824779
 H   -0.8986911229    0.2102992139    2.6486024152