16

 C    0.1546959292    1.2277584201   -0.4428836926
 N   -0.1826488799    0.1872279820    0.5206498264
 C   -1.4574852323   -0.4162030929    0.3081065720
 C   -1.7517837659   -1.3733239047   -0.8371086928
 C   -1.5992668374   -1.8949113284    0.5874094699
 O   -0.4132066680   -2.5481690927    0.9335596859
 C   -2.7761517059   -2.3705434572    1.2832347398
 N   -3.7163446422   -2.7706666340    1.8252249339
 H    1.1518422559    1.6152016257   -0.2176024228
 H    0.1385889432    0.8930650894   -1.4943394008
 H   -0.5537088288    2.0583658017   -0.3496494002
 H    0.5339142104   -0.5275259460    0.5649127965
 H   -2.2951814105    0.1997556548    0.6264911430
 H   -2.7381060797   -1.3840691835   -1.2870002147
 H   -0.9287460614   -1.6264172903   -1.4972263276
 H   -0.4286258466   -3.4329537339    0.5508826140