19

 O   -0.1566734474    1.5445545071   -0.4483535793
 C   -0.2897999617    0.1478428223   -0.6482234502
 C   -0.8220659548   -0.4398866381    0.6638980384
 C   -1.0009986891   -1.8836625103    0.5995201942
 C   -1.1421440054   -3.0775697303    0.5162495011
 C   -1.3122258768   -4.5167562632    0.4351557831
 C   -1.8326363105   -5.2597617229    1.6979529619
 C   -2.9732323323   -5.7305166471    0.7769365369
 O   -2.4842343184   -4.9302280540   -0.3203094154
 H    0.1531531778    1.9389734976   -1.2685410178
 H   -0.9917723709   -0.0839589341   -1.4626147066
 H    0.6731796500   -0.3234552347   -0.8951885889
 H   -0.1233449881   -0.1792829127    1.4684729776
 H   -1.7706080674    0.0544012245    0.9064257308
 H   -0.4090273399   -4.9746666614    0.0086005274
 H   -1.1718661488   -6.0328481828    2.0914052995
 H   -2.1384823964   -4.5922365693    2.5032436138
 H   -2.9666584512   -6.8007814181    0.5347028693
 H   -3.9876551085   -5.4402194425    1.0731525543