17

 C    0.1390161007    1.5635121183    0.0641036573
 C   -0.0251313037    0.0839629598    0.0223557922
 C   -1.1311827897   -0.6993132587   -0.0125822222
 C   -2.5830371637   -0.3745877738   -0.0362066163
 O   -3.2711744371   -1.0330994538   -1.0985985764
 N   -0.6960678500   -2.0302510529   -0.0022395783
 C    0.6874541893   -2.1147086728    0.0044214951
 O    1.3944972157   -3.1016271088   -0.0233605469
 N    1.0739964598   -0.7768706648    0.0487126834
 H    0.7700775016    1.9199951373   -0.7593747272
 H   -0.8285081464    2.0631727908   -0.0155779502
 H    0.6075102385    1.8940341030    0.9994684455
 H   -3.0807054459   -0.7301129898    0.8743677431
 H   -2.7159324648    0.7156876321   -0.0732037353
 H   -2.8397751832   -0.7779667058   -1.9216612016
 H   -1.2863888658   -2.8302833569   -0.1498813218
 H    2.0421094447   -0.5077268331    0.0603343396