21

 C   -0.0234700476    1.4510961199    0.3009789464
 C   -0.0377215257   -0.0540778858    0.0128472061
 C   -1.4698883106   -0.5935396202   -0.0914637923
 C    0.7355433737   -0.3955467312   -1.2773069251
 N    2.1415463200   -0.0315654806   -1.2660975370
 C    3.0517675178   -0.7743200465   -0.4112430604
 C    2.6360019339    0.9385831976   -2.0888628585
 O    3.7964706548    1.2866371943   -2.1572126128
 H    0.9968076788    1.8364741736    0.3834291777
 H   -0.5271074644    2.0069417603   -0.4994492176
 H   -0.5441639765    1.6747730111    1.2372742752
 H    0.4552416279   -0.5698330899    0.8479294619
 H   -2.0101510362   -0.1164517916   -0.9180785839
 H   -1.4819538377   -1.6748366209   -0.2654202708
 H   -2.0309739578   -0.3960076821    0.8268667683
 H    0.6494452713   -1.4738198663   -1.4744773447
 H    0.2641740658    0.1207192804   -2.1224715412
 H    2.9598707970   -1.8510285960   -0.5989361620
 H    4.0653394420   -0.4467096074   -0.6426979694
 H    2.8511520316   -0.5908316116    0.6502758108
 H    1.8375895417    1.3897291028   -2.7103312909