18

 C    0.0182053457    1.4304508586   -0.1216891803
 C   -0.0485418764   -0.0631594248   -0.0534435834
 O    0.4895271159   -0.7704561407   -1.1999768631
 C   -0.2866959444   -1.9099780586   -0.7491281492
 C   -0.5486637758   -2.9653614851   -1.7774881068
 C    0.2074889842   -2.2436769326    0.6896879938
 C    0.3850272885   -0.8664269758    1.2085173847
 N   -0.9366360830   -1.5610443461    1.3868934968
 C   -1.2923096751   -0.9950358978    0.0062096115
 H    1.0610888893    1.7650814782   -0.1388301765
 H   -0.4752133036    1.7999954039   -1.0247677647
 H   -0.4695528342    1.8729154587    0.7521130062
 H    0.3911356870   -3.4299262367   -2.0950323714
 H   -1.1947220174   -3.7460192465   -1.3646953576
 H   -1.0339023414   -2.5365818537   -2.6585482598
 H    0.6786539786   -3.1354304453    1.0847477416
 H    1.0079918797   -0.5804943965    2.0472368967
 H   -2.3190650477   -0.7593719692   -0.2678930484