19

 C    0.3235578580    0.6149092446    1.2423307746
 N   -0.1639013479    0.2527243793   -0.0780197137
 C    0.9233924100   -0.0563966068   -1.0064067520
 C   -1.2211314313   -0.6706899829   -0.0703389429
 C   -1.6907416513   -1.5320168384    0.9041203125
 C   -2.8368233002   -2.1856005887    0.3582345093
 O   -3.6164772938   -3.1326410423    0.9614430920
 C   -3.0348978285   -1.7233447358   -0.9168333703
 N   -2.0267411161   -0.8011492622   -1.1691344353
 H    1.0103619578    1.4624124482    1.1520990622
 H   -0.5163280157    0.9107939119    1.8749902014
 H    0.8662700309   -0.2057386769    1.7450224092
 H    1.5470204889   -0.8999253593   -0.6623848288
 H    0.5188531398   -0.3149360189   -1.9869885719
 H    1.5652468730    0.8230729283   -1.1209066907
 H   -1.2503952656   -1.7023845207    1.8745372017
 H   -3.2792161603   -3.2781500684    1.8493469418
 H   -3.7736623406   -1.9789797510   -1.6559992715
 H   -2.0098788870   -0.1663674401   -1.9474860175