19

 C    0.0803157602    1.4410846561   -0.0477776923
 C    1.3219966270    0.6454423265    0.0435123691
 N   -0.0473352674   -0.0178898746    0.0984112836
 C    0.2315038060   -0.5776582326   -1.2717649669
 C    1.6680920859    0.0042530673   -1.2938714329
 C    2.2584221713    0.7182416685   -2.5366854311
 N    3.3328564646   -0.3249872943   -2.7086309890
 C    4.1258820203   -0.2664336182   -1.4692793168
 C    2.8287884064   -0.9721043073   -1.4273932039
 H   -0.2326616567    1.9855062779    0.8378609299
 H   -0.2028215678    1.9064083155   -0.9907154748
 H    1.9756880569    0.6780337179    0.9102639872
 H    0.2047989971   -1.6697604482   -1.2450103444
 H   -0.4612714644   -0.2206911714   -2.0427544743
 H    1.5873423179    0.7093177437   -3.3989774214
 H    2.6470934845    1.7329553452   -2.3933549861
 H    5.0249891903   -0.8734788004   -1.5108402216
 H    4.2461518139    0.6898043162   -0.9623923707
 H    2.7536031140   -2.0507111779   -1.3211710234