16

 O   -0.0348004886    0.0526540741    0.0047423253
 C   -0.0190358273    1.2513222558    0.0111010745
 C   -1.2814510438    2.1436361992    0.0327721701
 N   -0.7261270129    3.4739318131    0.0321175697
 C   -1.2473891871    4.7401794409    0.0449102303
 C   -0.1831514313    5.6173605036    0.0347577097
 C    1.0208855077    4.8539976432    0.0151605899
 C    0.6514206475    3.5294773915    0.0139164849
 C    1.2304383296    2.1537282390   -0.0005325030
 H   -1.9016250040    1.9357227894   -0.8473248856
 H   -1.8775705509    1.9265480884    0.9271735143
 H   -2.3114950392    4.9115978693    0.0599666439
 H   -0.2588156210    6.6940371305    0.0408052752
 H    2.0288606318    5.2387313274    0.0035279245
 H    1.8536285758    1.9121482321    0.8693102839
 H    1.8310861237    1.9210230724   -0.8884370277