23

 C   -0.1051426166    1.6585190968   -0.2221132331
 C   -0.0103227885    0.1332178027   -0.3160343033
 C   -1.2900113591   -0.5586427660    0.1549845154
 O   -2.4016147798   -0.1031796199   -0.6326969906
 C   -2.9183135502   -1.2101419875   -1.3482623319
 O   -1.9448494073   -2.2159343224   -1.3243153579
 C   -1.3457050635   -2.0952959650   -0.0331406029
 C   -0.0436543322   -2.8794228873    0.0080996012
 C   -0.2604504673   -4.3854454909   -0.1700809174
 H    0.8102517510    2.1331905110   -0.5878521095
 H   -0.9457724969    2.0267814473   -0.8153592464
 H   -0.2585784145    1.9822878359    0.8137181400
 H    0.1901450499   -0.1661194572   -1.3513674802
 H    0.8300006508   -0.2247970789    0.2916975022
 H   -1.4838486125   -0.2960673792    1.2040255511
 H   -3.8533899274   -1.5555680553   -0.8699601245
 H   -3.1138742562   -0.9276320406   -2.3882439690
 H   -2.0401269953   -2.5082522830    0.7201938896
 H    0.6249799910   -2.5040784769   -0.7730195563
 H    0.4456539855   -2.6821828209    0.9699850396
 H   -0.8955525170   -4.7907818920    0.6254016427
 H   -0.7474274449   -4.5940440102   -1.1261720431
 H    0.6914322608   -4.9239318404   -0.1450006657