20

 C   -0.1919986655    1.4623151540   -0.0254479081
 C    0.0021268230   -0.0508999528   -0.0330510814
 C    1.2084696061   -0.5648786710   -0.8832265809
 C    2.0144057052   -0.8503074312    0.4198017613
 C    0.7259205145   -0.6025467631    1.2133381408
 N    0.5789496146   -0.0869375943    2.5531666767
 C    0.1974415964   -1.4987341640    2.2942348690
 C   -1.2566644435   -1.7854244453    2.4029513503
 O   -1.7178544265   -2.8823288292    2.6001900989
 H    0.7515217107    1.9829310384    0.1727354488
 H   -0.5702713450    1.8085265976   -0.9928348551
 H   -0.9010035371    1.7624972339    0.7514364140
 H   -0.9457100609   -0.5463242879   -0.2626983920
 H    0.9798548459   -1.4725780572   -1.4452587585
 H    1.6478641662    0.1669055937   -1.5645794629
 H    2.4688266227   -1.8394041597    0.5149045498
 H    2.7806244727   -0.0951357147    0.6234904171
 H    1.4726843610   -0.0523045259    3.0382988801
 H    0.8489947814   -2.3017330303    2.6311688435
 H   -1.9001640319   -0.8860281312    2.2801098887