15

 C   -0.2135094353    1.5744728556   -0.0826971782
 N    0.1643289036    0.1667317316    0.0422773639
 C    1.3815267472   -0.4997667017   -0.3006448836
 C    2.6995578151    0.1678128518    0.2470928571
 N    2.3465252974    1.4413384496    0.9213857662
 C    2.1604564784    0.1449231509    1.6184360450
 C    0.8298717503   -0.5232174022    1.1026536781
 H    0.4567215754    2.1105991114   -0.7571572315
 H   -1.2343354355    1.6232354490   -0.4829532544
 H   -0.1875256979    2.0833065508    0.8826753072
 H    1.3863231070   -1.2717782751   -1.0637037599
 H    3.7016329358   -0.0317653639   -0.1088177065
 H    3.2167763368    1.8433622671    1.2702102521
 H    2.6542867964   -0.0762229973    2.5553905505
 H    0.3226770653   -1.3169977276    1.6420518137