21

 C   -0.0572778648    1.5381748715   -0.0190698900
 C   -0.0398908270    0.0157571593   -0.0246132702
 C   -1.2748680371   -0.7246297861    0.5433472050
 O   -0.4345734045   -1.5936644848    1.3299939024
 C    0.6822151332   -0.6940228420    1.1609703082
 C    2.0191885511   -1.3687895735    0.9128837710
 O    2.1649845763   -1.9023918970   -0.3867711059
 C    1.8974098895   -0.9311455400   -1.3823306181
 C    0.4135482597   -0.5644766609   -1.3851838599
 H    0.9238939233    1.9477846281   -0.2854530167
 H   -0.7801095621    1.9224273586   -0.7478542482
 H   -0.3282263994    1.9335284090    0.9653394039
 H   -1.9129420118   -0.0944283705    1.1807167738
 H   -1.9032959237   -1.2811523222   -0.1607628841
 H    0.7771448344   -0.0362989207    2.0402947945
 H    2.8167844011   -0.6297471757    1.1095667757
 H    2.1446834595   -2.2002674493    1.6138621613
 H    2.5269376967   -0.0373738953   -1.2235935325
 H    2.1889291011   -1.3783642814   -2.3369062499
 H   -0.1421587282   -1.4812214865   -1.6061319462
 H    0.2001395926    0.1479968593   -2.1905951341