22

 C    0.1383408063    1.5756152774   -0.0503550499
 C   -0.0051955150    0.0494220451   -0.0832001443
 C   -1.4399622110   -0.4964534227   -0.0178610169
 C   -2.3447050524    0.0463194447   -1.1245360514
 C   -1.5036893695   -2.0508219480    0.1540969508
 C   -2.1810966198   -1.7706226641    1.5092005314
 O   -2.6583211147   -2.4243738090    2.4025888537
 N   -2.0645300759   -0.4165540001    1.3307166714
 C   -2.5980725220    0.6620914386    2.1243951664
 H    1.1954762507    1.8575289185   -0.0642817521
 H   -0.3371945462    2.0502791965   -0.9138862168
 H   -0.3032492164    2.0069914880    0.8531207562
 H    0.4546926752   -0.3349083905   -1.0030609896
 H    0.5578317307   -0.3874816463    0.7500361467
 H   -1.9027672975   -0.1409717323   -2.1087017143
 H   -3.3255606534   -0.4371485442   -1.0913164783
 H   -2.4992206044    1.1255999096   -1.0309368659
 H   -2.1373803366   -2.5745946419   -0.5643538270
 H   -0.5367893985   -2.5532916454    0.2252972226
 H   -3.1867500765    0.2114746610    2.9279171146
 H   -1.8124455265    1.2800148157    2.5745494202
 H   -3.2529579365    1.3113469698    1.5311514326