13

 O    0.1441301525    1.3817228933    0.0963317311
 C   -0.0242875606    0.0058103574   -0.1039164759
 C   -1.4783652032   -0.3780277633    0.1564358423
 O   -2.3479979296    0.4286070965    0.3327828850
 C   -1.7138276894   -1.9018959454    0.1861608838
 C   -3.0994493368   -2.2964232284    0.0065103973
 C   -4.2432019584   -2.6262487068   -0.1482435862
 H    1.0536872343    1.6074158972   -0.1191143430
 H    0.2071970958   -0.3080277107   -1.1380026433
 H    0.6157698072   -0.6074624964    0.5551941352
 H   -1.0701831820   -2.3815319933   -0.5632783546
 H   -1.3396726009   -2.2549588723    1.1587060638
 H   -5.2573393289   -2.9098735778   -0.2839428355