15

 N   -0.0277568665   -1.1350084499   -0.0038791394
 C   -0.0320458908    0.0202160224    0.0025624334
 C   -0.0051349642    1.4793603049    0.0102651273
 C    1.4415102810    2.0203658865   -0.0012765025
 N    1.4515891734    3.4681412892    0.0064971408
 N    1.3927620646    4.1792704484   -1.1157672849
 C    1.3344331169    5.4392784584   -0.6826532080
 C    1.3512340826    5.4316694444    0.7196080101
 N    1.4197716382    4.1670459964    1.1375063939
 H   -0.5420591452    1.8565224499   -0.8661148529
 H   -0.5243813213    1.8468704946    0.9012719971
 H    1.9839329615    1.6810372887    0.8816973504
 H    1.9661090133    1.6904321798   -0.8984794485
 H    1.2922199018    6.2638257930   -1.3759533946
 H    1.3257464746    6.2486344233    1.4226318378