14

 C    0.0005604537    1.4608937897    0.0058859746
 N    0.0166464406   -0.0007252437   -0.0053918452
 C    0.0921192173   -0.6529929407    1.2232128337
 N    0.1438617996    0.0236196689    2.2985837823
 C   -0.0389629313   -0.7510218069   -1.1672551697
 N   -0.0243768319   -2.0303076369   -1.1693872690
 C   -0.1163064114    0.0019382864   -2.4091659850
 N   -0.1795332169    0.5097699991   -3.4464399060
 H    0.9073214214    1.8371833107    0.4851166046
 H   -0.0605115916    1.8370907049   -1.0138333239
 H   -0.8557671793    1.8169769936    0.5832636556
 H    0.0989351406   -1.7372366435    1.1216700223
 H    0.1954148347   -0.6018491678    3.1005342385
 H   -0.0724789554   -2.3978218539   -2.1155065528