19

 C    0.8207759465    1.2753740143    0.1236686977
 C    0.0856869972   -0.0503831161   -0.0294760254
 O   -1.2853269493    0.1526909702   -0.3210210959
 C    0.7093094867   -1.0398986526   -1.0482318676
 C    1.3100376817   -1.8836820105    0.1382252922
 C    2.7834300417   -1.6662952829    0.2953602558
 O    3.3012526984   -0.8519664704    1.0310171699
 C    0.3745198283   -1.0929231141    1.1084170972
 O    0.8458376845   -0.6824070560    2.3563473030
 H    1.8934581192    1.1358348959    0.2765745179
 H    0.6701710238    1.8868357340   -0.7711460066
 H    0.4365208390    1.8210576516    0.9931337423
 H   -1.6380201207    0.7779253702    0.3220232080
 H   -0.0627822840   -1.5928904324   -1.5840321753
 H    1.4189519861   -0.6215896965   -1.7657365483
 H    1.1312534014   -2.9599673430    0.0549665100
 H    3.4217597832   -2.3079029302   -0.3512994190
 H   -0.5456502052   -1.6620923285    1.2745679200
 H    1.7736226716   -0.4319681130    2.2380347842