16

 O   -0.9759488061    1.3865432637    0.3128694927
 C    0.1302974665    0.9394442794    0.1453340692
 C    1.3613211366    1.7998933736   -0.0544528909
 O    2.4316274145    1.0739641111   -0.6797467686
 C    2.5486381859    2.0581163626   -1.7344864442
 C    1.3617062595    2.8761405544   -1.1758511447
 C    0.1099383309    2.9818642725   -2.0570253856
 C    0.3267337882    3.9019349117   -3.1718965305
 N    0.5269805517    4.6298849623   -4.0466295326
 H    0.3398869180   -0.1529658544    0.1273164355
 H    1.6522729481    2.1969057513    0.9305512965
 H    3.5184569624    2.5655251995   -1.7112908394
 H    2.3973821163    1.6146898615   -2.7255881514
 H    1.6388451585    3.8679028282   -0.8170850749
 H   -0.1654246740    2.0017922233   -2.4626538425
 H   -0.7440066570    3.3202837594   -1.4620667485