19

 C   -0.0163431713    1.4900828125    0.0568626914
 C   -0.0272637105    0.0352034777    0.0198629368
 C   -0.0404953551   -1.1686760529   -0.0035872709
 C   -0.0628718294   -2.6343209274   -0.0644330942
 O   -1.3790220370   -3.1512630785   -0.1945421287
 C    0.8145810955   -3.1533917329   -1.2142328283
 C    0.8433716606   -4.6803414416   -1.4378213374
 C    0.2680506045   -4.3436227095   -2.8260237423
 O    0.1503295466   -2.9409898499   -2.4855355316
 H    1.0012510316    1.8813710432   -0.0511629832
 H   -0.6197754790    1.9108632408   -0.7548700146
 H   -0.4197327520    1.8686289266    1.0024456064
 H    0.3305557038   -3.0477462484    0.8735953449
 H   -1.6600363651   -2.8912369834   -1.0825432800
 H    1.7972227561   -2.6668965784   -1.1894335368
 H    1.8268296508   -5.1507288313   -1.4189189668
 H    0.1534908855   -5.2218448100   -0.7900417326
 H    0.9583698303   -4.4929388573   -3.6650721442
 H   -0.7025222560   -4.7847283192   -3.0773110677