17

 O   -0.0466698176   -0.0007232781   -0.2418034202
 C   -0.0349033700    1.1780735126   -0.0640385228
 C   -1.0610236606    2.2677235181    0.2701617710
 O    0.0069238498    3.2360680899    0.3263993073
 C    1.0393448132    2.2785963015   -0.0243477213
 C    2.1331095261    2.1468303988    1.0158710910
 C    3.3173009121    1.2546418693    0.5772371371
 O    4.1698622026    2.4040686919    0.4009284196
 C    3.1880272542    3.2765984107    0.9977306256
 H   -1.7899263998    2.4767017121   -0.5233346593
 H   -1.5874368381    2.1501000567    1.2254785043
 H    1.4726752544    2.5006627283   -1.0110639271
 H    1.7006893734    1.9212050439    1.9927185564
 H    3.6880727875    0.5799378050    1.3589869472
 H    3.1868021751    0.6853951238   -0.3502247102
 H    2.9644627626    4.1454354160    0.3684054914
 H    3.4965127553    3.6236445194    1.9922066301