16

 O   -0.0846188606    1.4143977164   -0.1863446225
 C   -0.0048049264    0.0304100556    0.0191757091
 C    0.2702214773   -0.5335938533    1.4641606079
 C   -1.0689641936   -1.2753956272    1.3631483833
 O   -1.2909571537   -2.5788894946    1.7417016048
 C   -2.2124634383   -0.2856352829    1.2069522284
 C   -2.2437007627    1.0040547996    1.8438986348
 N   -2.2869509238    2.0058847012    2.4212203301
 C   -1.3561420950   -0.6730785227    0.0033212995
 H    0.7684876350    1.8102514496    0.0184267360
 H    0.6738557957   -0.4466113812   -0.7012280386
 H    1.1238117912   -1.2131474962    1.4933529108
 H    0.3500628410    0.2082528504    2.2632528358
 H   -1.3823371948   -2.6107034751    2.7013468881
 H   -3.1776902929   -0.7834149428    1.1860197182
 H   -1.8359833685   -1.1084020468   -0.8641104660