15

 N    0.0470187503   -1.1445740502    0.1087708610
 C    0.0536547688    0.0102688981    0.0494551183
 C    0.0391686079    1.4353262757   -0.0754489976
 C   -0.6928360396    2.2282392735   -1.1817438051
 C    0.5045157591    3.2028076196   -1.1726211655
 C    1.0841922780    3.9624897573   -2.2763481649
 O    0.4092025875    4.6130913126   -1.1859757620
 C    1.1972343897    2.4209502795   -0.0752702843
 N    0.3296500519    2.2706272240    1.0836530520
 H   -0.7892055649    1.6819499938   -2.1221710588
 H   -1.6653315963    2.6352452743   -0.8916580924
 H    2.1602395936    4.1243913358   -2.3189441560
 H    0.5677071284    3.9977875458   -3.2341946069
 H    2.2578862265    2.2382826056    0.0480818766
 H   -0.3388916009    3.0326423346    1.1869269457