21

 C    0.1762919025    1.5175265895    0.0804561229
 C   -0.0495848083    0.0077588654   -0.0119186998
 O   -1.4359120788   -0.2988964856   -0.1020424096
 C    0.7720174624   -0.6103073187   -1.1684195182
 O    2.0661970689   -0.8114688185   -0.6274304234
 C    1.8651864229   -1.3087188655    0.6838230805
 C    2.3270828902   -2.7127254355    0.9717706638
 C    3.0961718167   -1.5105191166    1.4997850783
 C    0.5416109375   -0.7469158441    1.2042485607
 H    1.2460389523    1.7403923930    0.1338551099
 H   -0.2260642143    2.0268576028   -0.8045958780
 H   -0.3147495589    1.9277813110    0.9677142934
 H   -1.8266812682    0.2803142874   -0.7646950537
 H    0.3014150072   -1.5590987175   -1.4698658805
 H    0.8694166098    0.0385271473   -2.0439662573
 H    1.7594586187   -3.3145249627    1.6743367776
 H    2.7739739123   -3.2618926139    0.1505696368
 H    4.0425053983   -1.2782065728    1.0238468504
 H    3.0531681271   -1.2896942389    2.5612794261
 H    0.6783916097   -0.0849077476    2.0636577756
 H   -0.1516761280   -1.5402743884    1.4931558946