18

 C   -0.0351219222    1.4513340344   -0.0152528443
 C   -0.0271372977   -0.0044751577   -0.0008294512
 C   -0.0163013351   -1.2084894356    0.0285037282
 C   -0.0383786920   -2.6675500933    0.0277983558
 C   -1.4895407387   -3.2018823854   -0.1264110508
 O   -1.6379704958   -4.5363931139    0.2976942052
 C    0.9186586102   -3.1797568164   -1.0895351469
 C    0.9364877449   -4.6339530191   -1.2360332235
 N    0.9247448850   -5.7835825041   -1.3626818142
 H    0.6548299049    1.8447657883   -0.7696049901
 H   -1.0334057731    1.8400750918   -0.2434971827
 H    0.2664204154    1.8587200674    0.9557659037
 H    0.3254532388   -3.0464243495    0.9908155637
 H   -2.1386280403   -2.6016114904    0.5163747951
 H   -1.8247179431   -3.0486684772   -1.1644599825
 H   -1.2064491766   -5.1248410370   -0.3315147856
 H    0.6182373955   -2.7413950881   -2.0476599827
 H    1.9371849998   -2.8347143939   -0.8876251970