13

 N   -0.0013167333    1.2440753770   -0.5213695182
 C   -0.0438891711    0.1678568388    0.1305247006
 O    0.8896339544   -0.1371395383    1.0998695429
 N    1.4204750952   -1.4677055032    1.1308681624
 C    0.5896180244   -2.3746429597    1.4941681038
 N   -0.7341955975   -2.2877198301    1.9007628146
 C   -1.5451224010   -1.5297339567    1.2738032982
 C   -1.2290702317   -0.7508790687    0.0396245171
 N   -1.9303582454   -0.7995012510   -1.0202749768
 H    0.8590264627    1.7541447269   -0.3085689102
 H    1.0295632309   -3.3672019360    1.5624761104
 H   -2.5775059613   -1.4831926826    1.6288643951
 H   -2.7426711664   -1.4121033563   -0.8926290699