18

 C   -0.1138911762    1.2064817487   -0.0515919516
 O   -0.4183826884    0.2667756521   -1.0718744057
 C    0.6540811392   -0.5407666304   -1.3965658067
 C    1.0042709904   -1.7016857313   -0.4769688659
 O    0.3177949327   -1.8199821010    0.7148996362
 C    0.3057432031   -1.9517895425   -1.8002169941
 O   -1.0762559350   -2.2424473562   -1.8957695487
 C   -1.5949894754   -3.3015913485   -1.2726703468
 N   -1.0037943548   -4.0039431642   -0.3967171433
 H    0.1632497242    0.7017830683    0.8799250460
 H    0.7014835654    1.8793689055   -0.3576589551
 H   -1.0176912595    1.7993492008    0.1071534747
 H    1.4684157844   -0.0444870360   -1.9292195161
 H    2.0518426313   -2.0103603864   -0.4552852382
 H   -0.0827843041   -2.7091894471    0.6928639370
 H    0.8665292882   -2.4257656371   -2.6008594994
 H   -2.6149607592   -3.4547049324   -1.6359972865
 H   -1.6102165562   -4.7506125322   -0.0678754160