16

 N   -0.0464183361   -1.1249012741   -0.2252980843
 C   -0.0392788930    0.0251728556   -0.1106805758
 C   -0.0122734897    1.4784456043    0.0597311780
 O   -0.3683153774    2.1625642363   -1.1674476132
 C    0.8387446032    2.9624165592   -1.1177658017
 C    1.3651784066    2.2135659740    0.1261421452
 C    1.4014521250    2.9699565413    1.4651150251
 C    0.0048426631    2.7847960586    2.0120132212
 C   -0.7529959002    1.9704492695    1.2781086339
 H    1.4289047368    2.8470803392   -2.0323534244
 H    0.6166686226    4.0247822051   -0.9595281623
 H    2.2426881028    1.5969889649   -0.0602575457
 H    2.1539775240    2.5601797766    2.1499898125
 H    1.6529355943    4.0296254657    1.3310831301
 H   -0.3253503415    3.2754848145    2.9213045629
 H   -1.7776024305    1.6854984691    1.4800477484