17

 C    0.0324350910    1.5658296626    0.0837903856
 C   -0.0107669372    0.0370850878   -0.0907433612
 C   -1.4067015925   -0.5217002804   -0.0539499737
 C   -2.0515592636   -1.0171116548   -1.1484411055
 N   -3.3279309611   -1.5286551883   -1.1680686950
 C   -3.9442314127   -1.5341255603   -0.0302498699
 N   -3.4000241532   -1.0761443113    1.1248394284
 C   -2.1021627537   -0.5334144738    1.2260742500
 O   -1.6800954166   -0.1447816366    2.3013833825
 H    1.0660646692    1.9241575516    0.0621840380
 H   -0.5185836857    2.0685185962   -0.7174938644
 H   -0.4095950689    1.8509207542    1.0410907229
 H    0.4625621837   -0.2453332430   -1.0374390763
 H    0.5707302468   -0.4243988881    0.7157058641
 H   -1.5445784812   -1.0275172335   -2.1107062569
 H   -4.9576343715   -1.9213799541    0.0400422156
 H   -3.9234570026   -1.1063262684    1.9904436159