14

 C    0.0780859850   -1.1434309762    0.0278840216
 C   -0.0059964610    0.0558094258    0.0187536513
 C   -0.0665370869    1.4784438642    0.0133205622
 N   -1.1531865236    2.1487324504    0.0965139799
 C   -0.7925041001    3.5738362811    0.0548951703
 C    0.7347643851    3.6022709083    0.0331068227
 C    1.4627651184    2.9421016993    1.1415860362
 N    1.1773513261    2.1935937202   -0.1131455230
 H    0.1399547790   -2.2039580429    0.0335258843
 H   -1.2134154435    4.0269555142   -0.8507768805
 H   -1.2394095296    4.0938502311    0.9098406650
 H    1.2487220053    4.3265230291   -0.5897532265
 H    2.5137515643    3.1566683894    1.3056183497
 H    0.9033699616    2.6534023261    2.0278608168