21

 C   -0.1298924199    1.5517971000    0.0264165658
 C   -0.0645839081    0.0257775513    0.0006194047
 C   -1.4208334106   -0.5634181528   -0.3829193499
 C    1.1918880771   -0.6143352272   -0.6541312213
 C    2.1095389727   -0.2815356310    0.5753404948
 C    2.6137721900   -1.7335936847    0.6451859481
 O    3.0926539582   -2.2605299389    1.8576803373
 C    1.1305725970   -1.8855861214    0.2648913935
 C    0.6981131610   -0.6649223692    1.1642990676
 H    0.8253351406    2.0053701164    0.3034458433
 H   -0.4140422947    1.9453770899   -0.9565649904
 H   -0.8841906694    1.8965409742    0.7435551564
 H   -1.7311182133   -0.2119562254   -1.3739267011
 H   -1.4092858620   -1.6562525493   -0.4055768771
 H   -2.1950911179   -0.2518941462    0.3281227693
 H    1.5031711850   -0.6016384040   -1.7013080688
 H    2.6596407894    0.6436284597    0.7481569554
 H    3.3399828703   -2.0289876328   -0.1185797892
 H    2.4741733412   -2.0179667476    2.5554528525
 H    0.5601262463   -2.7964532021    0.0823613271
 H    0.4181481671   -0.6986002789    2.2211156917