10

 O   -0.0097629607   -0.0499877497   -0.0021961010
 C   -0.0005449392    1.1536005252    0.0083506635
 C    1.2317002783    1.9612451115    0.0018409075
 C    1.3907820307    3.3258965699    0.0123614267
 O    2.6806922082    3.6268043650    0.0002718671
 N    3.3725224531    2.3345436656   -0.0190095473
 N    2.5103158368    1.4400518851   -0.0167407906
 C    0.4318289565    4.3663754161    0.0322975107
 N   -0.3744048848    5.1957872659    0.0486043332
 H   -0.9304017288    1.7578758152    0.0240690402