23

 C   -0.0087500759    1.3420838344   -0.0021645318
 O    0.0016408649   -0.0639031943    0.0047910276
 C    0.6472374351   -0.6151855804   -1.1246989051
 C    0.6033544720   -2.1118742371   -1.0209923359
 C   -0.6615543448   -3.0163990648   -0.9514539227
 C    0.5520627000   -3.9961852612   -0.8973999773
 C    0.5126450665   -5.4977224074   -0.8014858650
 C    1.1888074351   -3.1347464911   -2.0356697008
 C    1.2067485620   -2.9977810506    0.1077588598
 H    1.0109280843    1.7602495724   -0.0011986033
 H   -0.5399797763    1.7444341771   -0.8799538601
 H   -0.5250273347    1.6714440584    0.9030903969
 H    0.1498343572   -0.2834669156   -2.0537003775
 H    1.6946897380   -0.2680900321   -1.1781940338
 H   -1.2695851278   -2.9337005745   -0.0468156922
 H   -1.2838486580   -3.0576897662   -1.8514010004
 H   -0.0164223347   -5.9346250270   -1.6558058845
 H    1.5238777092   -5.9192699401   -0.7823852290
 H   -0.0015343066   -5.8196533306    0.1109416949
 H    0.7059420572   -3.1851039964   -3.0169907270
 H    2.2794589618   -3.1694177247   -2.1249026886
 H    2.2990273721   -3.0219879519    0.1798703395
 H    0.7414824135   -2.9136518564    1.0933344963