19

 C   -0.4002062173    1.2104513677   -0.2133211444
 C    0.2387597862   -0.1505704388   -0.0295860948
 O    1.5365384103   -0.2270977630   -0.6992492872
 C    2.2193028557   -0.4719608861    0.5399651390
 C    0.8999608668   -0.4400527248    1.3356397390
 O    0.9981052595   -1.8412783284    1.6503229498
 C    2.2572669078   -1.9343766346    0.9583615199
 C    2.6743274873   -3.1425177123    0.1989920844
 C    3.3895591710   -2.7512025332    1.4871928761
 H    0.2378653543    2.0022754557    0.1922165504
 H   -0.5571899746    1.4127184777   -1.2769652356
 H   -1.3708364364    1.2490384751    0.2931492148
 H   -0.4234122522   -0.9595565704   -0.3592770016
 H    3.1097269054    0.1450562582    0.6722919350
 H    0.6474108749    0.1787374709    2.1980465810
 H    2.0112053100   -3.9996631669    0.2429257389
 H    3.1797614055   -3.0040129443   -0.7507412617
 H    4.3941408716   -2.3446073732    1.4254957626
 H    3.1924520543   -3.3508474493    2.3693067743