20

 O   -0.0957994832   -0.0214662619    0.0550921264
 C   -0.0041241415    1.1896649037    0.0574240109
 N    1.1612980529    1.8948449163    0.0162921166
 C    2.4376500841    1.1820925791   -0.0224231609
 C    3.4580780069    1.8515059631    0.8963335226
 C    3.7266655186    3.3015415304    0.4648472404
 C    2.4301318123    4.0867202957    0.2581979283
 C    1.7722134902    4.1278942553   -1.1083194678
 C    1.1466940717    3.3317804847    0.0107242582
 H   -0.8865202217    1.8576133778    0.1077257089
 H    2.2234541480    0.1550248398    0.2762367522
 H    2.8223405811    1.1478146326   -1.0527519928
 H    3.0759214771    1.8307523818    1.9238719893
 H    4.3879737641    1.2736897593    0.8842365394
 H    4.3417403039    3.8040195125    1.2173244526
 H    4.3157611746    3.3010350820   -0.4603973984
 H    2.3310922558    4.9838820942    0.8604251972
 H    1.2764377638    5.0378715969   -1.4282255745
 H    2.2606355996    3.5785474035   -1.9068707510
 H    0.2381650219    3.7283889135    0.4515861625