20

 C   -1.0234688461    1.0093283424   -0.1634658967
 C    0.0870012602    0.0071401307    0.1068946237
 C    1.2197760574   -0.1533218459   -0.9560736915
 C    2.2141879809   -0.2088038432    0.2041772753
 C    3.1988640588   -1.2943090533    0.5183233898
 N    3.6359278030    0.0361382484    0.1425030004
 C    4.3665960336    0.8726045452    0.9661222868
 O    5.2655795300    0.5216703174    1.6910448031
 C    1.1732733434    0.3730922544    1.1682096479
 H   -0.6119116855    1.9980619888   -0.3966736758
 H   -1.6418132616    0.6971907658   -1.0121363262
 H   -1.6813690784    1.1182732952    0.7057188484
 H   -0.3397039654   -0.9731956069    0.3419255196
 H    1.1774708268   -1.0134475012   -1.6282562945
 H    1.3484979432    0.7566645485   -1.5516767064
 H    3.3417543430   -1.5804215800    1.5578570531
 H    3.3892840709   -2.0780739298   -0.2105724406
 H    4.0752572390    1.9325913617    0.8333650263
 H    1.2718743127    1.4587856329    1.2737848200
 H    1.0970608241   -0.0729511610    2.1626909973