17

 O    0.2971007968    0.6649903965   -1.4718045833
 C    0.1531334086    1.4236744978   -0.5370439356
 N    1.0874995191    1.6820810549    0.4182401325
 C    2.4174063814    1.0962994963    0.4052453635
 C    3.5130038685    2.1148508062    0.0712385805
 C    4.9125044209    1.4684158579    0.0695132345
 C    5.9755438363    2.4224447269   -0.2194229237
 C    6.8333926859    3.2296273846   -0.4581497928
 H   -0.7813288836    1.9919832896   -0.3580860171
 H    0.8603812345    2.3578308006    1.1305372666
 H    2.6199569949    0.6301288243    1.3783346119
 H    2.3899683674    0.3021658030   -0.3451126337
 H    3.3112297555    2.5567928397   -0.9096103082
 H    3.4979500456    2.9354243918    0.7984816439
 H    5.1005886405    0.9970035237    1.0436334935
 H    4.9375993354    0.6564891366   -0.6690705655
 H    7.6000285924    3.9325245496   -0.6709901970