17

 O   -0.5182567987    1.3363199574   -0.7081846755
 C   -0.3259820965    0.0099041594   -0.3605020023
 C    0.0737135895   -0.3929245621    1.1138717990
 C   -1.1262340975    0.1682214377    1.8840243245
 C   -2.1781872377   -0.1857062310    1.1320483769
 C   -1.5493176074   -0.9439683362   -0.0413506350
 C   -0.5091417177   -1.8185750922    0.7330280262
 C    0.3931131998   -2.7377854716   -0.0461173378
 O    0.3210451114   -2.9604436653   -1.2294824073
 H   -1.1172088277    1.7157856044   -0.0503456069
 H    0.3378515292   -0.4193389999   -1.1113094366
 H    1.0770987412   -0.2583647877    1.5166273319
 H   -1.0895723245    0.7202015159    2.8125469411
 H   -3.2315995361    0.0007716979    1.2857915440
 H   -2.1830798618   -1.3584014648   -0.8223058265
 H   -0.8942954752   -2.3645468555    1.6007487423
 H    1.1662227097   -3.2411326362    0.5811523918