19

 C    0.0795066750   -1.2093514758   -0.3106487091
 C   -0.0013741240   -0.0202059057   -0.1285373095
 C   -0.0219529214    1.3868756143    0.0873163974
 C   -1.1817091399    2.0659296268    0.0522537642
 C   -1.3620081919    3.5550062302    0.1995526078
 C   -0.6240066832    4.2177135357    1.3745039380
 C    0.9001245118    4.1749605985    1.2736352059
 O    1.4464785902    2.8800154429    1.4307963324
 C    1.3469302084    2.0366132260    0.3051902886
 H    0.1300605623   -2.2576309222   -0.4707389822
 H   -2.0855346033    1.4902196628   -0.1279852668
 H   -1.0473056290    4.0468933225   -0.7350709057
 H   -2.4320876550    3.7658117379    0.2933233704
 H   -0.9296661738    5.2703206974    1.4299777298
 H   -0.9245677269    3.7433341049    2.3153207870
 H    1.2279828681    4.6097581021    0.3130046087
 H    1.3391340390    4.7785643311    2.0749461714
 H    2.0875530060    1.2477935703    0.4545191572
 H    1.6309030477    2.5878823104   -0.6085416954