23

 C    0.1523000900    1.5091086645    0.2578398889
 C   -0.0061383173   -0.0131585298    0.2503676559
 C   -1.3936426647   -0.4672375000   -0.2257642469
 C   -1.5221941704   -1.9762813178   -0.2369580630
 C   -2.0820914467   -2.7137290727    0.9519718816
 O   -2.5817484393   -1.9610273261    2.0168170517
 C   -2.8580025129   -2.7074331678   -0.3490395860
 C   -4.1908245513   -1.9893645067   -0.3710447600
 O   -5.0608706657   -2.4278258468    0.6878501777
 H    1.1487733524    1.8054094012    0.6003082387
 H    0.0065975026    1.9286235111   -0.7442265913
 H   -0.5812839589    1.9791941368    0.9220991722
 H    0.7638623423   -0.4594434221   -0.3931952371
 H    0.1674775584   -0.4097173137    1.2579215408
 H   -2.1471719522   -0.0388366615    0.4418363264
 H   -1.5845669993   -0.0653797894   -1.2304242855
 H   -0.7036147723   -2.4814218539   -0.7454501611
 H   -1.5990634940   -3.6437037255    1.2515740371
 H   -3.5381330152   -2.1123474991    2.0360209444
 H   -2.8394218185   -3.6327383422   -0.9205127674
 H   -4.0782466571   -0.9163270831   -0.2096327079
 H   -4.6832598177   -2.1215114534   -1.3439794971
 H   -5.1837316921   -3.3778471220    0.5873086479