16

 O   -0.0796131563    1.4638261959   -0.0431545809
 C    1.3723754137    1.4080843763    0.0280331165
 C    1.3041585212    0.0859784691    0.8568352928
 C    2.2887785153   -0.9081455776    0.2743759124
 C    2.7982716270   -0.3764168124   -1.0173264102
 C    1.7902768126    0.7503967900   -1.3109480194
 C    0.7043802945   -0.3801716288   -1.3015095933
 C   -0.0034385353    0.0141873345    0.0135077287
 N    1.7477309914   -1.4468166595   -1.0186577610
 H    1.8415819827    2.3326355039    0.3639764310
 H    1.2034790480    0.1710948568    1.9351917599
 H    2.8492979476   -1.6162463633    0.8715045632
 H    3.7864365372   -0.5352176977   -1.4341686396
 H    1.9116656756    1.3895953423   -2.1809402224
 H    0.1003132021   -0.5831362651   -2.1820524857
 H   -0.9257715971   -0.4774505244    0.3192460981