20

 C    0.0182741523    1.5039584901   -0.1815783799
 C   -0.0540417754   -0.0104332882    0.0298444637
 N   -1.4136886739   -0.5198176141    0.0554933433
 C   -2.1733235473   -0.8361120609    1.1670005341
 N   -3.3591625054   -1.2661125433    0.9581289066
 C   -3.5166630235   -1.2723591291   -0.5037175093
 C   -2.1881975657   -0.7659293079   -1.0804900524
 N   -1.7496235136   -0.5679156296   -2.2540273386
 C   -2.6092714672   -0.8635059241   -3.3822233765
 H    1.0623020165    1.8317133726   -0.2034895780
 H   -0.4476131076    1.7713133723   -1.1326292703
 H   -0.4930880060    2.0407147422    0.6235704837
 H    0.4699237481   -0.5231328560   -0.7825700232
 H    0.4253995136   -0.2949708799    0.9723087025
 H   -1.7358736152   -0.7138515284    2.1534593975
 H   -3.7527870628   -2.2830768759   -0.8565279571
 H   -4.3550408665   -0.6307057056   -0.7991526553
 H   -2.7998149721    0.0544606793   -3.9523405285
 H   -2.0952294910   -1.5527954771   -4.0628191075
 H   -3.5814408173   -1.3074083664   -3.1228614847