21

 C   -0.0644635195    1.5401263452   -0.0260561813
 C   -0.0308837226    0.0061618088   -0.0174465512
 O   -1.3806612084   -0.4160493974   -0.1309969657
 C    1.0932058239   -0.6401770876   -0.9045598982
 C    2.0576110688   -0.2570760553    0.2808282503
 C    0.7899870639   -0.6442330925    1.1333366479
 C    0.7984835351   -2.1637605172    0.8580229725
 C   -0.1842164219   -2.8504845442   -0.0614769125
 C    1.0240718230   -2.1594813393   -0.6508778674
 H    0.9008442284    2.0287766044    0.0981719114
 H   -0.4795211170    1.8892449199   -0.9812183443
 H   -0.7302306938    1.8851146444    0.7710670050
 H   -1.7966298617    0.1102207517   -0.8213978683
 H    1.2688474515   -0.3013542933   -1.9274179819
 H    2.9232690415   -0.9089208759    0.4090289796
 H    2.3703438439    0.7849568114    0.3308399209
 H    0.6587732333   -0.3166090803    2.1657842365
 H    1.4075573692   -2.7680134042    1.5219184500
 H   -0.0994728082   -3.9346693870   -0.0523124731
 H   -1.1830897290   -2.4765812442   -0.2051737807
 H    1.8011751696   -2.7616271574   -1.1098193895