23

 C    0.0113404424    1.5059222483    0.1997263148
 C   -0.1194715027   -0.0060500792   -0.0106096678
 C    0.6432202505   -0.5110751784   -1.2279465029
 C    2.2006367764   -0.5021404854   -1.2045111926
 C    2.1899173293   -1.8801206235   -1.9077413238
 C    2.5903273845   -1.9849086591   -3.3961758939
 O    3.5819335245   -2.9901370548   -3.1081101421
 C    3.2646613825   -2.9596309152   -1.7012947527
 C    0.7081900005   -2.0417336978   -1.4944415597
 H    1.0586241755    1.7984818038    0.3323999966
 H   -0.3794906559    2.0600321715   -0.6610232802
 H   -0.5401774889    1.8349808515    1.0857738167
 H    0.2424520150   -0.5349387594    0.8819388378
 H   -1.1797670660   -0.2733666358   -0.1136335688
 H    0.2851299480    0.0075183066   -2.1259280936
 H    2.7244789270    0.3142194807   -1.7098039506
 H    2.5843868340   -0.5801597276   -0.1801950987
 H    1.8101131072   -2.3602460423   -4.0726671637
 H    3.0366844491   -1.0812631265   -3.8333986530
 H    4.1270005175   -2.6586440562   -1.0904815917
 H    2.8954586756   -3.9297983226   -1.3408694818
 H    0.6142620703   -2.6132508643   -0.5637438305
 H    0.0229221835   -2.4670668240   -2.2335393181