18

 C    0.3885766829    0.8768217873   -0.9012152678
 C   -0.1875531427    0.2882334197    0.3661552968
 O    0.2630036758    0.5166955217    1.4685733998
 C   -1.3647043374   -0.6472887948    0.2193671499
 C   -2.3822932157   -0.7402812493    1.3816534390
 N   -2.3761407232   -2.2335607501    1.3004853852
 C   -1.2882911223   -2.2099495337    0.3036852298
 C   -1.8171441252   -2.1652462434   -1.1403847317
 O   -1.9400869484   -0.7176122322   -1.0966750685
 H    1.2331781013    1.5207466155   -0.6544039385
 H    0.7069360606    0.0801124619   -1.5820346730
 H   -0.3824435651    1.4400361841   -1.4367941634
 H   -1.9533791387   -0.3362057868    2.3032320920
 H   -3.3577310308   -0.2873173790    1.1823292109
 H   -2.1024095572   -2.6701565362    2.1723627836
 H   -0.3889131567   -2.7861771631    0.5235319152
 H   -1.1012797963   -2.4737172633   -1.9126701136
 H   -2.7798490712   -2.6620936583   -1.2926992858