15

 O    0.0644372449    1.3772389950    0.1214461282
 C    0.0588063491    0.0195195714    0.0383295019
 C    0.0798936778   -0.6621414621   -1.1805552617
 C    0.0728267842   -2.0499008117   -1.2018728955
 C    0.0445938825   -2.7882742410   -0.0093592562
 C    0.0236410617   -2.0853603015    1.2083543738
 C    0.0305814927   -0.7008142413    1.2353866876
 C    0.0373523899   -4.2116161049   -0.0317250959
 C    0.0312079799   -5.4162917670   -0.0508250920
 H    0.0846857390    1.7487901239   -0.7666880011
 H    0.1018595833   -0.1049396111   -2.1135236670
 H    0.0892519195   -2.5753592016   -2.1497823706
 H    0.0017458077   -2.6429433973    2.1376885315
 H    0.0144773671   -0.1567720161    2.1726774682
 H    0.0257603707   -6.4776638946   -0.0671094410