14

 C   -0.0711357586    1.4160360038    0.0104345298
 C    1.3801093862    1.8549406967   -0.0010424993
 C    2.1976170911    0.7862990419   -0.0147023896
 C    1.3863634204   -0.4220715538   -0.0135501328
 C    1.3644364930   -1.8065710012   -0.0206935974
 C   -0.0154722422   -2.1201107055   -0.0090719263
 N   -0.7966181978   -1.0326672738    0.0041359262
 N    0.0841424119   -0.0252363700    0.0010264322
 H   -0.6096759681    1.7550878183    0.9035450217
 H   -0.6266216264    1.7648501908   -0.8684253756
 H    1.6709775681    2.8957507426    0.0018264162
 H    3.2781328274    0.8028076805   -0.0249666085
 H    2.1992004990   -2.4872808764   -0.0323509534
 H   -0.4729775139   -3.0988825440   -0.0098677333