18

 O   -0.1580527290    1.3848335632    0.1161527634
 C    0.0131653556    0.0124924443    0.0711464710
 C    0.8198227270   -0.7981092772   -0.9888334894
 N    0.7504560803   -1.9304750363    0.0185812854
 C    0.8223878034   -0.8535288268    1.0836546339
 C   -0.7239788149   -2.1989453085    0.0248551101
 C   -1.2933715078   -0.7709755662    0.0434652828
 C   -2.5763370442   -0.2898568609    0.5458802658
 O   -2.3122140035   -0.3854197361   -0.8660196935
 H    0.7050134612    1.8090129080    0.0823461728
 H    0.3645381970   -1.0031551511   -1.9606899337
 H    1.8553449166   -0.4677176433   -1.1067606700
 H    1.8560292280   -0.5227904914    1.2174565362
 H    0.3761990420   -1.1159787419    2.0470288152
 H   -1.0197715806   -2.7382674542   -0.8783117888
 H   -0.9880369487   -2.7966437194    0.9009240734
 H   -3.3098692900   -0.9975465024    0.9310460891
 H   -2.6534121724    0.7256031302    0.9297153663