17

 C    0.3118282662    0.4793470875   -0.6958241203
 O   -0.2379549639    0.2653259135    0.6013573990
 C    0.5228738054   -0.4279575112    1.4893103443
 C    1.9577937835   -0.8130870268    1.3953965547
 C    0.9540891016   -1.9347965763    1.6098811922
 O    0.5356068126   -1.9839428040    2.9709233615
 C    0.0059598853   -0.6334621304    2.9058589556
 C    0.7381828675   -3.0631792883    0.7105195444
 O    1.0708845828   -3.0774396802   -0.4569640147
 H    0.5357743217   -0.4709992588   -1.1919004562
 H   -0.4513831783    1.0167268864   -1.2603396654
 H    1.2217570908    1.0897961503   -0.6447743803
 H    2.3791459919   -0.8169452163    0.3961250300
 H    2.6558793248   -0.5943754788    2.2009663211
 H    0.4151529825    0.0148079544    3.6883408294
 H   -1.0877198486   -0.6403327313    2.9480513550
 H    0.2051973241   -3.9151089397    1.1842131296