20

 C   -0.3114443510    1.2966834604    0.0999321996
 O    0.3718306360    0.0872296477   -0.1454074522
 C    0.8660862409   -0.5108023876    1.0121505571
 C   -0.0538203606   -1.3832566601    1.8880327014
 N   -0.0610970454   -2.5222388442    0.8330720061
 C    0.3444938207   -3.5068842927    1.9226008299
 C    1.1403626055   -2.2802963528    2.3645081919
 C    2.0640934066   -2.0970503801    3.5425318308
 C    1.3775394769   -1.9372587447    0.8530568550
 H    0.3340143143    2.0323870180    0.6060780131
 H   -0.6139754943    1.7001291627   -0.8688939008
 H   -1.2097179134    1.1439254764    0.7160280067
 H    1.5218564579    0.1760521465    1.5703932987
 H   -0.9619972360   -1.1382470247    2.4424857514
 H   -0.4922732715   -3.8335088499    2.5505934289
 H    0.8981697129   -4.3738838085    1.5443837661
 H    2.8990017555   -2.8049321591    3.4954721767
 H    2.4841146390   -1.0864822815    3.5774172002
 H    1.5320645706   -2.2714496572    4.4843118805
 H    2.1461543254   -2.3314789987    0.1859445488