21

 C    0.1374384605    1.6078569613   -0.1370095083
 C    0.0599410361    0.0987128482    0.0430140489
 C    0.8601131197   -0.8061398187   -0.9397187193
 C    1.3770663456   -1.6545660604    0.2709364969
 C    2.8507375054   -1.6214627348    0.5450478340
 C    3.1704975915   -0.6805479133    1.4345747242
 C    1.9680104148    0.0826982190    1.9410540579
 C    0.7599195008   -0.6153778807    1.2529231816
 O   -0.1229723547   -1.2085316780    2.1861493998
 H    1.1734714184    1.9552484670   -0.2148619905
 H   -0.3765001955    1.9134339218   -1.0552248505
 H   -0.3340281609    2.1429476238    0.6958845880
 H   -0.9882327507   -0.2170472533    0.0648422627
 H    0.2680593128   -1.3392286762   -1.6868307455
 H    1.6684395988   -0.2742004019   -1.4491698758
 H    0.9233361522   -2.6467046432    0.3342496817
 H    3.5598286580   -2.2747945552    0.0474543184
 H    4.1768226082   -0.4615004413    1.7762229128
 H    1.8670709484    0.0072131426    3.0317615475
 H    2.0386169356    1.1521857702    1.7074670939
 H   -0.4901409751   -0.5087622768    2.7375933815