13

 O   -0.0288613706    1.3143901177    0.0756099254
 C    0.0475239709   -0.0212874977    0.0603893210
 N    0.1914568271   -0.6858148990   -1.0636152649
 O    0.2341659184   -2.0448043861   -0.6600164659
 C    0.1008347067   -2.0885890135    0.6700010708
 O    0.1341223860   -3.2750075649    1.2865884182
 C   -0.0463213787   -4.4313786749    0.5604754901
 N    0.0974964599   -5.5219293872    1.1637122348
 C   -0.0202446960   -0.8495489005    1.2123593800
 H    0.0438849934    1.6255082091   -0.8372297801
 H   -0.3106291558   -4.2526361270   -0.4818712024
 H   -0.0790971470   -6.2987144440    0.5296528579
 H   -0.1424229540   -0.5734518621    2.2437019150