18

 C   -0.0387065388    1.5654433432    0.0862606604
 N    1.5040539421    1.3826217812    0.0367153317
 C    1.3086782257    0.1206993103    0.8720651335
 C    2.1614721756   -1.0237792366    0.3699350650
 C    1.8820933904   -0.9885905838   -0.9533425457
 C    0.7894738333   -1.9561999655   -1.4261824615
 C   -0.5018768788   -1.2921924053   -0.6799513030
 C    0.0755149275    0.0423157984   -0.1634396404
 C    1.2317281383    0.3795269016   -1.1071399704
 H   -0.3951936678    1.9160750591    1.0594552406
 H   -0.4250121675    2.1918847910   -0.7226019865
 H    1.1634938742    0.2850608471    1.9420984434
 H    2.3474989441   -1.9175775887    0.9561783189
 H    0.6283959103   -1.9603734355   -2.5078279207
 H    0.9553398560   -2.9824093895   -1.0936458396
 H   -1.2907481904   -1.1177295082   -1.4168443209
 H   -0.9004031615   -1.9485959435    0.0981566443
 H    1.0543739473    0.8099201347   -2.0939446190