18

 C    0.0863511827    1.7589588384    0.0085627523
 C    1.5107136827    1.1369185221   -0.1209306936
 C    1.0998808057    0.2082858863    1.0680164130
 C    1.8573601404   -1.0552144658    1.4502343840
 N    2.2612487507   -2.0329921554    0.4690965581
 C    2.0485000999   -1.9656590935   -0.7680703182
 O    1.4302618358   -1.0543999243   -1.5586302609
 C    0.8303019576    0.1396020559   -1.1018658686
 C   -0.1380664968    0.2190697588    0.1129651164
 H   -0.1013195858    2.3282752936    0.9198222772
 H   -0.3187107858    2.2619672073   -0.8728758364
 H    2.4520453784    1.6687741664   -0.2644624737
 H    0.9205988384    0.7668893135    1.9959367193
 H    2.7666123638   -0.7488105233    1.9888143208
 H    1.2583596416   -1.5878250271    2.2040199272
 H    2.4037824113   -2.7695653652   -1.4128729107
 H    0.4490072465    0.5904334305   -2.0206341823
 H   -1.0880984570   -0.3019340082    0.2377407261