19

 C   -0.9490325620    1.1644554636   -0.2077246269
 C   -0.0495844341   -0.0468667017   -0.1088980839
 O    1.1494153948    0.0701059681   -0.9188813445
 C    1.9635729288   -0.4935680900    0.1176368331
 C    3.2399469276    0.2725730926    0.3492273080
 O    4.0295295970   -0.0096426136    1.2163454613
 C    0.7950275680   -0.3443602904    1.1609394430
 C    0.9616576629    0.7828689155    2.1685828899
 O    0.3708621380   -1.5337518067    1.7762011767
 H   -0.4201626322    2.0840916462    0.0551444712
 H   -1.3188411483    1.2671583607   -1.2325996642
 H   -1.8142741708    1.0509094481    0.4535430593
 H   -0.6013777249   -0.9575396323   -0.3793177861
 H    2.1931464389   -1.5556350739   -0.0473674548
 H    3.3811494101    1.1439050441   -0.3291720623
 H    1.2311337176    1.7252921999    1.6832311858
 H    0.0313484775    0.9302390596    2.7244211621
 H    1.7628530711    0.5437059542    2.8766090566
 H    0.8727817802   -1.6545299638    2.5897685657