17

 N    0.1339210112    0.7065417906    0.9953569584
 C   -0.0499378673    0.0611014251   -0.1955153754
 O    0.7088056700    0.1338284042   -1.1429457124
 C   -1.2735513659   -0.7965491959   -0.2267205995
 C   -2.2421078489   -0.9736566120   -1.3793622605
 C   -3.2127161623   -1.4462023607   -0.2780093293
 C   -2.6394005564   -2.7768640774    0.2499413510
 C   -1.5168998289   -1.8993197801    0.7702191273
 N   -2.3739198143   -0.6714823375    0.7997250334
 H    0.8777362109    1.3848337523    1.0415272200
 H   -0.6621147926    0.8221129922    1.6044039069
 H   -2.5316671131   -0.0052970081   -1.7935390671
 H   -1.9946340209   -1.6668589593   -2.1876059827
 H   -4.2837545801   -1.2686761897   -0.3440187609
 H   -3.2336259509   -3.1741482776    1.0764134336
 H   -2.4185422370   -3.5707435957   -0.4702092964
 H   -0.8034609734   -2.1060700504    1.5597685535