16

 C   -0.1362471519    1.6220146572   -0.0823771100
 C    0.0328313529    0.0983438643   -0.0094963718
 C    0.9096081698   -0.4541194332   -1.1730593106
 O    1.6769032460   -1.5125365728   -0.6035779801
 C    1.6795631512   -1.3982959505    0.7594002309
 O    2.2945251168   -2.1223477258    1.4870192578
 N    0.8880143160   -0.3141297116    1.1052092092
 C   -1.2801878278   -0.5619315820    0.0412459662
 C   -2.3569089425   -1.0925121313    0.1004496537
 H    0.8445099602    2.1039158163   -0.0718410386
 H   -0.6680437417    1.9013488205   -0.9965441807
 H   -0.7181112026    1.9855731353    0.7684293910
 H    0.3151304108   -0.8478303014   -1.9975967846
 H    1.5852871203    0.3267055586   -1.5401690795
 H    0.5207435761   -0.3177716911    2.0449077874
 H   -3.3038194633   -1.5718272126    0.1509564895