18

 O   -0.0455429671   -0.0794266961   -0.2209099173
 C    0.0301108128    1.0864214202    0.0942291211
 C    1.2258928778    1.8823796721    0.0092089646
 C    2.2153928846    2.5733810311   -0.0518714443
 C    3.4003890615    3.4115831726   -0.1220205114
 C    3.1254435084    4.8832295020    0.2366019443
 N    4.3663309660    5.6399269064    0.1746413891
 C    4.6876561247    6.2528338262   -1.1131502352
 C    4.2330179757    7.0853119566    0.0338953794
 H   -0.8517809434    1.6359855310    0.4832712662
 H    4.1708187063    3.0195168842    0.5530731693
 H    3.8255698827    3.3539156331   -1.1324305311
 H    2.3464408113    5.2854634790   -0.4348957117
 H    2.7355709513    4.9412285219    1.2584510430
 H    5.7346075240    6.2306298056   -1.4002134560
 H    3.9850876439    6.1146486103   -1.9340960263
 H    3.2285715627    7.5018110742   -0.0232887238
 H    4.9419017968    7.6814162797    0.6008753301