20

 C   -0.0868450814    1.5616906268    0.0074182984
 N    0.0241134847    0.1137267089    0.0061496282
 C    1.0544349059   -0.5225848323   -0.8389583126
 C    2.4782637935   -0.1169393682   -0.3292566059
 C    2.2028981910   -0.1394299195    1.1798580835
 C    0.6929402050   -0.5520179028    1.1419910092
 C    1.1596942047   -1.6997370602    0.1864377856
 C    2.6674012125   -1.3888416719    0.4661491728
 C    3.8526041380   -2.2742996943    0.6691837670
 H    0.8728786356    2.0740653680    0.1901491145
 H   -0.4773771311    1.8992238938   -0.9586698046
 H   -0.7951085595    1.8733465707    0.7826627383
 H    0.8637056764   -0.6094138712   -1.9087665706
 H    3.2273438160    0.5213273764   -0.7795376879
 H    2.7413675208    0.4816175808    1.8838534220
 H    0.1371629286   -0.6685724900    2.0725464208
 H    0.6665507256   -2.6621623991    0.0821494956
 H    4.0361488727   -2.9076270003   -0.2069013602
 H    4.7564915126   -1.6801836807    0.8434422913
 H    3.7179359785   -2.9342304650    1.5344427845