18

 O   -0.0532245291    1.3915530502   -0.0394699563
 C    0.0261309906   -0.0161483854   -0.0313507389
 C   -1.3869818517   -0.6437554685    0.0595758120
 C   -1.0624768887   -2.0401694326    0.5463289575
 C    0.1689470575   -2.6596790879   -0.0636579950
 C    0.8044949378   -1.9607009890   -1.1975528968
 C    0.7360728827   -0.6238665891   -1.2075126725
 N    0.2023627297   -2.0268036137    1.3021089131
 C    0.6729749090   -0.6404941731    1.2515268126
 H    0.8400844634    1.7402699092   -0.1269478637
 H   -1.9783741410   -0.0967632638    0.8008984715
 H   -1.9148379364   -0.6261486225   -0.8974899328
 H   -1.8544244449   -2.6849757412    0.9140988290
 H    0.2685593247   -3.7388871250   -0.0174370416
 H    1.3031473552   -2.5401036248   -1.9666590024
 H    1.1601013516    0.0066712547   -1.9820994194
 H    1.7660040795   -0.5971001752    1.2396005480
 H    0.3000209700   -0.1155788322    2.1368969059