19

 C    0.1119516604    1.0970813770    0.6167704064
 O   -0.1531418718    0.1834730420   -0.4349869281
 C   -1.3562329099   -0.4675198466   -0.2911275524
 C   -1.5071917254   -1.7895648859   -0.9569361910
 O   -0.4331831052   -2.2689896785   -1.6700740385
 C   -0.4337822007   -3.6820541252   -1.7900659998
 C   -1.4460514293   -1.7362886687    0.5859769047
 C   -0.2857508045   -2.2130075833    1.2695048142
 C    0.6724361900   -2.6251869501    1.8705155373
 H    1.0718701493    1.5661089940    0.3917489569
 H   -0.6631500546    1.8764256335    0.6732848448
 H    0.1750178899    0.5850018613    1.5845973093
 H   -2.2335593505    0.1829247566   -0.2623902987
 H   -2.4863412941   -2.0307914963   -1.3772726279
 H   -0.3675646716   -4.1665580400   -0.8083506526
 H   -1.3385794120   -4.0384334604   -2.3055161562
 H    0.4422341041   -3.9477426528   -2.3851034945
 H   -2.3890651894   -1.8896283627    1.1041900009
 H    1.5243977755   -2.9845189240    2.3917277152