17

 C    0.2188296780    1.3963944692    0.1885666736
 C   -0.2411195723   -0.0502408235   -0.0769256840
 C   -1.6984062557   -0.1211605279   -0.2346175831
 N   -2.8450508162   -0.1596603571   -0.3731014168
 C    0.4444102650   -0.6330679177   -1.3059398174
 N    1.8480058446   -0.9906691179   -1.1248657936
 C    0.8598640829   -2.0693689685   -1.3813603170
 C    0.6079265803   -3.0050067056   -0.3203399069
 C    0.3727601300   -3.7995412864    0.5504228620
 H    1.3039559938    1.4035473141    0.3143794699
 H   -0.0454632313    2.0517626380   -0.6464504586
 H   -0.2467773732    1.7928567586    1.0937132904
 H    0.0299273538   -0.6750851178    0.7809745281
 H    0.1445800591   -0.1752172190   -2.2471837829
 H    2.3837152394   -0.8054747519   -1.9686002656
 H    0.8525049609   -2.5056572245   -2.3778192826
 H    0.1685686010   -4.5012899921    1.3211967845