18

 C   -0.0442383196    1.5521311041   -0.0431952480
 C    0.0239467580    0.0293056268    0.0439542818
 C    0.7607804072   -0.4469219077    1.2806781041
 O    1.2435412988    0.2764651419    2.1240088358
 N    0.8660055158   -1.8296396233    1.4185430195
 C    1.5102933807   -2.6068365024    2.4918696049
 C    1.0884091913   -3.8960926794    1.7309692305
 C    0.4581308262   -2.9559140872    0.6876734620
 O   -0.1435309637   -3.0648437010   -0.3425376590
 H    0.9568733293    1.9892886714   -0.0744984650
 H   -0.5835769188    1.8554772923   -0.9444824501
 H   -0.5561251678    1.9729466962    0.8257626636
 H   -0.9756858636   -0.4217459983    0.0487116356
 H    0.5143884764   -0.4064429485   -0.8346760701
 H    2.5845369634   -2.4263664303    2.5646008930
 H    1.0449780886   -2.4554718543    3.4677952790
 H    1.9044996675   -4.5067389139    1.3412311848
 H    0.3678959303   -4.5360435166    2.2429326678