15

 C   -0.0142910146    1.4912853542   -0.2019941677
 C   -0.0166492515    0.0156239972    0.1537994483
 O   -0.0359676893   -0.4113648613    1.2779993166
 N    0.0064513353   -0.8131683290   -0.9820127635
 C    0.0113860580   -2.1861693385   -1.0310859065
 O   -0.0032979543   -2.9688836588   -0.1105647319
 C    0.0395237140   -2.6582471651   -2.5087238508
 N    0.0449627277   -3.9978426034   -2.5992772192
 O    0.0538721111   -1.8622107603   -3.4330573011
 H    0.8797894574    1.7485102264   -0.7798221432
 H   -0.8873489566    1.7433821994   -0.8132519657
 H   -0.0333507963    2.0740693813    0.7178835166
 H    0.0221786326   -0.3960464483   -1.9073215559
 H    0.0311273955   -4.5324819395   -1.7443654640
 H    0.0625619810   -4.4484525143   -3.4981438919