15

 C   -0.0487296576    1.4006164144   -0.0809009414
 C    0.1566475047   -0.0924361402    0.0212272903
 C    1.5073149895   -0.7048949862   -0.1756494204
 C    0.9118530935   -0.6734329687    1.2200350316
 O    1.5351653166    0.1808368327    2.1341801956
 C    0.4261245121   -1.9630918370    1.7809357323
 O   -0.1298560467   -2.8235643225    1.1405402472
 H    0.8031713459    1.9444152837    0.3358274673
 H   -0.1632155750    1.7021929245   -1.1271942183
 H   -0.9513975062    1.7182255703    0.4530856092
 H   -0.6790144572   -0.7134748769   -0.2898385287
 H    1.5749891341   -1.6763806686   -0.6516247110
 H    2.3510103644   -0.0389797260   -0.3213666611
 H    0.8549695984    0.6451225630    2.6344502501
 H    0.6256709333   -2.0733727425    2.8709268073