19

 C   -0.5741403756    1.2988594592    0.0525932691
 O    0.8236254368    1.0027526672   -0.0734589075
 C   -0.0826914546   -0.0793758386    0.0298935463
 C   -0.0441339746   -1.1465911130    1.1288479397
 C   -0.3857689575   -2.2236844279    0.0515784954
 C   -1.8481212023   -2.6844745622   -0.0515082732
 C   -2.5190317777   -1.5650769294   -0.8696991890
 O   -1.5154279586   -1.0917412080   -1.7657847120
 C   -0.2860762614   -1.1346061506   -1.0728753451
 H   -0.8709630340    1.7494362500    0.9992185602
 H   -1.0469528015    1.7124238374   -0.8366864002
 H    0.9531585889   -1.2661822693    1.5597528856
 H   -0.7661216382   -1.0298206583    1.9425152780
 H    0.3198574351   -3.0522152461   -0.0023499252
 H   -1.9000283009   -3.6285139146   -0.6019769484
 H   -2.3249062996   -2.8342106758    0.9212928491
 H   -3.3685507947   -1.9022210102   -1.4684961245
 H   -2.8640785618   -0.7527383393   -0.2117616331
 H    0.5250646223   -1.1945321605   -1.8017037550