21

 C   -0.5924120395    1.3087231838   -0.1090149357
 C   -0.0249029316   -0.1022040026   -0.0790306384
 C    1.2352960027   -0.4090579219   -0.9786886439
 O    1.8731014389    0.6672799389   -1.6075899330
 C    1.9786046716   -0.9373623792    0.2777093679
 O    2.7482635924    0.1355732433    0.8708313106
 C    1.6866363223    0.4256203357    1.8211526777
 C    0.7474720016   -0.6179009912    1.1826596254
 C    0.0483612894   -1.5975811913    2.0981818572
 H    0.1935059461    2.0655117684   -0.0390917418
 H   -1.1199953421    1.4881200610   -1.0509378321
 H   -1.3022963621    1.4709168816    0.7097091519
 H   -0.8207173642   -0.8180475338   -0.3140939054
 H    1.0365923496   -1.1743634479   -1.7351065714
 H    2.4632367011    1.0403917782   -0.9343855976
 H    2.5336699479   -1.8783528868    0.2399711548
 H    2.0039472929    0.1712375485    2.8404048961
 H    1.3817619227    1.4769412818    1.7945503280
 H   -0.7636784006   -1.1069879123    2.6486957181
 H   -0.3942263092   -2.4239584277    1.5317707175
 H    0.7378495200   -2.0248147066    2.8346774043