15

 O   -0.0618425700    1.4566183731    0.0091444520
 C    0.0121465647    0.0870677680    0.0650838827
 C   -0.2689461130   -0.7996445386   -1.1463527876
 C   -1.1466279035   -0.9430302394    0.0490183510
 C   -0.4379884389   -1.8260703224    1.0978725745
 C   -0.0719591028   -3.1799439935    0.7430209674
 C    0.2577078610   -4.2946222186    0.4343081225
 C    0.6860596697   -0.7095582532    1.1430045993
 O    1.5792623981   -0.4988395234    1.9056362813
 H    0.6331106841    1.7845636490   -0.5721086953
 H   -0.6907339656   -0.2315781675   -1.9696956364
 H    0.4020187671   -1.6027557498   -1.4350040007
 H   -2.2051976278   -0.7232368118    0.0463187037
 H   -0.9510386005   -1.7974479168    2.0661668923
 H    0.5434815474   -5.2830013850    0.1714633232