20

 C   -0.1971182247    1.5138433365   -0.0621407814
 C    0.0030093440   -0.0108140148    0.0334769430
 C    0.7884630824   -0.4130373697    1.2825099134
 C    2.2761938983   -0.0931188941    1.1626760928
 N    2.9652154830   -0.1500139322    2.3406782135
 O    2.8181796218    0.1895191067    0.1094763543
 C   -1.3153684671   -0.7795586782   -0.0635938414
 C   -2.2159018549   -0.4625300327   -1.2471613383
 O   -1.6328361430   -1.6172484533    0.7521736459
 H    0.7762837269    2.0090206706   -0.0379231239
 H   -0.6927003837    1.8021858845   -0.9925865446
 H   -0.7989001212    1.8875085526    0.7742119826
 H    0.6014813143   -0.3072173419   -0.8395394132
 H    0.3740839703    0.0694811381    2.1758227485
 H    0.6765637304   -1.4898566374    1.4520014233
 H    2.5437716184   -0.5005113789    3.1833140360
 H    3.9681901862   -0.0671822131    2.3045915908
 H   -1.6421953436   -0.3264573306   -2.1689850540
 H   -2.9449764761   -1.2646465724   -1.3689931300
 H   -2.7553957915    0.4732124201   -1.0617707172