18

 C    0.0179818365    1.6035500812    0.0839843473
 C    0.0047766521    0.0633963184    0.0738770666
 C    0.7629688592   -0.4862279671    1.1946924008
 C    1.3881115070   -0.9403300408    2.1152547099
 C   -1.4543476730   -0.4979116773    0.0895064920
 O   -2.1766531197   -0.0130583772    1.1829024417
 C   -2.2076839714   -0.1162758439   -1.1972035300
 N   -1.7706224578   -0.6780269687   -2.3513380376
 O   -3.1379049254    0.6718228957   -1.1468028936
 H    1.0448903873    1.9754004788    0.0892036451
 H   -0.4928702528    2.0016273997   -0.7977041283
 H   -0.4916644246    1.9706290192    0.9766884909
 H    0.4776615307   -0.2849476918   -0.8552631368
 H    1.9365918517   -1.3383642139    2.9325984196
 H   -1.3899511817   -1.5947549731    0.1475277249
 H   -2.8683984904    0.5486532450    0.7917182138
 H   -1.0940164408   -1.4215561925   -2.3547053486
 H   -2.2800976469   -0.4889252017   -3.1995612677