23

 C    0.5818974808    1.6793717820   -0.0380989052
 C    0.0922207060    0.2309566642    0.1099989061
 C    0.5332932504   -0.6732948767   -1.0620921232
 C    1.9677046955   -1.1315326166   -0.7000856274
 C    2.0929276357   -0.9954740865    0.8460231281
 O    3.0814134195   -0.0354492663    1.2307454514
 C    0.7271742227   -0.4893247842    1.2994814396
 C    0.4882743499   -0.0985730714    2.7272647826
 C   -0.1176364408   -1.3720154088    2.1907907132
 H    1.6728339731    1.7257764607   -0.0903687932
 H    0.1677047416    2.1401408699   -0.9415990851
 H    0.2722438969    2.2850469251    0.8197305537
 H   -0.9998964908    0.2396985606    0.2031756046
 H   -0.1294771241   -1.5436085345   -1.1169225109
 H    0.4849701449   -0.1681849334   -2.0314995081
 H    2.1687329048   -2.1508491885   -1.0421332808
 H    2.7170732903   -0.4819179373   -1.1632948810
 H    2.3284527090   -1.9605263915    1.3169652590
 H    3.9307062318   -0.3410127606    0.8954427810
 H    1.3241433474   -0.1703347450    3.4139681526
 H   -0.1745371610    0.7385769213    2.9210810687
 H   -1.1885205628   -1.3951406168    2.0146594107
 H    0.2980303491   -2.3178726458    2.5240039834