27

 C    0.1612350714    1.5880798068   -1.1763151936
 C   -0.1173105241    0.2364698487   -0.5095764561
 C   -1.5838916198   -0.0145250599   -0.1267002640
 C   -2.0953282992    1.0158673332    0.8822858721
 C   -2.5412690754   -0.2256514461   -1.3465843114
 C   -2.8697505525   -1.6768482642   -0.8663613821
 C   -4.3183344942   -1.8604288614   -0.4115903455
 C   -2.4799107116   -2.7698105607   -1.8610834933
 C   -1.8590354509   -1.4899584816    0.3120766624
 H    1.2051343237    1.6542275442   -1.4986143282
 H   -0.4673860902    1.7328355673   -2.0620307037
 H   -0.0252247027    2.4255517631   -0.4973141323
 H    0.2063941752   -0.5657274031   -1.1855755225
 H    0.5032260308    0.1378522321    0.3922391017
 H   -2.0988977384    2.0280700748    0.4642263529
 H   -3.1205639103    0.7882465045    1.1920561025
 H   -1.4720491963    1.0262074499    1.7849007142
 H   -3.4007564689    0.4507855719   -1.3822611891
 H   -2.0392892266   -0.1856346142   -2.3182842926
 H   -5.0075276544   -1.8119833554   -1.2632291996
 H   -4.4573592669   -2.8328704500    0.0758200987
 H   -4.6187228348   -1.0859937788    0.3020031048
 H   -1.4439498119   -2.6547373010   -2.1973836421
 H   -2.5748290900   -3.7652478829   -1.4107693955
 H   -3.1227501743   -2.7428856097   -2.7492202574
 H   -0.9817591615   -2.1418565413    0.2530035228
 H   -2.2939017359   -1.5977101761    1.3105687269