14

 N    0.0275848406    1.3613550800   -0.1172471794
 C   -0.0027824771   -0.0252656283   -0.0611782041
 C   -1.1890968439   -0.7563171932   -0.0286265253
 N   -1.1756754314   -2.0964228477   -0.0341886748
 C   -0.0177293278   -2.7149016376   -0.0752457546
 O    0.0325967003   -4.0675303100   -0.0838829759
 C    1.1849571302   -1.9758299084   -0.1062564550
 O    2.3595857212   -2.6316795665   -0.1413350651
 N    1.1834471319   -0.6593515108   -0.0945298948
 H    0.9132765948    1.7525725194    0.1691445340
 H   -0.7626088632    1.8301523338    0.2994197146
 H   -2.1579668498   -0.2676613563   -0.0002431697
 H   -0.8865882055   -4.3660580582   -0.0584746499
 H    3.0472962296   -1.9515413563   -0.1621209100