16

 O   -0.3181704452    0.0209325901   -0.6552006438
 C   -0.1225892926    1.0840878716   -0.1851939359
 O   -1.0950138748    2.0272340775    0.2528647125
 C   -0.0151866070    2.7294398144    0.9889100725
 C    0.9402983499    3.9780705052    1.0377517636
 N    2.0533119906    2.8859159012    1.0363493147
 C    1.7917312072    2.2466481915    2.3637505854
 C    0.2441940257    2.1089514993    2.3782587453
 C    1.0066493724    2.1536338719    0.1095952118
 H    0.9881952909    4.5741011124    0.1289798422
 H    0.9461971344    4.6012085998    1.9355748016
 H    2.3100183770    1.2873122028    2.4098898294
 H    2.1880755638    2.8920890678    3.1510908799
 H   -0.2477502968    2.6649603587    3.1800296080
 H   -0.0936907338    1.0708818760    2.4251643888
 H    1.0843757684    2.6818438599   -0.8446236761