20

 O    0.1544789518    0.0518741639   -0.7257808871
 C    0.0645179425    1.1145815180   -0.1875082404
 C   -0.9663975826    1.7905607968    0.7288237592
 N   -0.1622026117    3.0340640984    0.6391809896
 C    0.2377157710    3.7077932127    1.8680565194
 C    1.0789813175    2.8518333575    2.8512528603
 C    1.9945795385    1.8322954821    2.1236765793
 C    2.2614324997    2.2215986498    0.6620354522
 C    0.9478872974    2.3741642771   -0.1163974478
 H   -1.9863530936    1.8767314187    0.3368174770
 H   -1.0133996926    1.3177910316    1.7214524969
 H    0.8156570555    4.5904049262    1.5690793408
 H   -0.6595473304    4.0887359966    2.3671090163
 H    1.6780027492    3.5319888157    3.4671025637
 H    0.4240293989    2.3183344931    3.5480156652
 H    2.9419117629    1.7224599534    2.6597406377
 H    1.5278078877    0.8398338827    2.1383095596
 H    2.8165991672    3.1669180023    0.6166432552
 H    2.8820574048    1.4693117087    0.1636784597
 H    1.1307229765    2.8335694445   -1.0969216369