15

 O   -0.1246745518    1.4406804167   -0.0587705578
 C    0.0089630741    0.0254607226    0.0046503915
 C   -1.3955926182   -0.5545961749    0.0071999943
 N   -2.0678591577   -0.2093435926   -1.2399091684
 C   -3.4754655410   -0.5766780227   -1.2423849022
 C   -4.1255239584   -0.1765997485   -2.4940416681
 N   -4.6470037433    0.1541663596   -3.4699834242
 H    0.7336023889    1.8217597743   -0.2633158389
 H    0.5579877809   -0.3614758192   -0.8652600562
 H    0.5379009648   -0.2869653725    0.9173612494
 H   -1.3347877219   -1.6467336016    0.0956663029
 H   -1.9304617546   -0.1822688952    0.9006586279
 H   -1.9685197662    0.7909907007   -1.3835060158
 H   -3.5602508511   -1.6670920998   -1.1473002941
 H   -4.0579415443   -0.1473841968   -0.4053516402