17

 C   -0.0063753533    1.4316475822   -0.3059547008
 N    0.0415314653   -0.0041264436   -0.1242047437
 C   -1.0310865149   -0.6057591627    0.2159083940
 N   -2.2610411937   -0.0039065440    0.4320024578
 C   -3.4232340469   -0.6772129760    0.8035316803
 C   -3.4718150348   -1.9949359830    0.9933875698
 C   -2.2579698901   -2.8542018965    0.8168133927
 C   -0.9790293696   -2.1217597702    0.4073264930
 O    0.0501635940   -2.7230230761    0.2382441535
 H    0.9819907484    1.7960692512   -0.5941875927
 H   -0.7144251619    1.7311302165   -1.0968554494
 H   -0.2999955572    1.9616867476    0.6156698085
 H   -2.3136740039    0.9935206504    0.3106926558
 H   -4.2877554751   -0.0352471181    0.9253670040
 H   -4.4066758026   -2.4592346547    1.2817419743
 H   -2.0186602637   -3.4070671606    1.7363733613
 H   -2.4239063500   -3.6358681024    0.0619120716