20

 C    0.4862294690    1.5992793983    0.1234824578
 C    1.3807545765    0.4103949948   -0.1192113340
 O    2.0955488658   -0.1211480999    0.9633319169
 C    1.1728580064   -0.3736807977    2.0203297013
 C   -0.2258859929   -0.5563940249    1.3828918394
 C   -0.0912448978    0.1938947223    0.0675633860
 N   -0.4871130241   -1.9688822397    1.1083421706
 C   -1.1174086057   -2.7281317348    2.1828358018
 C   -1.8888425529   -2.3482284965    0.9673659039
 H    0.5396567158    2.1163530916    1.0758283136
 H    0.2768303681    2.2455970923   -0.7220941895
 H    1.9037809880    0.2803331804   -1.0586667460
 H    1.5011286245   -1.2690225763    2.5547338199
 H    1.1621255954    0.4672952558    2.7275022076
 H   -1.0036451661   -0.1263846935    2.0392010134
 H   -0.7493554044   -0.0862932562   -0.7457636474
 H   -0.7603044534   -3.7448747415    2.3179065648
 H   -1.3613368543   -2.2040201239    3.1062768326
 H   -2.6430299201   -1.5709869234    1.0848410564
 H   -2.1077201680   -3.0821549172    0.1972120108