20

 C   -0.2074309457    1.6094220100    0.1060894073
 C   -0.0296994312    0.0889508942   -0.0178522922
 C   -1.3888915369   -0.6105513586    0.0658891313
 C    0.6611629175   -0.3030912690   -1.3394945406
 N    1.9880557824    0.2223594193   -1.6245560777
 C    2.9528073703    0.1431367791   -0.8177522131
 O    3.0034132414   -0.3011797473    0.4708034232
 C    1.9525109031    0.0649943157    1.3696336524
 O    0.7100444949   -0.4688719346    1.0914667265
 H    0.7140626633    2.1625983492   -0.0877829191
 H   -0.9456406275    1.9463829671   -0.6273360491
 H   -0.5741643415    1.8701703568    1.1034112262
 H   -2.0271269270   -0.3236470341   -0.7743961458
 H   -1.2579688232   -1.6958989965    0.0539326159
 H   -1.8962030752   -0.3386851104    0.9955268562
 H    0.7208946695   -1.3999390979   -1.3637636320
 H    0.0069488552   -0.0015611981   -2.1648675443
 H    3.9541028396    0.4138798110   -1.1552167813
 H    2.2635841527   -0.3498638184    2.3298145233
 H    1.9273146882    1.1611074525    1.4215004928