13

 O    0.0438113462    0.0632148419    0.0031995364
 C   -0.0289534828    1.2501234447    0.0103385866
 C   -1.3236692376    2.1240636803    0.0332420319
 C   -0.7055724119    3.4726149178    0.0313081515
 C    0.6444648968    3.3584168668    0.0114569537
 O    1.1030911369    2.0592201489   -0.0016370890
 N    1.3028688260    4.5356796141    0.0080130905
 C    0.3129227909    5.4187135716    0.0259488660
 N   -0.9271289708    4.8312347509    0.0414444060
 H   -1.9307326746    1.8673131082   -0.8423085267
 H   -1.9055379313    1.8583053964    0.9230919530
 H    0.4347826524    6.4904519746    0.0292657336
 H   -1.8093712103    5.3143325737    0.0566626266