15

 C   -0.0322081842    1.5456212501    0.0188440098
 C    0.0110814282    0.0084352575    0.0069304383
 N    0.7949936638   -0.4897929816   -1.1524535831
 C    1.7484079520   -1.1778615963   -0.6569650182
 N    1.7873217567   -1.2743439973    0.7253161540
 C    0.7336886241   -0.5386015178    1.2637480720
 N    0.3968939576   -0.2986930560    2.4578141540
 C   -1.3498138114   -0.5435829619   -0.0705885655
 N   -2.4203863120   -0.9720018556   -0.1343444367
 H    0.9889576938    1.9343502313    0.0309827486
 H   -0.5399389677    1.9101465945   -0.8757546666
 H   -0.5565197821    1.8881210441    0.9131675736
 H    2.5109908852   -1.6724935074   -1.2496152468
 H    2.4867316157   -1.7605266944    1.2612735306
 H    1.0132700704   -0.7398789690    3.1409514459