12

 C   -0.0269481699    1.4810276371   -0.0128059254
 N   -0.0059630645    0.0140228387    0.0010163354
 C   -0.0062473073   -0.6585795857    1.2370488336
 O   -0.0229124583   -0.0849097066    2.2940364595
 C    0.0141684328   -0.7387207324   -1.1609321385
 O    0.0307431040   -1.9452330453   -1.2174100647
 C    0.0111489780    0.0658628677   -2.3968585887
 N    0.0097801373    0.6502474366   -3.3935412307
 H    0.8625929076    1.8765397474   -0.5076756792
 H   -0.9192744360    1.8509132502   -0.5222620767
 H   -0.0400667342    1.8009466788    1.0279184036
 H    0.0104688005   -1.7479983765    1.1107801917