23

 C   -0.3605037639    1.5325112908    0.0410097788
 C    0.0601849813    0.0632655236   -0.0037243294
 O    0.8170532296   -0.2138436831   -1.1879791333
 C    2.2261370630   -0.3578692293   -1.0573355713
 C    2.6638992749   -0.8404046733    0.3341709352
 C    4.1051754985   -1.3158217699    0.3456519747
 C    1.5294331465   -1.7490520705    0.8979569316
 C    0.8007293533   -0.4224908962    1.2480020206
 C    2.2027653699    0.2342710035    1.3573827268
 H    0.4993918202    2.1998363027    0.1495110932
 H   -0.8791435821    1.7973909488   -0.8843378417
 H   -1.0406382669    1.7130572008    0.8809092068
 H   -0.8487761853   -0.5470063969   -0.1087231052
 H    2.5223035124   -1.0858618142   -1.8234974427
 H    2.7381932373    0.5915307731   -1.2887755634
 H    4.7880744416   -0.5279310747    0.0055095517
 H    4.4109998922   -1.6064751287    1.3561140257
 H    4.2455896571   -2.1825888116   -0.3106010016
 H    1.0333852270   -2.4387310631    0.2093717169
 H    1.8563460865   -2.2859669640    1.7926797116
 H    0.1415510010   -0.3920506805    2.1189221821
 H    2.6460421079    0.0720857260    2.3445634685
 H    2.3205260078    1.2866033865    1.0817842845