19

 C   -0.3060671224    1.4445491082    0.0006555159
 C   -0.0524890803   -0.0675138057   -0.1064657367
 C    0.9291026507   -0.4476314465   -1.2012216479
 C    1.9595417463   -1.1652713032   -0.7478403543
 C    1.8434963852   -1.3439062927    0.7301348730
 O    1.8768756881   -0.0899709268    1.4609090823
 C    0.5977169914   -0.6762618068    1.1455613219
 C   -0.2159213634   -1.0480957132    2.3558241311
 O   -0.7140320046    0.1033522156    3.0235003433
 H    0.6312975626    1.9655606966    0.2136547533
 H   -0.7169371775    1.8405365384   -0.9333277973
 H   -1.0115065873    1.6526758043    0.8087214788
 H   -1.0153362668   -0.5698208323   -0.2810282138
 H    0.7964815133   -0.1155842617   -2.2257257693
 H    2.7870931656   -1.5460385886   -1.3331727913
 H    2.2830886656   -2.1873704508    1.2549637021
 H   -1.0937175765   -1.6333464609    2.0620307258
 H    0.3964267171   -1.6662213248    3.0287684676
 H    0.0543442326    0.6367793309    3.2578368357