11

 C    0.1087042396    1.3751103475    0.0637809362
 O   -0.1579669221   -0.0121876655   -0.1220568946
 C    0.5706182299   -0.5848542368   -1.1717070796
 C    2.0249527971   -0.6613008031   -0.8789799398
 N    3.1542055185   -0.6638914813   -0.6394012308
 C    0.0303637830   -1.9309088670   -1.4308143279
 N   -0.3961397630   -2.9762453014   -1.6667147754
 H    1.1545584099    1.5489259943    0.3451885931
 H   -0.1232424264    1.9467553035   -0.8455834873
 H   -0.5443749453    1.7008038015    0.8735694650
 H    0.4610627087    0.0019985881   -2.1004746489