11

 O   -0.0758696936    1.4384146554    0.0102567696
 C    0.0348854826    0.0258304054    0.0016916307
 C   -1.3932148919   -0.5313952184    0.0123920606
 C   -1.4218946461   -1.9872013893    0.0050336304
 C   -1.4173216594   -3.1890020938   -0.0014244024
 H    0.8102740286    1.8112298852    0.0037938637
 H    0.5614692854   -0.3380041996   -0.8929980097
 H    0.5784339834   -0.3474251321    0.8822426067
 H   -1.9105873476   -0.1433347652    0.8978984604
 H   -1.9273370341   -0.1340991518   -0.8589665677
 H   -1.4270804274   -4.2505443157   -0.0071716624