15

 N    1.1626828216   -0.7507711265    0.0330715436
 C    0.0256063537    0.0355534712    0.1251949366
 O    0.0454145903    1.1983567933    0.4389398753
 N   -1.1577629769   -0.6920887291   -0.1122834219
 C   -1.2479664958   -2.1424514431   -0.2072630548
 C   -2.7613110123   -2.3490079322   -0.0391352709
 O   -3.3425911693   -1.0939433936   -0.3946758407
 C   -2.4127755923   -0.0927803352   -0.3215947120
 O   -2.6806698698    1.0587351081   -0.4530870220
 H    2.0092554837   -0.2028208573    0.0700392622
 H    1.1841996472   -1.5130285084   -0.6267008166
 H   -0.8986069730   -2.5075303111   -1.1834099108
 H   -0.6682901941   -2.6325465110    0.5778220519
 H   -3.1658204608   -3.1205918986   -0.6959217614
 H   -3.0239173221   -2.5846918265    0.9981055213