22

 C   -0.4283245633    1.4626491974   -0.1038054860
 C   -0.0777310756   -0.0213203067   -0.0117875075
 C    1.1148663936   -0.4514371511   -0.9118342134
 C    2.0514631481   -0.5126542785    0.3458466881
 C    2.9447581729   -1.7493725946    0.4901941962
 C    2.8589756635    0.6980852474    0.4745817097
 N    3.5019643150    1.6544274907    0.5800604141
 C    0.7499923261   -0.4671138447    1.2387666734
 C    0.7299043171    0.3495968288    2.5209111804
 H    0.4546653636    2.1011061771   -0.0021582026
 H   -0.8837552887    1.6822036890   -1.0754316565
 H   -1.1439223688    1.7532617906    0.6723563313
 H   -0.9859467918   -0.6125693358   -0.1611751341
 H    0.9914436067   -1.4474322231   -1.3444798883
 H    1.4104342654    0.2426845213   -1.7012807980
 H    3.7280345310   -1.7617343721   -0.2737382653
 H    3.4294004950   -1.7751245126    1.4710128731
 H    2.3411249689   -2.6550464042    0.3792482501
 H    0.5010248364   -1.5082337626    1.4722069966
 H    1.0102635352    1.3918981341    2.3487075166
 H   -0.2696576846    0.3354180112    2.9684756193
 H    1.4273257844   -0.0629155717    3.2580550227