15

 C   -0.2170044020    1.5461814065    0.0280086158
 C    0.0657199625    0.0456766881   -0.0238375727
 C    0.9408207836   -0.4455400409   -1.1866109889
 C    1.8072542695   -1.5338553762   -0.5777002144
 O    2.4950817384   -2.3481403988   -1.1075007028
 O    1.7181550801   -1.4480332052    0.8025327038
 C    0.8164954247   -0.4679351040    1.1918348370
 N    0.6564154671   -0.0950583530    2.3804777451
 H    0.7158819475    2.1188693520    0.0256711275
 H   -0.8133383769    1.8569226675   -0.8346374097
 H   -0.7612378468    1.7954284215    0.9410465852
 H   -0.8893847691   -0.4952449001   -0.0458324185
 H    0.3951763716   -0.8351671625   -2.0469372598
 H    1.6082890037    0.3439150739   -1.5523596804
 H    1.2722125161   -0.6032148987    3.0167576530