14

 O    0.0331529432    0.0584098426   -0.5910875352
 C    0.0470261744    1.1567125830   -0.1439910030
 O   -0.9721460551    1.8283384023    0.4905512420
 C   -0.1626597946    3.0401153792    0.6703820667
 C    0.2133940906    3.3077214568    2.1171513182
 C    1.5703795452    2.6135593206    2.3211726500
 O    2.1735914552    2.4808286506    3.3566170762
 N    1.9989360264    2.1829555107    1.0812739936
 C    1.0468650026    2.3269334491    0.0133528304
 H   -0.6160353985    3.8713522865    0.1327811306
 H    0.3216261058    4.3758962962    2.3256351665
 H   -0.5239524391    2.9043639092    2.8144750149
 H    2.8308372245    1.6183206864    1.0035110075
 H    1.4739327692    2.7197479668   -0.9111399985