20

 C    0.8390030128   -0.3385431042    1.2991199272
 C    0.0002724735   -0.0019013242    0.0628982016
 C    0.6956927309   -0.3650761448   -1.2565255443
 C    0.9136659178   -1.8869148123   -1.4772243822
 C    0.7208963946   -2.1364466490   -2.9935070651
 C   -0.0719699216   -0.9393046499   -3.4409212624
 C   -0.0865166161    0.0230029770   -2.5091919081
 C   -0.7026377276    1.2959264200   -2.6557273792
 N   -1.1929348484    2.3429276943   -2.7370009261
 H    1.0481618997   -1.4113308126    1.3667214809
 H    1.8005423247    0.1865978052    1.2779974166
 H    0.3197285711   -0.0447041675    2.2159875823
 H   -0.9639028042   -0.5248374059    0.1110573256
 H   -0.2313432331    1.0696861070    0.0594579930
 H    1.6618754599    0.1615348043   -1.2829892911
 H    1.8855009847   -2.2282081662   -1.1147338968
 H    0.1468224060   -2.4368097217   -0.9200462773
 H    1.6791648463   -2.1711011132   -3.5314450045
 H    0.2163206790   -3.0839376671   -3.2109874129
 H   -0.5347446399   -0.8576292993   -4.4174941173