18

 C    0.7603417043    1.2182137164    0.3038886137
 C    0.5845990646    0.1396284505   -0.7097259978
 N   -0.4626779384    0.4249969410    0.2688505872
 C   -0.7378312870   -0.4633963676    1.3715399859
 C   -1.6621981954   -1.6594128762    1.1702642446
 C   -0.7367687201   -2.8649269866    0.9433443602
 O    0.6126478520   -2.4013415780    0.8972622709
 C    0.2551857001   -1.5165033191    1.9986143415
 C   -0.9990995415   -2.4015314393    2.3322150609
 H    1.4718676116    1.0303043864    1.1068316282
 H    0.6569739639    2.2647444568    0.0289845121
 H    0.3289352107    0.4035616897   -1.7329912469
 H    1.1668629250   -0.7662977872   -0.5918822661
 H   -1.1248408881    0.1489484714    2.1938361225
 H   -2.7060772087   -1.6591256553    0.8851095606
 H   -1.0045082032   -3.7620338790    0.4017441770
 H    1.0969840796   -1.2580334147    2.6372325999
 H   -1.3910740195   -2.8564391291    3.2300803356