18

 N   -0.0842422411   -1.0471505900   -0.6788598901
 C   -0.0388183690    0.0151106076   -0.2267120936
 C    0.0370684821    1.3601049453    0.3469936532
 C    1.4293233397    1.9626016899    0.2352015301
 C    1.8598147379    2.6521987728   -1.0397411464
 C    1.5996603313    3.4517650097    0.1996056602
 C    0.5685377991    4.5527401828    0.4410562549
 O    1.5254470483    5.3054290227    1.2151534230
 C    2.5592624569    4.3171997836    1.0107666124
 H   -0.6950181762    1.9944959526   -0.1663265799
 H   -0.2790676483    1.3061839602    1.3957958837
 H    2.1963405484    1.4026054124    0.7635205648
 H    2.8857161158    2.5254932632   -1.3697712229
 H    1.1375249269    2.7199388950   -1.8485272800
 H    0.2387026900    5.1004914339   -0.4514269641
 H   -0.3127735856    4.2765777120    1.0363667951
 H    2.9129253822    3.8892843138    1.9579961228
 H    3.4150418315    4.7260507625    0.4577639667