16

 C   -0.4770175870    1.8521696307   -0.5810489849
 C   -0.1251559807    0.4251362767   -0.1084339788
 C   -1.2952634787   -0.4342610512   -0.0183225387
 C   -2.2548286337   -1.1690423961    0.0331823755
 C   -3.3885605585   -2.0554453201    0.0869340827
 O   -3.3727526461   -3.1943862956   -0.3226380506
 C    1.0291670575   -0.1498559027   -0.9790259725
 N    0.8948935087   -1.4368795521   -1.3763384034
 O    1.9914714160    0.5436692488   -1.2382593419
 H    0.4464932409    2.4260886062   -0.6641424443
 H   -0.9632747947    1.8258254428   -1.5597227781
 H   -1.1511679531    2.3356357002    0.1291528464
 H    0.3080610183    0.5020503954    0.8992412776
 H   -4.2988742566   -1.6140971079    0.5389534058
 H    0.0648779216   -1.9710334397   -1.1817405910
 H    1.6282534561   -1.8406579252   -1.9353512438