21

 C   -0.0911052145    1.5780883923    0.0188658683
 C   -0.0212006421    0.0786360742   -0.0520812834
 C    0.6014506164   -0.6812632327   -1.2288729538
 C   -0.4053657317   -1.8589902931   -1.0080416103
 C    0.1707720591   -3.1256203648   -0.3676367103
 C    1.1261144877   -2.7648949365    0.7748462999
 O    0.6063640677   -1.8021401608    1.6840640385
 C   -0.2208590340   -0.7975871657    1.1644573555
 C   -1.1546836274   -0.9893944311    0.0214647331
 H    0.9020553095    2.0112827507    0.1916268224
 H   -0.4782397117    2.0036961539   -0.9149640644
 H   -0.7421973266    1.9137455933    0.8328554920
 H    0.3846389445   -0.1668157232   -2.1700218480
 H    1.6750604127   -0.8916623167   -1.1974803520
 H   -0.9867563349   -2.0953827990   -1.9006493031
 H   -0.6539041966   -3.7425795741    0.0101395101
 H    0.7213103137   -3.7293539426   -1.0990456743
 H    1.3559306561   -3.6479738758    1.3793830565
 H    2.0781139375   -2.4023435149    0.3602705279
 H   -0.6314383625   -0.2466809397    2.0061123396
 H   -2.2309826627   -0.8732499437    0.0908358158