18

 C   -0.4762867358    1.3957221743    0.4603147033
 O   -0.3196159202   -0.0298441394    0.4607495409
 C    0.9443603210   -0.4727968328    0.5757977828
 O    1.9066083252    0.2555946155    0.6475718589
 C    0.9868463835   -1.9834897482    0.6384707175
 C    2.3092029596   -2.6927499415    0.2580676040
 C    2.3344363504   -3.2247564665    1.6897300777
 C    2.2934242418   -2.1251146846    2.6676319680
 N    1.0142471147   -2.5548159085    2.0525514082
 H    0.0762632146    1.8427738136   -0.3698196410
 H   -1.5454457374    1.5762601395    0.3512732410
 H   -0.1088872299    1.8223705295    1.3969663598
 H    0.1093595593   -2.3912140280    0.1365824138
 H    2.1624925939   -3.4627615183   -0.5005763072
 H    3.1429547228   -2.0488831827   -0.0300916000
 H    2.5324854278   -4.2531994019    1.9725868331
 H    2.3346226645   -2.3909868155    3.7192365865
 H    2.7099883942   -1.1540758244    2.4179673228