12

 N    0.0551417758    1.2776614621    0.0089945421
 C    1.1576990956    2.0583044612    0.0023633999
 C    2.3491039837    1.3833467823   -0.0130594477
 N    3.6487626918    1.7479573351   -0.0238442506
 C    4.2604028497    0.5483513889   -0.0365405535
 N    3.4938800260   -0.5757585428   -0.0350257363
 C    2.2613172646   -0.0673616060   -0.0200850557
 N    1.0936391630   -0.7462493503   -0.0122590824
 N   -0.0087583863   -0.0791211027    0.0022441356
 H   -0.8677058179    1.6885082941    0.0203460404
 H    1.0155185581    3.1328603796    0.0096301156
 H    5.3415144157    0.4770645585   -0.0475285875