17

 C   -0.2808066249    1.3732536908    0.0813092073
 O   -0.2129244392   -0.0493622027    0.2559056524
 C    0.9075006391   -0.5040319991    0.8452752226
 O    1.8138786225    0.2094111734    1.2067282738
 C    0.8653916698   -1.9891211249    0.9661037627
 C    2.1633098257   -2.7346265048    1.0552312601
 C    1.2839075464   -2.6777356493    2.2799279821
 C    1.7266892961   -1.9069639370    3.4742330791
 O    1.4556968830   -2.2426886622    4.6020621976
 H    0.5465927207    1.7239017815   -0.5402715273
 H   -1.2357123945    1.5651548281   -0.4073327096
 H   -0.2349493069    1.8810519678    1.0476981325
 H    0.0321731466   -2.4566291956    0.4571712363
 H    2.2517054205   -3.6813114783    0.5362808323
 H    3.0569477253   -2.1195775778    1.0688739783
 H    0.7075866709   -3.5615888340    2.5309827178
 H    2.3386033088   -1.0101908161    3.2596738323