17

 O    0.2604433690    1.4499853789    0.2275589881
 C    0.0318495049    0.0906730017    0.0533451855
 C    0.8212485793   -0.7621566425    1.0983984654
 O    0.4568373512   -2.1318630121    0.7569331412
 C   -0.3924547952   -1.8493104430   -0.3166485365
 C   -1.3000613872   -2.4563980463   -1.3912652931
 C   -1.3553360019   -0.8914086890   -1.5847793876
 C   -1.3331162989   -0.6381839976   -0.0457887301
 C    0.1607222875   -0.7346881437   -1.2529376763
 H   -0.2448929754    1.9304963263   -0.4359171697
 H    1.9044945055   -0.6345669276    1.0040083006
 H    0.5150368218   -0.5448108626    2.1267979612
 H   -0.8184222773   -3.0319399233   -2.1868586710
 H   -2.2204782556   -2.9413643921   -1.0538718509
 H   -1.9285752861   -0.3547574882   -2.3370614830
 H   -2.1757226473   -0.6544693441    0.6458280568
 H    1.0082666560   -0.8601535949   -1.9271114206