17

 C    0.0169984563    1.5248913217    0.0958456427
 C   -0.0289865272    0.0020295398   -0.0330047504
 N   -1.3972993763   -0.5390029823   -0.0472808001
 C   -1.9806461823   -0.8222849177   -1.2737067548
 O   -3.0996603113   -1.2220472183   -1.4694613147
 C   -2.0406230074   -0.7162795095    1.1870963976
 N   -1.4098110591   -0.3812047867    2.2528890493
 C   -3.3634882209   -1.2724103258    1.2211081607
 C   -4.4514816997   -1.7243551332    1.4644792257
 H    1.0569933923    1.8655075590    0.0875957390
 H   -0.5064329065    2.0075247035   -0.7355034558
 H   -0.4414897004    1.8421784615    1.0340615716
 H    0.4497663810   -0.3181156117   -0.9627999951
 H    0.5002550026   -0.4646280855    0.7987698955
 H   -1.2626701025   -0.6299128094   -2.0934098987
 H   -1.9866606840   -0.5799676917    3.0677346124
 H   -5.4224427047   -2.1292078735    1.6133790151