21

 C   -0.1362323182    1.5765615703    0.0545111218
 C    0.0329777365    0.0546014881    0.0266204102
 C    0.8257947625   -0.4716385980   -1.2111084503
 C    1.4611814980   -1.7770172461   -0.7050812570
 C    2.8510561755   -2.2966902055   -1.1421583806
 C    3.4644652339   -2.7262431902    0.1817483754
 C    2.7767798161   -2.2663557878    1.2429522656
 C    1.6386338509   -1.4917866813    0.7762320535
 C    0.8353441362   -0.5084548304    1.1927381292
 H    0.8381005942    2.0773408859    0.0781047406
 H   -0.6754738576    1.9285353607   -0.8316411531
 H   -0.7001888866    1.8989578030    0.9364772357
 H   -0.9745189942   -0.3944031193    0.0196419956
 H    0.1949559521   -0.5936155557   -2.0970091693
 H    1.6135178330    0.2524167257   -1.4574666986
 H    0.7420779342   -2.6028502878   -0.8156001627
 H    2.8055468314   -3.1091571263   -1.8748566459
 H    3.4596487958   -1.4998636772   -1.5963005677
 H    4.3917360902   -3.2863482935    0.2390307099
 H    3.0637553849   -2.3905155193    2.2802444203
 H    0.7635738911   -0.1117464752    2.1995202877