20

 C   -0.2715689498    1.5121820746   -0.0061249854
 C   -0.0092965767    0.0045530266    0.0083578362
 C   -1.2899128164   -0.7825270399   -0.2498568630
 C    1.2143974468   -0.3989168868   -0.8788257383
 C    2.1064107253   -0.4714264016    0.3894826829
 O    2.8826503606    0.7092583604    0.4734085508
 C    0.8109942342   -0.4487842727    1.2611953960
 C    2.9569892703   -1.6603992662    0.5386810430
 N    3.6231897764   -2.5944406326    0.6827963133
 H    0.6480662897    2.0744898550    0.1747243223
 H   -0.6776147554    1.8254438437   -0.9746605534
 H   -0.9996854591    1.7864111755    0.7659444352
 H   -1.7187205668   -0.5237847650   -1.2247852648
 H   -1.1069128975   -1.8622856861   -0.2401359493
 H   -2.0459514771   -0.5632447096    0.5127829346
 H    1.0927819262   -1.3750941897   -1.3524962665
 H    1.5671114753    0.3244466290   -1.6166110940
 H    3.2994537965    0.7380037289    1.3428662002
 H    0.8491270808    0.2361903919    2.1125697634
 H    0.5328609968   -1.4453701954    1.6124130466