16

 O    0.0505076989    0.0659720004    0.3093963932
 C   -0.0097662930    1.2443250866    0.0659073714
 C   -1.3320671854    2.0412127891   -0.2203062860
 C   -0.7812761355    3.3203965417   -0.8427308141
 N   -1.0154255719    4.8043472800   -0.5128186757
 C   -0.5816480565    5.0384026032    0.8693062809
 C    0.4825894525    4.8742712617   -0.1623402398
 C    0.6218608111    3.3974439715   -0.3375971145
 C    1.1186126099    2.2373762120    0.0966293153
 H   -2.0210979476    1.4625796677   -0.8374199983
 H   -1.8138938388    2.2247758930    0.7473763332
 H   -0.8228724156    3.2806343125   -1.9356121799
 H   -0.7928942964    6.0484347677    1.2082311487
 H   -0.7101561372    4.2692206884    1.6265997658
 H    1.1252852985    5.6795567919   -0.4951344055
 H    2.0831177368    2.0030112225    0.5269929353