16

 C   -0.0057087579    1.4715777307   -0.0438371668
 C    0.0095408859   -0.0199504178    0.0175305763
 O    0.1738404702   -0.6913532329   -1.2270021704
 C    0.0598041886   -2.0288339104   -0.7601378521
 C    1.1525786146   -2.1189848642    0.3277852775
 C    0.6298232380   -0.9129201379    1.0933438534
 C   -0.8750165371   -0.9390543564    0.8257589041
 O   -1.1516497552   -2.0473622670   -0.0112274045
 H    0.9549206326    1.8612112283   -0.3960799765
 H   -0.7890322145    1.8218430769   -0.7232680632
 H   -0.1988181781    1.8895418589    0.9482621868
 H    0.0297060696   -2.7387696848   -1.5818308568
 H    1.0991378062   -3.0542737171    0.8890603575
 H    2.1533020125   -1.9762009690   -0.0851143562
 H    1.0656787612   -0.5289132044    2.0046521352
 H   -1.6674445866   -0.6600595532    1.5045397259