17

 C    0.0158873508    1.5565043670    0.1041708319
 N    0.0022038806    0.1106754702    0.1357969761
 C   -1.2565865983   -0.6011527826    0.4090492824
 C   -0.4569461133   -1.6647057434    1.2259791473
 C   -0.1544244793   -2.8946571438    0.5289860939
 C    0.0904785896   -3.9208560917   -0.0457019483
 C    0.6813180133   -0.5750707602    1.2429493923
 C    2.0664204303   -0.9700576498    0.9975349380
 N    3.1682655337   -1.2695856158    0.8214460484
 H    1.0418391540    1.9115961318   -0.0331417955
 H   -0.5779108991    1.9077021367   -0.7451881857
 H   -0.3923107225    2.0136012527    1.0251118963
 H   -1.9513854089   -0.0388116600    1.0534716314
 H   -1.7855691365   -0.9553702024   -0.4788336458
 H   -0.8593164729   -1.8727526710    2.2190031170
 H    0.3194896619   -4.8237068992   -0.5560566978
 H    0.6445290466   -0.0157615885    2.1934463581