15

 C   -0.3201994127    1.2969963520    0.0189772273
 O    0.6673234689    0.2690269556    0.0623066196
 C    0.7301207803   -0.5306327528   -1.0076678722
 N    1.4784787516   -1.5512809085   -0.9958167754
 C    1.5998565317   -2.3036551648   -2.1589693621
 C    1.7408988226   -1.9360604916   -3.4678404679
 O    1.8821248862   -3.0215027410   -4.2468544679
 N    1.8363874654   -4.1616357314   -3.4505899457
 C    1.6840503537   -3.7279359096   -2.2265318952
 H   -0.2424031955    1.8867102203   -0.9018121094
 H   -1.3294264673    0.8781285317    0.1004874849
 H   -0.1271823723    1.9422658300    0.8760295848
 H    0.1027006337   -0.2271007475   -1.8586410266
 H    1.8053795676   -0.9814377432   -3.9653706785
 H    1.6264485760   -4.4320567591   -1.4089214657