22

 C    0.1389674242    1.2634224862    0.3714957171
 O   -0.0142943645   -0.0463553934   -0.1467879779
 C   -1.3172393546   -0.5690520789   -0.0279894874
 C   -1.3835512592   -1.8891696700   -0.8088101839
 C   -1.0863624138   -1.7471785496   -2.3126955990
 C   -0.9745399537   -3.1389253993   -2.9497697455
 C   -2.1382022292   -0.8999040457   -3.0422308462
 C   -1.6771789967   -0.7905862092    1.3935335563
 N   -1.9514396385   -0.9562394656    2.5039240905
 H    1.1722539737    1.5579012294    0.1790703430
 H   -0.5371010012    1.9733191274   -0.1277406971
 H   -0.0498671399    1.2961407889    1.4527479807
 H   -2.0521095075    0.1467631207   -0.4307820500
 H   -0.6633627257   -2.5769243843   -0.3527233145
 H   -2.3795603701   -2.3240100240   -0.6605178395
 H   -0.1157429656   -1.2469361856   -2.4074459063
 H   -0.7244292734   -3.0638059268   -4.0127941258
 H   -0.1993817540   -3.7403927796   -2.4639436454
 H   -1.9212291364   -3.6868307994   -2.8698392312
 H   -2.1808487221    0.1272972453   -2.6664813998
 H   -1.9123464728   -0.8423233177   -4.1117198535
 H   -3.1385455490   -1.3375381987   -2.9382759146