17

 C    0.2716914550    1.5335684840    0.1150321049
 C   -0.0761522781    0.0603114120   -0.0281033561
 C    0.8506115060   -0.7913157897   -0.9524800869
 N    1.1645536330   -1.6290853428    0.2049065241
 C    0.3407940243   -0.8714585291    1.1555784313
 C    1.9840142237   -2.6914204199    0.2908748237
 O    2.6175478760   -3.1702511534   -0.6285910219
 C    2.0484457963   -3.2533958993    1.6598756679
 N    2.1171348772   -3.7085774638    2.7198253871
 H    1.3274808145    1.6671579926    0.3751527596
 H    0.0854301434    2.0724940322   -0.8195566634
 H   -0.3299221939    2.0054910401    0.8986498707
 H   -1.1303263946   -0.0606520439   -0.2857821898
 H    0.3623260094   -1.3368215111   -1.7653624018
 H    1.7244372154   -0.2660033913   -1.3531383184
 H    0.9210894269   -0.3820757376    1.9452892058
 H   -0.4611274646   -1.4583399887    1.6129808132