18

 C   -0.4215167828    1.2443452082   -0.2484236084
 C    0.1730908260   -0.1190657721    0.0688826397
 C    1.0551495969   -0.8714489672   -0.9846365516
 C    2.0870477603   -1.2368089320    0.1275882148
 C    1.3787086451   -0.2059627727    1.0213396665
 O    1.6856610051    0.3861895520    2.0146596808
 N    0.4526202423   -1.9441615590   -1.7347299329
 C    0.4328904709   -1.9865539468   -3.0976028317
 O    0.9082076297   -1.1467639092   -3.8303390879
 H    0.3458052467    1.9279977700   -0.6245993345
 H   -1.2062188020    1.1654160277   -1.0069097031
 H   -0.8553869173    1.6912957808    0.6508169592
 H   -0.6040425154   -0.8023935018    0.4423356508
 H    1.4757011479   -0.1825221348   -1.7181841646
 H    1.9531885761   -2.2555041010    0.5104256410
 H    3.1477321736   -1.0771992209   -0.0769538513
 H    0.0216384145   -2.7057345423   -1.2330995366
 H   -0.0780485876   -2.8964500190   -3.4694644503