18

 C    0.0046908466    1.5851886245    0.0438479129
 C    0.0009245896    0.0547872675   -0.0015436423
 C    0.6992091292   -0.4959031691   -1.2468505954
 C    0.7055551266   -2.0508757491   -1.3149309853
 C   -0.6530816339   -2.6014621506   -1.3845052840
 C   -1.7721799693   -3.0349530632   -1.4358916872
 C    1.5243360131   -2.5222350774   -2.4367522752
 C    2.2120615733   -2.8777551644   -3.3548986723
 H    1.0259805854    1.9819781343    0.0444350753
 H   -0.5133120095    2.0078164512   -0.8240217118
 H   -0.4967869061    1.9553233146    0.9432278344
 H    0.4956300780   -0.3408408449    0.8957580567
 H   -1.0299672075   -0.3154678668    0.0274113799
 H    0.2190035409   -0.1137444398   -2.1542416148
 H    1.7426480187   -0.1626222720   -1.2744239395
 H    1.1673557460   -2.4163000732   -0.3851475262
 H   -2.7569617387   -3.4292710113   -1.4853055313
 H    2.8139603677   -3.2047161504   -4.1662889037