18

 O   -0.1573423606   -0.0056483542   -0.3624613140
 C    0.0088610953    1.1989097442   -0.3242393209
 C    1.2267502044    1.8636417141    0.1172355058
 C    1.2103401486    3.2215816238    0.0723356546
 N    2.1670759320    4.1338641092    0.3871912039
 C    3.3254478051    3.9055583939    1.2407801064
 C    4.0391089927    2.5803686639    0.9885803211
 O    3.2900137157    1.4816568063    1.4472543553
 C    2.3757710372    0.9624974500    0.4965436201
 H   -0.8050680899    1.8938629379   -0.6418332282
 H    0.2987114670    3.6836941048   -0.3040708004
 H    1.8639333458    5.0935532196    0.3473318974
 H    4.0257355526    4.7311869005    1.0724348972
 H    3.0330421020    3.9210292230    2.3014171830
 H    4.2940256884    2.4741165671   -0.0777512744
 H    4.9729354270    2.5913200458    1.5617681228
 H    1.9665755233    0.0446040901    0.9247264194
 H    2.9269610834    0.6688716501   -0.4145747792