20

 C   -0.0440712790    1.5580584293   -0.2403103448
 C    0.0150908716    0.0567853893   -0.0736633780
 C    1.3549562395   -0.6890907515   -0.0748531734
 C    2.5867765848    0.0386910072   -0.1608313626
 N    3.5800121014    0.6324619347   -0.2059890151
 C    0.5039515573   -0.5717623837    1.1860190807
 C    0.9649264251    0.0952573231    2.4903906561
 C    0.6935227154   -1.2540630129    3.2209470012
 C   -0.0493563654   -1.7785732206    1.9561468229
 H    0.7912078964    2.0511223218    0.2637133617
 H   -0.0061423962    1.8384040589   -1.2976312624
 H   -0.9747655902    1.9534325213    0.1802003254
 H   -0.7699342707   -0.4898878408   -0.5921260639
 H    1.3767603781   -1.6581205104   -0.5639616863
 H    1.9897694205    0.4728403291    2.5115723199
 H    0.2917380268    0.8966096992    2.8098212931
 H    1.6125130407   -1.8079343886    3.4244142673
 H    0.1085817484   -1.2009564829    4.1407927547
 H   -1.1388654607   -1.7424474652    2.0563559002
 H    0.2321953262   -2.7695936574    1.5904683534