19

 C    0.1650328673    1.5005961558    0.1249899761
 C   -0.1335045403    0.0067938307   -0.0566529355
 C    0.6268620322   -0.6031041227   -1.2134455793
 O    0.3951096219   -0.0024776467   -2.4731520460
 C    2.0292215866   -1.1855182525   -1.0988549837
 O    2.1821943596   -1.8580667922    0.1560578057
 C    1.1582825785   -2.8308447347   -0.2043362441
 C    0.8505693219   -2.0767526940   -1.4814783211
 O    0.4423465909   -2.7087490851   -2.6279772705
 H    1.2331927024    1.6717140563    0.2985176138
 H   -0.1368274193    2.0770535866   -0.7561315412
 H   -0.3796847359    1.9070233259    0.9817792201
 H    0.1399322850   -0.5307592713    0.8558570169
 H   -1.2086151439   -0.1412028757   -0.2157718083
 H    0.8916467376    0.8208541991   -2.5230599298
 H    2.9137995743   -0.8084970500   -1.6016633620
 H    1.6085218800   -3.8110807874   -0.3954315450
 H    0.3724867644   -2.9185479512    0.5540153908
 H    0.1744002365   -2.0092233310   -3.2397786269