18

 N   -0.0094633478   -1.1773808548    0.1300575047
 C   -0.0325086601   -0.0200103347    0.0664986630
 C   -0.0142252155    1.4032824994   -0.0155656717
 C   -1.1601240384    2.1058609044    0.0597516155
 C   -1.1992745840    3.5767389116    0.0046057637
 C   -0.3388096762    4.3841496377    0.9789551885
 C    0.0609945274    4.2884023950   -0.4602174872
 C    1.2150871311    3.4224635974   -0.9285627565
 C    1.3329408192    2.0840778536   -0.1739856107
 H   -2.1024937570    1.5770924571    0.1643775080
 H   -2.1578657204    4.0104930407   -0.2569053822
 H   -0.7500843268    5.3212156937    1.3373521365
 H    0.2157511995    3.8261183456    1.7247317655
 H   -0.1027744411    5.1792745092   -1.0593201739
 H    1.0711696197    3.2130977387   -1.9956163096
 H    2.1608680923    3.9682294586   -0.8401168278
 H    1.7775900639    2.2449525811    0.8160694989
 H    2.0227798642    1.4212106958   -0.7041901948