16

 C    0.0032101642    1.5024550379    0.0359645953
 C    0.0072548528    0.0484077098    0.0215990050
 C   -0.0041567833   -1.1542242925    0.0286413245
 C    0.0273233300   -2.6120013920   -0.0182484120
 O   -1.2758636574   -3.1383178185    0.1299180608
 C    0.6199509319   -3.1085393611   -1.3716388179
 O    0.4963493579   -4.5137757928   -1.4591854956
 C    0.9092599736   -3.1434936014    1.0645251676
 N    1.6085883473   -3.6265352576    1.8479777443
 H    0.6486483598    1.8881822870    0.8319580221
 H    0.3600392900    1.9100811534   -0.9156224876
 H   -1.0078172670    1.8862213468    0.2080366186
 H   -1.2269200651   -4.0376989800   -0.2301271031
 H    0.0061582580   -2.6831825303   -2.1687780767
 H    1.6537270235   -2.7632470434   -1.4840939084
 H    1.1661191737   -4.9135164252   -0.8906804369