16

 C   -0.2923071139    1.6333188041   -0.1580403650
 C    0.0103670089    0.1441340942   -0.1148097478
 C    0.8943556847   -0.4711568428   -1.2197317738
 C    1.8110910279   -0.8924778508   -0.0546135543
 O    0.9743512156   -0.2015970359    0.9114948678
 C   -1.2586618612   -0.6636013014    0.1587054609
 O   -1.8234983132   -1.3645393755   -0.6405971245
 C   -1.7668763091   -0.5432404489    1.5433901232
 N   -2.2010042726   -0.4276919762    2.6086744015
 H    0.6391253927    2.1891035045   -0.2939859666
 H   -0.9683610387    1.8649728035   -0.9877720455
 H   -0.7566360504    1.9632614412    0.7763129789
 H    0.4237859893   -1.2705317085   -1.7909097447
 H    1.3237291718    0.2662166019   -1.8986162625
 H    1.8557580445   -1.9681674861    0.1472577028
 H    2.8258220938   -0.4835845234   -0.0615617104