18

 O   -0.6769412422    0.8007183142    0.6419519281
 C    0.1118507145    0.9438105236   -0.2557534269
 C    1.3413617534    1.8239325350   -0.1997652386
 C    1.2928416286    2.9477464715   -1.2502207714
 C    0.2270256729    3.9918378931   -0.9153661398
 O    0.2135347327    5.0494126911   -1.8820357523
 C    1.4255146033    5.4273525004   -2.3567665272
 N    2.5604027516    4.9015662304   -2.1754969684
 C    2.6374747862    3.6771935315   -1.3863744927
 H   -0.0314080155    0.4244725362   -1.2330477938
 H    1.4410551386    2.2285730882    0.8125283508
 H    2.2161399994    1.1910869303   -0.4055973018
 H    1.0403627434    2.5128162538   -2.2272331626
 H   -0.7831949138    3.5754439185   -0.9131703744
 H    0.4184858599    4.4239492233    0.0765284863
 H    1.3153689886    6.3147909419   -2.9772202617
 H    3.0365987779    3.9229857171   -0.3920209420
 H    3.3777825804    3.0181466101   -1.8549976017