19

 O   -0.4071156632    0.5294767661    0.7251220349
 C    0.2414098718    0.9230474156   -0.2107423473
 C    1.3816525966    1.8870638223   -0.1041944812
 C    1.9483855292    2.1575384951    1.2709387899
 C    3.0014731475    3.2729494491    1.2580744561
 C    2.4638583692    4.5198725382    0.5474318289
 C    2.1517730105    4.2490751760   -0.9343344986
 C    1.4820148558    2.9074066419   -1.1844344929
 O    2.3186444922    1.7538385238   -1.1880629310
 H    0.0439453339    0.5918555858   -1.2550697363
 H    1.1103408554    2.4247422868    1.9250731710
 H    2.3649498424    1.2272765523    1.6730857795
 H    3.2842121074    3.5143738958    2.2874998156
 H    3.9058686631    2.9173199327    0.7516439310
 H    1.5484346456    4.8498015779    1.0561102035
 H    3.1769135488    5.3470348895    0.6235106937
 H    1.5115726528    5.0413434275   -1.3364719930
 H    3.0749791439    4.2633014290   -1.5264374340
 H    0.7279599072    2.8902384348   -1.9732522097