17

 C    0.0881079608    1.4968588083    0.1369122085
 O   -0.1515645435    0.0965286355    0.1317665702
 C    0.5661109286   -0.6211607203    1.1089238413
 C    0.0387290326   -2.0232259096    1.2801746868
 C    0.0683608561   -2.9158048271    0.0502689577
 C    1.2071174519   -2.9321710170    1.0194357396
 O    2.3433357060   -2.1619465305    0.6614361544
 C    2.0443398190   -0.8327670594    0.6792388835
 O    2.8357656459    0.0064077394    0.3624792028
 H    1.1313409987    1.7328404311   -0.0938175678
 H   -0.5645454537    1.9239930582   -0.6275540069
 H   -0.1700586660    1.9358231973    1.1130614591
 H    0.5619549778   -0.0770188350    2.0666004965
 H   -0.6747191370   -2.2272871236    2.0674328015
 H   -0.6034263255   -3.7665395722    0.0495107761
 H    0.2265748231   -2.4524398050   -0.9169922059
 H    1.4657672052   -3.7935436701    1.6206692127