16

 C   -0.0106598177    1.5915540299    0.1618251517
 C    0.0227927389    0.0751867776   -0.0621540070
 O    0.7802119959   -0.5907172452    0.9412522200
 C   -1.3586663148   -0.5064298948   -0.1578891546
 C   -2.0510812504   -1.1446358210   -1.1353583894
 C   -3.2985881926   -1.4288255789   -0.5120949129
 O   -4.3262263918   -2.0612016658   -1.0958899509
 N   -3.3578743902   -1.0065893068    0.7279609052
 O   -2.1116192069   -0.4070920265    0.9557818222
 H    1.0116092746    1.9678651716    0.2482305459
 H   -0.5083136012    2.1010815431   -0.6691102683
 H   -0.5545475545    1.8318297997    1.0806991327
 H    0.5365415900   -0.1445782726   -1.0031489805
 H    0.2974250177   -0.5087482915    1.7719000013
 H   -1.7375511788   -1.3889718594   -2.1355487386
 H   -5.0400176181   -2.1244080096   -0.4469198469