22

 C    0.6106748206    1.5632674205   -0.1154947412
 C   -0.0132493300    0.1721231205    0.0399509254
 C    0.2601270160   -0.7917884396   -1.1506400155
 C    1.3321033788   -1.8029398370   -0.6720879935
 C    0.9975361822   -3.2550080083   -1.0371737077
 C    2.7467405722   -1.4538377352   -1.1737632342
 C    1.3201817664   -1.6427384570    0.8608036406
 O    1.9144385369   -2.3401827291    1.6569273220
 N    0.5370881253   -0.5674089233    1.1654965707
 H    1.6894425063    1.4965769425   -0.2865382738
 H    0.1584596188    2.0915035096   -0.9613692771
 H    0.4476030351    2.1690415367    0.7824815461
 H   -1.0947558381    0.2969982681    0.1770204399
 H   -0.6615840128   -1.3198611123   -1.4099235146
 H    0.5769864865   -0.2401600566   -2.0396801273
 H    1.0521346138   -3.4058361824   -2.1207185209
 H    1.7044904617   -3.9339042032   -0.5526659407
 H   -0.0100680698   -3.5269628501   -0.7062252200
 H    3.0189791807   -0.4193506056   -0.9413402130
 H    3.4853437974   -2.1083799083   -0.7027834847
 H    2.8080399094   -1.5827454653   -2.2597163947
 H    0.4713380926   -0.2461679047    2.1192100543