21

 C    0.0520533466    1.5969101498   -0.0771406497
 C    0.0161458198    0.0593428973   -0.0030622729
 C    0.7064400220   -0.4893517405    1.2280330420
 C    2.0701684785   -0.7884978965    1.1669849722
 C    2.7648403702   -1.2650649958    2.2744686880
 C    2.0882823535   -1.4548771423    3.4744459646
 C    0.7288677802   -1.1659035648    3.5472719723
 C    0.0208428310   -0.6840548613    2.4429623345
 C   -1.4576398483   -0.3993771596    2.5740123788
 H    1.0844149535    1.9600328054   -0.0948167601
 H   -0.4514361033    1.9574050356   -0.9800019269
 H   -0.4405077991    2.0510865839    0.7883448479
 H   -1.0246119768   -0.2788878108   -0.0407797229
 H    0.5036104000   -0.3480420515   -0.8960548445
 H    2.5950084810   -0.6462657176    0.2259394353
 H    3.8234895599   -1.4901856620    2.1972211470
 H    2.6116281378   -1.8281875604    4.3485736400
 H    0.1987903788   -1.3192055556    4.4830509088
 H   -1.7040872519    0.6374646290    2.3208665086
 H   -2.0549307685   -1.0372913480    1.9115878046
 H   -1.7977125649   -0.5793373443    3.5970988124