18

 C   -0.9257721279    0.8030512588    0.2925336346
 C    0.0108242556   -0.3769722930    0.2030240469
 N    1.3447224829   -0.1519233251   -0.3829567992
 C    1.2459883058   -0.5619774259    1.0210725245
 C    1.7587999796    0.3876772928    2.0638924070
 C    2.8479362045    1.3483604282    1.7540859216
 O    1.5145190915    1.7941776795    1.9300570091
 C    1.6845942268   -0.0741079234    3.4883030977
 O    1.4671073765   -1.2092053241    3.8276504056
 H   -0.3783305240    1.7173971652    0.5176989296
 H   -1.4542437924    0.9338899083   -0.6579892501
 H   -1.6768269085    0.6391005602    1.0729539738
 H   -0.4774729639   -1.3126374894   -0.0698712385
 H    1.6295541329   -0.9348441543   -0.9643227926
 H    1.4920766491   -1.5890420710    1.2816085982
 H    3.5512144432    1.6546360135    2.5274268064
 H    3.2075622067    1.3530286587    0.7279250790
 H    1.8538821316    0.7474837610    4.2191151364