16

 O    0.2411815032    1.3467874683   -0.0039815642
 C    0.1398151460    0.0016885231    0.0607607732
 N    0.1261138944   -0.7371642924   -1.0441644184
 N   -0.0018220997   -2.0354856583   -0.5834263684
 C   -0.0323683262   -2.0605846630    0.7600069092
 C    0.0568563037   -0.7748874400    1.2322645357
 C   -0.0835281646   -0.7965653693    2.7278049749
 C    0.0779035647   -2.3290316459    3.0157620679
 N   -0.2406321411   -3.0356273299    1.7328651549
 H    0.2881620856    1.5754273224   -0.9411031773
 H   -0.0204596637   -2.7871479655   -1.2478800199
 H    0.6664074084   -0.2162963816    3.2734806164
 H   -1.0678306016   -0.4410491905    3.0582084993
 H    1.1120413522   -2.5410209517    3.3163095745
 H   -0.5865558511   -2.6807051107    3.8085509452
 H    0.2785682398   -3.8969374950    1.6135010669