19

 C   -0.2178068201    1.4544018611   -0.0276750838
 N    0.0627831197    0.0286965845   -0.0127356248
 C    0.8262395362   -0.4863035978   -1.1739981042
 C    1.8586245510   -1.3946105574   -0.4923212794
 C    1.0802210781   -1.9228244132    0.7232087781
 C    0.7718901513   -0.4890815038    1.1803321100
 C    2.1783962027    0.0881982241    1.1893031665
 N    2.6598415873    0.9737882911    1.9476925163
 O    2.8301896500   -0.5089868830    0.1296121329
 H    0.6847980250    2.0882897037   -0.0455266221
 H   -0.8234695876    1.6920832291   -0.9078418675
 H   -0.7982689454    1.7209025720    0.8609300083
 H    0.1786224884   -1.0311833952   -1.8721104105
 H    1.3418723940    0.3099120737   -1.7268064836
 H    2.3930873355   -2.0975390673   -1.1283548086
 H    0.1822046754   -2.4860920311    0.4663872377
 H    1.7125179587   -2.4835842499    1.4138290390
 H    0.2109739137   -0.3301009783    2.0986188029
 H    3.6201051663    1.1973015278    1.6757016927