20

 C   -0.0703070831    1.5339622069   -0.0560551145
 C    0.0354961212    0.0039123456   -0.0446830307
 C    0.8080576594   -0.4881790863   -1.2949159929
 N    1.4224747257   -1.8192863701   -1.1539685298
 C    0.5355293376   -2.8377745179   -0.6974830940
 C    0.1213534124   -2.9659322456    0.5693481793
 C    0.3407295309   -1.9627117514    1.6433662918
 O    0.1735900322   -2.2645657149    2.8089911907
 C    0.6736280476   -0.5109716187    1.2643874778
 H    0.9166749715    1.9982921948    0.0556207137
 H   -0.4996900712    1.8915665986   -0.9983039607
 H   -0.7047319501    1.8960920770    0.7586201731
 H   -0.9820895574   -0.4025338222   -0.0927157466
 H    0.1436062758   -0.4922900592   -2.1663730811
 H    1.6246752231    0.2075221522   -1.5213869912
 H    2.1848996793   -1.7377424575   -0.4904091135
 H    0.2219633998   -3.5546383336   -1.4555828209
 H   -0.4535097660   -3.8358392995    0.8740260427
 H    1.7673916181   -0.3980205671    1.2250226210
 H    0.3453527231    0.0904537088    2.1170640558