14

 O   -0.2241463494    1.4350523367    0.0229946736
 N    0.0120037630    0.0559808330    0.0013087875
 C   -1.0703075492   -0.5952444175   -0.0681194263
 C   -2.5699421249   -0.2951436862   -0.0071593076
 C   -2.7713485147   -1.8254252381    0.0513528352
 O   -2.2011501514   -2.3851141636   -1.1067333206
 C   -1.2892012066   -2.0792039311   -0.0329718760
 C   -0.4836120630   -3.1627162569    0.5826228015
 O   -0.7208489539   -4.3359750898    0.4530807676
 H    0.6673017306    1.7973555478    0.0780655004
 H   -2.8424673954    0.2362304528    0.9088926856
 H   -3.0195415302    0.1981731036   -0.8711833677
 H   -3.5114841178   -2.4042551388    0.5909475207
 H    0.3583386728   -2.7892712320    1.2018571960