21

 O    0.2076845619    1.3603090662   -0.2460798782
 C    0.0303254774   -0.0241209417   -0.0839208481
 C    0.3721918252   -0.7053235354    1.2688334869
 C   -0.8426197526   -1.6615082279    1.0231737478
 C   -1.7557005647   -2.0269433514    2.1490736485
 C   -3.0021991270   -1.5612402755    2.2427566662
 C   -3.5827981129   -0.5712146467    1.2617944867
 C   -2.4762396923    0.2590676939    0.5909229257
 C   -1.4001055621   -0.6442679799   -0.0184241514
 H   -0.2447584804    1.8069950723    0.4764625315
 H    0.5996188503   -0.4837524008   -0.8973291877
 H    1.3660170854   -1.1442081120    1.3822746190
 H    0.1860458228   -0.0353601432    2.1147690024
 H   -0.4892352680   -2.5704227786    0.5226060828
 H   -1.3737561049   -2.7179245445    2.8981472898
 H   -3.6408883412   -1.8858109023    3.0606593134
 H   -4.1760317515   -1.0964449440    0.4985412665
 H   -4.2878650733    0.0917708260    1.7771850322
 H   -2.8923455199    0.9242435589   -0.1727290049
 H   -2.0386185077    0.9046105590    1.3647208752
 H   -1.7706679445   -1.0793519124   -0.9516743040