15

 C    0.3101477659   -0.4127282678    1.0842176205
 C    0.1359139088    0.4136384256    0.2293919564
 C   -0.0345742470    1.4032942485   -0.8357818954
 N    1.1713412044    2.1802074421   -1.1218898117
 C    1.4126649433    3.2983057040   -0.3679607697
 N    0.5678722011    3.9973042644    0.3274160815
 C    1.3393129503    5.0551269891    0.8077879455
 C    2.6098678615    4.9285160222    0.3773027478
 O    2.6751380375    3.7791514992   -0.3942798828
 H    0.4517659659   -1.1335334500    1.8512661427
 H   -0.3489825427    0.9037370592   -1.7585327540
 H   -0.8165664717    2.1187128563   -0.5675521574
 H    1.9996774854    1.6349761185   -1.3145071870
 H    0.9121109167    5.8238761009    1.4320581945
 H    3.5270200005    5.4777749379    0.4906248593