19

 O   -0.3494065609    0.4112624541    0.5791294017
 C    0.2762237606    0.8833552444   -0.3358338464
 C    1.4286515968    1.8541431010   -0.1746554823
 C    1.2248438752    3.1244369280   -0.9965977152
 C    2.4449958513    4.0534918063   -1.1922674082
 C    2.2571607108    3.7324158804   -2.6708267933
 C    2.2807431435    4.6315826103   -3.8607089464
 C    3.2541408615    3.4629001570   -3.7458732570
 O    1.1607410351    2.8465011970   -2.4198999141
 H    0.0384461242    0.6294066187   -1.3912674048
 H    1.5444476148    2.0935650462    0.8870994910
 H    2.3424697096    1.3577321305   -0.5290548924
 H    0.3170781001    3.6468044211   -0.6692608879
 H    2.2941597195    5.0962759516   -0.9079749424
 H    3.3732869385    3.6843520688   -0.7496343841
 H    1.4662912277    4.5315111320   -4.5700723102
 H    2.6614567418    5.6411701075   -3.7428197430
 H    4.3010612976    3.6720103545   -3.5497274185
 H    3.0732788823    2.6021557405   -4.3809247866