20

 C   -0.0830761311    1.5720715566    0.0186353672
 C    0.0208438104    0.0511983312    0.0065444800
 C   -1.3478772021   -0.5983275324   -0.2039847681
 C    1.1086615870   -0.5594540349   -0.9435870060
 C    1.7680743391   -1.2981453455    0.2603200513
 C    0.7516191108   -0.6124493174    1.2292020911
 N    1.8871227639    0.1080846930    1.8038265892
 C    2.8376061019   -0.4258047001    0.9503560787
 O    4.0119631814   -0.2159419832    0.8117275789
 H    0.8898947853    2.0407058268    0.1932314787
 H   -0.4590743502    1.9398005514   -0.9427223187
 H   -0.7729809726    1.9179203180    0.7977175909
 H   -1.7723876623   -0.3113415340   -1.1720633353
 H   -1.2800566242   -1.6918034457   -0.1815066884
 H   -2.0525191166   -0.2917933091    0.5777996281
 H    0.6973999707   -1.2319189583   -1.6995541306
 H    1.7640143976    0.1584312327   -1.4426449394
 H    1.9358842150   -2.3709804183    0.2002514667
 H    0.1353469989   -1.1461840527    1.9557807298
 H    1.9210388871    0.9594367719    2.3479730759