23

 C   -0.7586753565    1.4700452713    0.7246395994
 C   -0.0711445288    0.2292604718    0.1389287501
 C    0.8713488339   -0.4702930462    1.1082342346
 C    2.0891672974    0.3571415278    1.5349999650
 C    2.9693565288    0.7099931061    0.4238647851
 C    3.6817840476    0.9940545043   -0.5021564356
 C    0.2876621226   -1.3824464069    2.1660109608
 C    1.0958603514   -1.9666714040    1.0283840335
 C    0.4667854567   -2.8677413958   -0.0124626365
 H   -0.0398570620    2.2573375007    0.9727473573
 H   -1.4682371465    1.8938119136    0.0072475045
 H   -1.3108924730    1.2219159847    1.6375173572
 H   -0.8414265895   -0.4753575646   -0.1886536490
 H    0.4898828261    0.5122550515   -0.7602050470
 H    1.7620384658    1.2742193815    2.0419787925
 H    2.6614910657   -0.2071884263    2.2816310165
 H    4.3185065796    1.2468316112   -1.3132393217
 H    0.7111975187   -1.3719421925    3.1655324462
 H   -0.7866958920   -1.5416433789    2.1460400758
 H    2.1056617708   -2.2717901775    1.2952434682
 H   -0.5768933753   -2.6091634790   -0.2108165424
 H    1.0094084507   -2.8199624515   -0.9631242907
 H    0.4819031077   -3.9095048114    0.3266957063