17

 C   -0.0462142832    1.4937414010   -0.3018816801
 N   -0.1537314704    0.0346272251   -0.2644487011
 C   -0.1876357248   -0.5678079031    1.0668194734
 C   -1.4216900023   -0.4906263433    0.2383967789
 C    1.3791284124    1.9335021079   -0.2238154446
 C    2.2897648775    2.3468910481   -1.1460139222
 C    3.4565708596    2.5904551199   -0.3752100792
 N    3.2693701997    2.3489673532    0.8989769770
 O    1.9453159238    1.9317629584    0.9985727893
 H   -0.4696969639    1.8432458368   -1.2486131570
 H   -0.6105075562    1.9770378231    0.5152285903
 H    0.3521553544   -1.5042218524    1.1685698231
 H   -0.1175848114    0.0938052196    1.9274094692
 H   -2.1841141038    0.2234575524    0.5460516103
 H   -1.8014489440   -1.3683515191   -0.2758349983
 H    2.1511893701    2.4547244084   -2.2085160107
 H    4.4264684226    2.9361507239   -0.7043327184