19

 O   -0.0400229897    1.3985495045   -0.0365263216
 C   -0.0070749369   -0.0039883897    0.1018488307
 C   -1.3957033026   -0.6095346096    0.0924613785
 C   -1.6118609832   -2.1257440290    0.0174712840
 C   -3.1422340328   -1.9199504374   -0.0122160935
 C   -3.3069611424   -1.0631582100    1.2553930459
 O   -2.1307125074   -0.2289807179    1.2462146982
 C   -3.2504490505   -0.9620547829   -1.2116035370
 O   -2.0774820345   -0.1340077233   -1.0759461519
 H   -0.6807714466    1.5857052106   -0.7327642729
 H    0.5756194281   -0.4819797148   -0.7017318334
 H    0.4755153194   -0.2289915001    1.0571106200
 H   -1.2058869405   -2.5754048561   -0.8907309366
 H   -1.2532653510   -2.6545487392    0.9027334429
 H   -3.7776006985   -2.8035540484   -0.0643958106
 H   -4.2057113244   -0.4357333625    1.2333718266
 H   -3.3219090408   -1.6664954586    2.1719851071
 H   -3.2183104706   -1.4867618887   -2.1748116123
 H   -4.1504235552   -0.3372029471   -1.1801349243