16

 N   -0.2546287840    1.3331494773    0.1878066068
 C   -0.1337861004    0.0932407165   -0.0109853836
 C   -1.3256246422   -0.8217481239   -0.1605701751
 C   -1.0205789635   -1.9857695517   -1.1024568881
 O    0.2067883876   -2.5936904620   -0.6997911153
 C    1.2617349081   -1.7017751472   -0.8121916426
 O    1.0964728198   -0.5272172397   -0.0073873475
 C    2.5062843998   -2.4003793378   -0.2604774662
 O    3.5162659873   -2.5465064604   -0.8890452684
 H    0.6642173386    1.7674175452    0.2987093150
 H   -1.5580712488   -1.2287149660    0.8307703052
 H   -2.1826207782   -0.2340500289   -0.4935168692
 H   -1.7861420035   -2.7618604479   -1.0506207557
 H   -0.9402247539   -1.6441154464   -2.1454012791
 H    1.4265880913   -1.3931362880   -1.8561560408
 H    2.3781481520   -2.7570246391    0.7827193946