23

 C   -0.8376230058    1.2840024585    0.2674207228
 C   -0.2362602955   -0.1039805519    0.1993978333
 C    1.1165184205   -0.3580916607   -0.4364344674
 O    1.9113750888    0.6800948594   -0.9226697515
 C    0.9364207275   -0.6000423423    1.0457894585
 C    1.6847545314    0.1790545656    2.1231365843
 C    0.8918998912    0.1975094708    3.4364993133
 C    3.0753800763   -0.4434222758    2.3228180937
 O    1.8519236954    1.5406784381    1.6615932165
 H   -0.0774727822    2.0600878558    0.3452642722
 H   -1.4274960538    1.4752728702   -0.6357795001
 H   -1.5094200348    1.3873901639    1.1270624920
 H   -0.9773160523   -0.8778186234    0.0077996845
 H    1.2132134765   -1.2289368255   -1.0793061047
 H    2.0890978167    1.2752933574   -0.1798691163
 H    0.8632956642   -1.6462923865    1.3346776164
 H    0.7175131973   -0.8191174177    3.8023629037
 H    1.4415294220    0.7420902751    4.2138470215
 H   -0.0749767875    0.6844589314    3.2903624630
 H    3.6374070839   -0.4150190954    1.3857342048
 H    3.6392302191    0.1033793800    3.0889457138
 H    2.9986133029   -1.4843978990    2.6508429848
 H    2.4381486580    1.9918057118    2.2781921209