19

 C    1.1033156418    0.0042119404   -0.2492480447
 C   -0.3600014595    0.2023215082    0.0801681219
 O   -0.7698936316    1.1550755633    0.6964926167
 C   -1.3540011979   -0.8556567083   -0.4467070865
 C   -0.8702161302   -2.2282474662   -0.4660560151
 C   -0.4630088943   -3.3635787471   -0.4667234920
 C    0.0151121143   -4.7156707596   -0.4626362845
 C   -0.5169050377   -5.7201286687   -1.4739552774
 C    0.8923197705   -5.2240046306   -1.5972477003
 H    1.4774752508   -0.8893693869    0.2603582213
 H    1.2364607880   -0.1737645663   -1.3220016952
 H    1.6725712601    0.8800321891    0.0631648534
 H   -2.2687521673   -0.7533538576    0.1459774019
 H   -1.6136912826   -0.5399530574   -1.4690522448
 H    0.2414320575   -5.1174608200    0.5208938358
 H   -0.6832791467   -6.7328782545   -1.1248184329
 H   -1.2493143041   -5.3594687713   -2.1860442933
 H    1.1189372651   -4.5256155344   -2.3938474276
 H    1.7041906738   -5.8927112420   -1.3345528366