15

 O    0.0551008271   -0.0964366683   -0.3225553657
 C   -0.0961800227    1.0193138829    0.1114722980
 C   -1.4787466258    1.4963386349    0.5527825260
 O   -1.5093013383    2.4904388628    1.5478657723
 C   -0.9350993953    3.7329562072    1.2038365008
 C    0.5351907537    3.8061698340    1.6259383963
 O    0.9728799383    4.6765946353    2.3213040701
 O    1.3410943403    2.7808079540    1.2424403842
 C    1.0730288147    2.0115442447    0.0692419945
 H   -1.9960395365    1.8385356687   -0.3627671084
 H   -2.0264463022    0.6343939959    0.9390056276
 H   -1.0456973346    3.9518171231    0.1297655941
 H   -1.4550569645    4.5103190426    1.7660511351
 H    1.9760879424    1.4282494882   -0.1112109133
 H    0.9205281834    2.6756654639   -0.7946457816