15

 C   -0.1709491422    1.5930077825   -0.0153298822
 C    0.0073016550    0.0749549201    0.0080634633
 C   -1.2793546010   -0.5862800617   -0.2122759518
 N   -2.3334044831   -1.0249131317   -0.3923246947
 C    1.2102357401   -0.6460837770   -0.7002711102
 C    2.1853305076   -0.1134730399    0.3752236590
 C    0.9118040981   -0.6539277043    1.0660340892
 O    0.9650871663   -1.8207279477    0.1614753539
 H    0.7684340661    2.1228526283    0.1460659747
 H   -0.5820899997    1.9087202504   -0.9784122550
 H   -0.8766275606    1.9009450092    0.7614759223
 H    1.3574244490   -0.8197969258   -1.7657829514
 H    3.0620185698   -0.7434308581    0.5205519419
 H    2.4204069016    0.9496529904    0.4196566042
 H    0.7010255133   -0.8370511446    2.1192168367