18

 O   -0.1455773737    0.2259529538   -0.0555678456
 C    0.0810296720    1.4170274016   -0.1193993908
 N    1.3152470203    1.9848291064   -0.1330872264
 C    2.5167177053    1.2104172259   -0.0514792478
 C    3.7593209677    1.6678886816   -0.7663240217
 C    3.7027964099    1.7118956336    0.7465386101
 C    3.6252585863    3.0236632101    1.4624431748
 C    4.4661798410    4.1759165886    1.1070273865
 O    3.0862302965    4.1309886133    0.7253788601
 H   -0.7173911412    2.1826843915   -0.1787364206
 H    1.3993203422    2.9896847428   -0.1605866967
 H    2.2861316061    0.1533943888   -0.0213449848
 H    4.3909788714    0.9286593096   -1.2456523270
 H    3.6965886926    2.6204894044   -1.2821286635
 H    4.2650576708    0.9574631186    1.2905415923
 H    3.2587531577    2.9688735217    2.4883748232
 H    4.7093543970    4.9249623912    1.8580624939
 H    5.1760735082    4.0787904865    0.2880921239