19

 O   -0.0884387657    1.5332619773    0.2006341613
 C   -0.0637831457    0.1416189856    0.0718155360
 C   -0.4441886531   -0.7552407399    1.2171000689
 C   -1.1609297031   -0.1025605882    2.4055048191
 C   -2.5582729219    0.3298339440    1.9093070566
 C   -2.8206399554    1.7661679914    1.3997776884
 O   -2.9710134480    1.3087929651    0.0383144283
 C   -2.6766392535   -0.0550248398    0.4147173675
 C   -1.3438637880   -0.6429517899   -0.0205010755
 H    0.7020090278    1.7896330566    0.6881498199
 H    0.7305500728   -0.2245324637   -0.5798438503
 H    0.1530524915   -1.6415651997    1.4047313823
 H   -1.2482155552   -0.8293450936    3.2182510757
 H   -0.5955657273    0.7488228829    2.8028703206
 H   -3.3522132430   -0.0491352287    2.5550468130
 H   -3.7435500861    2.2296116467    1.7690532625
 H   -1.9860775762    2.4663219861    1.5036371673
 H   -3.4955773707   -0.7222529015    0.1212678312
 H   -1.3666816891   -1.4321996307   -0.7639396027