16

 C   -0.0657314471    1.5248979438    0.0052549727
 C   -0.0395957039    0.0111614994    0.0090335007
 C   -1.2624649411   -0.6579575202   -0.5825080570
 N    1.2768699723   -0.5783575904   -0.2057729165
 C    0.6909663008   -0.6912359724    1.1574027975
 C    1.3530813805    0.0774714128    2.1905683729
 N    1.8552963971    0.7072587530    3.0186645026
 C    0.2061024133   -1.9781377703    1.6007491693
 N   -0.1777134000   -3.0173943146    1.9320325069
 H    0.8528024056    1.9416956338    0.4201320495
 H   -0.1694104902    1.8815041109   -1.0246033185
 H   -0.9166376833    1.8976725937    0.5829245260
 H   -1.3388375846   -0.3944753854   -1.6427148971
 H   -1.2238195739   -1.7463096336   -0.4977377069
 H   -2.1728492047   -0.3099208526   -0.0857904268
 H    1.2144656892   -1.4844769380   -0.6677911550