23

 C   -0.0178649444    1.5497738061    0.1495473670
 C    0.0004590132    0.0260723495   -0.0044849840
 C    0.7180545720   -0.4625179073   -1.2823806962
 C    0.8650799031   -1.9957783306   -1.2863254986
 C    1.7105600827   -2.5200286967   -2.4416442091
 O    1.7813593770   -3.9235449648   -2.3332285644
 C    2.5463596963   -4.5149434172   -3.3560997591
 C   -0.0778031648   -0.0233763826   -2.4964342916
 O    0.2935829785    0.7446553211   -3.3457589757
 H    0.9993791297    1.9521876745    0.1999268950
 H   -0.5202877245    2.0373740734   -0.6920181739
 H   -0.5397373273    1.8423538391    1.0654781386
 H    0.4975113260   -0.4285610143    0.8603171595
 H   -1.0267989060   -0.3633025536   -0.0017077401
 H    1.7047608449    0.0111871331   -1.3511595333
 H    1.3206617816   -2.3186819156   -0.3440092877
 H   -0.1249876678   -2.4675180936   -1.3307575156
 H    1.2723099622   -2.2301819111   -3.4126790976
 H    2.7212742282   -2.0768499596   -2.4070846440
 H    2.1262720375   -4.3077177738   -4.3531716674
 H    3.5891533342   -4.1597413012   -3.3448544922
 H    2.5396235972   -5.5945415269   -3.1876267573
 H   -1.0962562495   -0.4833649979   -2.5455068224