17

 C    0.0498746046    1.5465384262   -0.2447038909
 C    0.0145014146    0.0601310384    0.0175748874
 N    1.2930767772   -0.6728753124   -0.0124074635
 C    0.5384793928   -0.5938015086    1.2458951370
 C    1.1881999906    0.1823747375    2.3836411111
 O    0.2140462142    0.8505769685    3.1837895605
 C    2.0385452241   -0.6969284267    3.1917123786
 C    2.6822430536   -1.4495458270    3.8735362473
 H    0.9616814950    2.0010406991    0.1480245492
 H    0.0195690641    1.7438015764   -1.3215009252
 H   -0.8096843114    2.0410714568    0.2186009854
 H   -0.8439750029   -0.4449714206   -0.4252864198
 H    1.1873843570   -1.5882602560   -0.4396779346
 H    0.0160438152   -1.4895649734    1.5811422934
 H    1.8053229867    0.9746391984    1.9501731013
 H   -0.1986186197    0.1905685420    3.7515129880
 H    3.2738717841   -2.0973535786    4.4722052647