17

 O   -0.0417107586    1.3951859794   -0.0645869766
 C   -0.0119874140   -0.0189466913   -0.0614354581
 C    0.8264943356   -0.5249484903    1.0230464097
 C    1.5574067587   -0.8913908625    1.9051323906
 C   -1.3784261279   -0.6906252841   -0.1206798523
 C   -1.8016674282   -0.7485948447   -1.5928920157
 C   -0.6944767498   -0.0931484993   -2.4177392194
 C    0.2861999059   -0.7603137123   -1.4205784206
 C   -0.8540660938   -1.7791085710   -1.0320354172
 H    0.8289866277    1.7141680083    0.1958116435
 H    2.1885454713   -1.2247600668    2.6916718475
 H   -2.0919993311   -0.7797141583    0.6873414992
 H   -2.8462355732   -0.8757484893   -1.8470072139
 H   -0.6182725047   -0.5486574132   -3.4086728032
 H   -0.6630671700    0.9971825639   -2.4912560349
 H    1.3123732906   -1.0003661278   -1.6887394296
 H   -0.8929423386   -2.8535717007   -0.9441808590