17

 O   -0.2628537771    0.1593602082    0.5122241383
 C   -0.0523898205    1.2844841623    0.1385015175
 C    1.3101350335    1.8833335344   -0.0154562062
 O    1.2832801511    3.3230387051    0.1839861012
 C    1.5174642688    2.8386728708   -1.1311487070
 C    2.9270911455    3.0186263504   -1.6836570651
 C    3.8301945723    1.7819347133   -1.5054822598
 C    3.6178177406    1.0686619025   -0.1946711350
 C    2.4754450089    1.1174850161    0.4888730975
 H   -0.8709498367    1.9940528666   -0.1155721225
 H    0.6906913595    3.0207339974   -1.8188594577
 H    2.8730927042    3.2919005905   -2.7417022185
 H    3.3666611419    3.8695942478   -1.1534472060
 H    3.6608838294    1.0654488173   -2.3227354343
 H    4.8782537459    2.0853491272   -1.5998152596
 H    4.4416946478    0.4663738352    0.1794329364
 H    2.3397217748    0.5632281548    1.4109503208