20

 C   -0.0992386011    1.5483237553   -0.1831858944
 C    1.3488710990    1.9737974383    0.1082932904
 N    2.5357822904    1.9883994970   -0.7767023751
 C    2.1833869455    0.7472063395   -0.0948252237
 C    1.2689144616   -0.2568726700   -0.8226137421
 C   -0.0030305882    0.0054621759   -0.0038342016
 C    0.3070556057   -0.4354917687    1.4748674045
 C    1.7812421242   -0.4462787611    1.8830575515
 C    2.7355665380    0.1361216156    1.1462780816
 H   -0.7858697734    2.0290330890    0.5203902802
 H   -0.4435460962    1.7939589183   -1.1956752429
 H    1.5069569286    2.5752218823    0.9975957019
 H    2.2913886468    1.9149894365   -1.7621195336
 H    1.1258889184    0.0008557315   -1.8786539694
 H    1.6435424007   -1.2804798209   -0.7617203856
 H   -0.8980739246   -0.5188122326   -0.3593389319
 H   -0.2588837345    0.1957529083    2.1756752562
 H   -0.0893283672   -1.4484764942    1.6236588976
 H    2.0213234613   -0.9709475391    2.8041356486
 H    3.7870849451    0.1433511991    1.4136946578