18

 C   -0.0354068459    1.5180044726    0.0361732647
 C   -0.0142083794    0.0145932509   -0.0133985080
 C    0.4693854196   -0.7690298453   -1.2485771448
 C   -0.5794797803   -1.8092475898   -0.8337652866
 C   -0.1587202027   -2.5237956528    0.4996501906
 O    1.0887626754   -1.9863617231    0.9965527317
 C    0.3972424175   -0.7539344718    1.3011715199
 C   -0.9829379868   -1.4461595697    1.2415855688
 N   -1.3621246177   -0.7441159433   -0.0497974859
 H    0.9856841211    1.9169719589    0.0606121621
 H   -0.5488303509    1.9284343524   -0.8384561702
 H   -0.5584805124    1.8745640972    0.9308839040
 H    0.1859354297   -0.2604902554   -2.1734488820
 H    1.5149751051   -1.0794853602   -1.2828556911
 H   -1.1189473399   -2.4014609830   -1.5747833764
 H   -0.2214531558   -3.6086524932    0.5877035367
 H    0.8491429191   -0.2027288360    2.1274865630
 H   -1.6993251457   -1.5877307583    2.0500666836