20

 C    0.0093390623    1.4057363657    0.0069670654
 N   -0.0134564677   -0.0466968384   -0.0119922165
 C    0.5497325631   -0.6649020780   -0.9597174818
 O    1.2053837792   -0.0854832206   -2.0211310195
 C    1.7261100155   -1.1107054117   -2.8862842839
 C    3.2358872427   -0.9400253296   -3.0418497192
 C    1.2955850225   -2.3932470903   -2.2303818799
 C    0.6162484565   -2.1312543952   -1.1108876464
 C   -0.0030657882   -3.0521622896   -0.1147055852
 H    0.7599348451    1.8518625973   -0.6557642658
 H   -0.9758835214    1.7932459694   -0.2835225007
 H    0.1922094963    1.7460224149    1.0318023983
 H    1.2452569221   -0.9842332943   -3.8677922950
 H    3.7344751140   -1.0523927422   -2.0751118182
 H    3.6325756665   -1.6932560074   -3.7300821236
 H    3.4658780371    0.0501440577   -3.4442210746
 H    1.5323155702   -3.3676882613   -2.6384707309
 H    0.4227555521   -2.8824128997    0.8795828034
 H   -1.0759223684   -2.8527252948   -0.0256693478
 H    0.1427484906   -4.0993999921   -0.3899891681