23

 C    0.0237060250    1.6087619822    0.1417216874
 C   -0.0465714831    0.0815236764    0.2250060017
 C   -1.4344813526   -0.5201326254    0.0568073336
 C   -2.6496672745    0.2844392420    0.2471265145
 O   -2.1766346162   -0.0263583817   -1.0782710222
 C   -1.5665845211   -2.0552355519    0.2132453288
 C   -0.5263307183   -2.7900920895   -0.6506071447
 C   -1.4559795075   -2.4681085695    1.6831653051
 O   -2.8701879078   -2.4464183377   -0.2071585565
 H    1.0661890540    1.9384328802    0.1166458180
 H   -0.4677961370    1.9676172225   -0.7668438744
 H   -0.4511843658    2.0878585641    1.0032290327
 H    0.5967975890   -0.3452406728   -0.5527271027
 H    0.3673021011   -0.2589684941    1.1815925786
 H   -3.5726125830   -0.2152216259    0.5275476957
 H   -2.5757471657    1.3335589388    0.5199171581
 H    0.4966603077   -2.6393742877   -0.2941561225
 H   -0.7440325117   -3.8610215123   -0.6294478521
 H   -0.5810188442   -2.4514270610   -1.6907752282
 H   -2.2027158483   -1.9440149061    2.2857987008
 H   -1.6389914720   -3.5425862222    1.7731966482
 H   -0.4634516232   -2.2553616188    2.0891420752
 H   -3.0367203845   -1.9554439197   -1.0243955451