18

 O   -0.0784649235    1.3206102485    0.0832888702
 N    0.0195208316   -0.0722731667    0.2504546423
 C   -1.0933758193   -0.6326324782    0.0485166664
 C   -2.5065743475   -0.2619814603   -0.3199654239
 O   -2.8674527267   -1.6637329334   -0.2590296094
 C   -1.5277996081   -2.0752172145    0.0964774785
 C   -0.7981917604   -3.1511553037   -0.7423756967
 C   -0.1813361674   -3.6897532889    0.5781745504
 C   -1.2895960857   -2.9332222517    1.3616750530
 H    0.8216880083    1.6128111611    0.2633042894
 H   -3.0466738267    0.3486348216    0.4137687309
 H   -2.6418649523    0.1690705015   -1.3193735408
 H   -1.5326707642   -3.8427250447   -1.1646893668
 H   -0.1286907728   -2.8032368832   -1.5314837453
 H   -0.1339627570   -4.7728411424    0.7014219541
 H    0.8082292028   -3.2673033409    0.7655338317
 H   -1.0188609305   -2.4084488476    2.2799808845
 H   -2.1654431705   -3.5620955167    1.5446701317