23

 C   -0.1504805355    1.5884514408    0.1147795073
 C    0.0575306095    0.0798816389   -0.0612844814
 C    0.7161934743   -0.5673666311    1.1507889334
 C   -0.0674451595   -0.6450115124    2.4890385023
 C    0.5895589999   -2.0357438129    2.7513824438
 C   -0.1973490582   -3.0794619833    3.3737952788
 C   -0.8640271912   -3.9445810522    3.8791856584
 C    0.9235306776   -2.1187431059    1.2134365814
 C   -0.0496457108   -2.9626424985    0.3971467908
 H    0.8031362827    2.1036879942    0.2758136082
 H   -0.6234300599    2.0305534813   -0.7675313964
 H   -0.7908459223    1.8025876467    0.9772754839
 H   -0.9090348452   -0.3993874115   -0.2580810119
 H    0.6757464132   -0.1014483693   -0.9507450833
 H    1.6825280284   -0.0791303150    1.3304496892
 H    0.1022898906    0.1302618060    3.2392326828
 H   -1.1442042491   -0.7448418297    2.3252978827
 H    1.5204928920   -1.8988208509    3.3122871938
 H   -1.4489706530   -4.7064292799    4.3313929126
 H    1.9460539944   -2.4482175840    1.0054379558
 H   -1.0931324732   -2.6928265391    0.5869217794
 H    0.1389656913   -2.8481909820   -0.6751829906
 H    0.0602073939   -4.0213772400    0.6502124990