22

 C    0.1331953354    1.4339920170   -0.2969364626
 C    0.0584712488   -0.0172336922    0.1810975674
 O    0.6479069541   -0.1621343907    1.4753779485
 C   -1.3604204866   -0.5500601964    0.1649277074
 C   -1.9604867143   -1.1410751826   -1.0929643280
 C   -1.6296425097   -2.0301057465    0.0771192515
 N   -0.5034721516   -2.9096288160   -0.0634862869
 C   -0.1247772918   -3.6744661962    1.1184892454
 C   -0.7797486764   -4.3424658035   -0.0414792960
 H    1.1649755577    1.7938443200   -0.2568227175
 H   -0.2345844584    1.5310185072   -1.3231426090
 H   -0.4806096804    2.0854251129    0.3388311208
 H    0.6719953979   -0.6503256434   -0.4658926134
 H    0.1517434968    0.3970677675    2.0835436175
 H   -2.0465009831    0.0136926019    0.7963921521
 H   -3.0001835709   -0.9385642850   -1.3247964488
 H   -1.3097228005   -1.2314118759   -1.9563468646
 H   -2.4680965517   -2.4109081316    0.6683099844
 H    0.9421430481   -3.7779975748    1.2907480659
 H   -0.7205433942   -3.5431680630    2.0197311876
 H   -1.8143271031   -4.6583835670    0.0836695755
 H   -0.2007687361   -4.9473834516   -0.7337168072