14

 N   -0.2166164276    1.3277029134    0.0513599349
 C   -0.4274066566    0.1389819852   -0.3026630613
 O   -0.2341793968   -0.8649623524    0.5986019682
 C   -0.6565496267   -2.1129458278    0.2461052991
 C   -1.8087417327   -2.5841316052   -0.3344850825
 C   -1.6664563898   -4.0034126641   -0.4067009313
 C   -0.4507295014   -4.3354468111    0.1361170005
 N    0.1649501187   -3.1667905204    0.5294316503
 H   -0.3769385390    1.9568493045   -0.7326174990
 H   -0.7536292772   -0.2325940155   -1.2804018564
 H   -2.6559041771   -1.9921645519   -0.6411809091
 H   -2.3901991584   -4.6968671443   -0.8057029824
 H    0.0278675656   -5.2890552066    0.2846037502
 H    1.0678799490   -3.0759922138    0.9620055986