19

 C   -0.0004240695    1.3257782088   -0.0207326246
 O   -0.0886734061   -0.0875954513   -0.0998139802
 C   -1.3751004272   -0.5671148464   -0.0821179146
 C   -2.5491396844   -0.3184190948   -1.0587752867
 O   -2.4198195517   -0.6370381079   -2.4190528656
 C   -3.0881407686   -1.3587213284   -0.0510198284
 C   -1.7004557132   -2.0892429755    0.0754300787
 C   -1.7175825988   -1.9995919089    1.6145452428
 C   -2.3599632000   -0.6749785977    1.1533391917
 H    1.0612176800    1.5797671054   -0.0424263642
 H   -0.5014570732    1.8089447858   -0.8699186823
 H   -0.4411634732    1.7046330935    0.9119118619
 H   -3.0231154307    0.6675589760   -1.0181927798
 H   -1.9226335534   -1.4591943940   -2.4931517023
 H   -4.0652061255   -1.8351376837   -0.0113126593
 H   -1.3298654050   -2.8988447213   -0.5558433867
 H   -2.3686965116   -2.7048341855    2.1397336528
 H   -0.7452200056   -1.9271804032    2.1091988548
 H   -2.7558893224    0.1507423188    1.7454221218