19

 C    0.1288821782    1.5250359783    0.0329231346
 C   -0.0065097654    0.0317568187   -0.0505117034
 C    0.5995280288   -0.8034889015   -1.1908359691
 C    0.7646087040   -2.1208714679   -0.5634167677
 C    1.0235569112   -1.9215263665    0.9184344767
 N    0.2282197324   -0.7354499927    1.2812780013
 C   -1.2218424419   -1.1564270881    1.2667519393
 C   -1.2978202022   -0.7992537760   -0.2044507533
 N   -0.5710670391   -1.7640568422   -1.1392278476
 H    1.1679713976    1.8054550625    0.2389165811
 H   -0.1722925587    1.9972153536   -0.9083912760
 H   -0.4908717742    1.9332452705    0.8367309303
 H    1.0391423677   -0.4530262262   -2.1185555457
 H    1.2347740527   -2.9362542526   -1.1052351844
 H    0.7327719955   -2.7673220785    1.5490780145
 H    2.0949891771   -1.7416268166    1.0790550035
 H   -1.4019210117   -2.1962885745    1.5576639393
 H   -1.8215539796   -0.4967986234    1.9029945703
 H   -2.2144713824   -0.4505954370   -0.6842817037