16

 O    0.1723859852    1.0797841989   -0.5759659816
 C    0.7348678627    2.2105028346   -0.1040979175
 C    1.2514486598    2.5631402997    1.0838444306
 C    1.2954779050    2.0021383716    2.4246337757
 C    0.3429636102    1.4174090141    3.1745056330
 C   -1.0071277435    1.0000784003    2.7954547780
 N   -1.3667277825    0.1529894282    1.9097294817
 C   -0.4821677301   -0.5460075706    1.1083145493
 C    0.2082372787   -0.1521479609    0.0360458139
 H    0.7828580235    2.9269657453   -0.9190019682
 H    1.7478450599    3.5308995118    1.0264589640
 H    2.2034848128    2.2725511133    2.9633340398
 H    0.5549234048    1.2925319815    4.2358145608
 H   -1.8154823829    1.4071074335    3.4119442690
 H   -0.4488534767   -1.6128991641    1.3230317004
 H    0.7337775429   -0.8823036573   -0.5695210289