24

 C    0.0152867054    1.6279014181    0.0961224923
 C   -0.0054594110    0.0987399089   -0.0132662287
 C    0.7021128484   -0.4596558711   -1.2640025266
 C    2.1757563572   -0.0301441560   -1.3215288138
 C    0.5817397512   -2.0150923438   -1.3328985152
 C   -0.8691414762   -2.5578373821   -1.3363725724
 C   -0.9555953372   -4.0846932499   -1.4126581930
 C    1.2869428689   -2.5202712859   -2.5184935344
 N    1.8210115931   -2.9154409234   -3.4650206508
 H    1.0252509033    2.0200068853    0.2423443188
 H   -0.3973479026    2.0942384839   -0.8056296595
 H   -0.5904607588    1.9582915962    0.9454115292
 H    0.4564783709   -0.3393016142    0.8830026869
 H   -1.0505601334   -0.2254626431   -0.0088472457
 H    0.1920990842   -0.0592842354   -2.1515413964
 H    2.6785517231   -0.4446267980   -2.1987069087
 H    2.2674623783    1.0571355927   -1.3712330665
 H    2.7165681476   -0.3709712874   -0.4300482341
 H    1.1007238333   -2.4315897549   -0.4570689026
 H   -1.3632813561   -2.2169204227   -0.4231562796
 H   -1.4098157645   -2.1080318497   -2.1776214435
 H   -0.5032543643   -4.4668976506   -2.3320149153
 H   -0.4409338350   -4.5526834283   -0.5660995201
 H   -1.9993539060   -4.4110044389   -1.3882446103