23

 C   -0.0351093244    1.4666996296   -0.1863617917
 C   -0.1077870122   -0.0039746473    0.1360246498
 O    1.1064508832   -0.7586363715    0.0623597300
 C    0.4598122200   -0.6377609013    1.3409912129
 C    1.1873997177    0.0906739173    2.4182303683
 C    0.7302305376   -0.0325527889    3.8595891714
 C    2.0551722507   -0.6225454267    3.4436317261
 C    2.2032707355   -2.1322864156    3.4036190127
 C    3.3160681084    0.1016376225    3.8787110985
 H    0.8318220500    1.9433629490    0.2749579788
 H    0.0397094554    1.6101109149   -1.2695099573
 H   -0.9410797966    1.9781437098    0.1568351688
 H   -0.9615694661   -0.5139194949   -0.3179429210
 H   -0.0241780835   -1.5607823213    1.6650085188
 H    1.5557045002    1.0675798358    2.1224266466
 H    0.7194318060    0.8636244905    4.4711592540
 H   -0.0862425559   -0.7179921709    4.0671312564
 H    1.2698751530   -2.6387662681    3.1459391329
 H    2.9597582509   -2.4349650910    2.6707049399
 H    2.5197730582   -2.5092526348    4.3832470710
 H    3.6206575803   -0.2101835682    4.8849903824
 H    4.1479711247   -0.1134678948    3.1980595366
 H    3.1704787972    1.1863782156    3.8962371541