17

 O    0.0077893507   -0.0044306324    0.4438067378
 C   -0.0396571410    1.1404424425    0.0617099986
 C   -1.3478751846    1.7766198392   -0.4165300331
 O   -1.3180426865    3.1943834434   -0.3979167298
 C   -0.2313714350    3.7623823476   -1.0810052625
 C    0.9768790953    4.2242233106   -0.3193389888
 C    1.1758233315    3.3167444172    0.8954854813
 C    1.1611111802    2.0543678417   -0.0514301551
 C    1.0483421141    3.0072243149   -1.2595240295
 H   -1.5578480740    1.3884156879   -1.4270127562
 H   -2.1667914741    1.4639221470    0.2352898915
 H   -0.5365168067    4.3929159769   -1.9127213240
 H    1.3895232719    5.2175172063   -0.4457385023
 H    2.1581959753    3.4306214693    1.3556261998
 H    0.4057520851    3.3672606330    1.6695735024
 H    2.0766658938    1.4674675341    0.0076586195
 H    1.5358173439    2.8744837110   -2.2175082195