19

 C    0.0146939220    1.6311055406   -0.0408830827
 C    0.1258803046    0.1164519844    0.0989474553
 C    0.6846668645   -0.6101370327   -1.1540361947
 N    1.6094420392   -1.6381936254   -0.6597939307
 C    1.7734043846   -1.3895506008    0.5941464762
 C    2.7399417674   -2.2517063495    1.3340258748
 O    3.0701290905   -2.1277858076    2.4888341469
 N    1.0974660660   -0.3108878610    1.1235927846
 C    0.7641493044   -0.1498912050    2.5273624987
 H    0.9890562933    2.0672088432   -0.2818554245
 H   -0.6861914340    1.8840390342   -0.8430454755
 H   -0.3545649853    2.0981849863    0.8772358299
 H   -0.8645036776   -0.2909088351    0.3667371264
 H   -0.0949520059   -1.0572541321   -1.7772223926
 H    1.2459586076    0.0868321668   -1.7930625673
 H    3.1456986534   -3.0453169341    0.6778853729
 H    1.5588473746   -0.5716125468    3.1392416365
 H    0.6624207859    0.9134197420    2.7651238969
 H   -0.1866447553   -0.6466998173    2.7800180088