18

 C   -0.1445774207    1.6390108694    0.1050366571
 C    0.0003166388    0.1055810814    0.0463252365
 C    0.7991965043   -0.4607828065    1.2388014222
 C    2.2796769913   -0.1360513760    1.1637471080
 O    2.8155691054    0.2590250521    0.1493623554
 C    3.1160041812   -0.3406779779    2.4181804240
 O    4.4695358251   -0.1086166692    2.1780138052
 C   -1.3152876855   -0.5371355259   -0.0200231651
 N   -2.3545984134   -1.0412052731   -0.0591750424
 H    0.8448743059    2.1002855786    0.0953573531
 H   -0.7056660190    2.0069562258   -0.7568517513
 H   -0.6740133137    1.9456121932    1.0119386378
 H    0.5458655531   -0.1554950706   -0.8672747021
 H    0.3877449295   -0.1071434366    2.1914272190
 H    0.7148704072   -1.5550862569    1.2667487116
 H    2.7183643743    0.3368770099    3.1944491888
 H    2.9465158207   -1.3635501441    2.7920350367
 H    4.5200126756    0.1949863065    1.2580271255