17

 N    0.1122468620   -1.0760178070   -0.1388489065
 C    0.0577328580    0.0340005323    0.1759003889
 C   -0.0336672752    1.4480451451    0.5527257020
 N    1.2366492331    2.1219682166    0.2790466387
 C    1.5693428578    2.6322423294   -1.0456471956
 C    0.4544205238    2.8724237464   -2.0464341680
 O   -0.5539922916    3.6050625932   -1.3496657108
 C    0.0511743785    4.3311745373   -0.2824055487
 C    1.3077509414    3.5665120085    0.0912092560
 H   -0.9030646203    1.8831243398    0.0415885834
 H   -0.2174206756    1.5052506478    1.6315276297
 H    2.5613859744    2.3913196692   -1.4147720238
 H    0.8501067044    3.4426461239   -2.9012740543
 H   -0.0116946313    1.9590541129   -2.4311671403
 H    0.3288850478    5.3515013565   -0.5908487018
 H   -0.6897506330    4.4100543270    0.5210511328
 H    2.0883908658    4.0820918910    0.6428574485