16

 C   -0.1768931397    1.5036227815   -0.0059813097
 C    0.0921020143    0.0026675791    0.0410661536
 C    0.9535098437   -0.5207645228   -1.1195984337
 O    1.5550564779   -1.7338944083   -0.6429137789
 C    1.5628360036   -1.7538736856    0.7268969069
 N    2.0432660372   -2.6878448673    1.4264061575
 C    0.9067758681   -0.4935333277    1.2462787550
 H    0.7595434328    2.0721138135    0.0246725790
 H   -0.7104629813    1.7842836434   -0.9203525557
 H   -0.7882818686    1.8211162119    0.8441602989
 H   -0.8626767309   -0.5373594546    0.0224787439
 H    0.3851450524   -0.7579477637   -2.0223754354
 H    1.7452930833    0.1948191340   -1.3823685737
 H    2.4391163642   -3.4143325784    0.8266714029
 H    1.6876223914    0.2318156137    1.5100872907
 H    0.3232855915   -0.6925222086    2.1455009187