21

 C   -0.0352923054   -1.2390948979   -0.0894191640
 C   -0.0433481266   -0.0386196984   -0.0260923484
 C   -0.0176392941    1.4169458133    0.0502336110
 C    1.4098071707    1.9994447441   -0.0190178675
 C    1.4409574265    3.5277960810    0.0482778384
 C    0.9260824298    4.1395442621    1.3836361539
 C    1.8052883080    5.3521420701    1.5762630689
 C    2.8495634143    5.3490414635    0.7501661916
 C    2.8599053430    4.1332540553   -0.1443927049
 H   -0.0410233844   -2.2992262227   -0.1442513049
 H   -0.6204664300    1.8364002917   -0.7665519097
 H   -0.5034910311    1.7389783485    0.9800539962
 H    2.0060671594    1.5811958082    0.8014840350
 H    1.8814276320    1.6588535794   -0.9482086063
 H    0.8067134743    3.9212353285   -0.7569804424
 H   -0.1411377856    4.3868720658    1.3486654826
 H    1.0493662736    3.4358611104    2.2215468287
 H    1.6062335061    6.1029506566    2.3332618765
 H    3.6347947061    6.0969362660    0.7295111546
 H    3.6436195012    3.4276392521    0.1710415597
 H    3.0691799721    4.3696032923   -1.1941480991