25

 C    0.0306853035    1.5045536502    0.1227104817
 C   -0.0113340871   -0.0151130744    0.0156062747
 C    0.3822272535   -0.7018801789    1.3252599216
 O   -1.3345847716   -0.3454595924   -0.4064605249
 C   -1.5166233337   -1.6677442500   -0.8153542009
 C   -2.3259877967   -2.6262973180    0.0396175205
 C   -2.8525987193   -2.2172656392    1.3977758728
 C   -2.9032483429   -2.0529399477   -1.2501261881
 C   -4.0276119277   -1.0386195098   -1.2599183280
 H    1.0361294030    1.8453198908    0.3867769519
 H   -0.2569216522    1.9623145254   -0.8272454631
 H   -0.6649522957    1.8500530667    0.8942452687
 H    0.6903822050   -0.3382452352   -0.7725161004
 H   -0.2846364446   -0.3938837682    2.1367896934
 H    0.3334460254   -1.7901513777    1.2338856910
 H    1.4072010634   -0.4316136133    1.5996964394
 H   -0.6723703625   -2.0670285385   -1.3794255280
 H   -2.0215047137   -3.6690286867   -0.0204495735
 H   -2.9792333648   -1.1352075632    1.4693933046
 H   -3.8190476280   -2.6885218506    1.6087175384
 H   -2.1586483166   -2.5186194681    2.1900143724
 H   -2.9410208229   -2.7521998158   -2.0820818106
 H   -3.8850332222   -0.2663714761   -0.5027011630
 H   -4.0775962979   -0.5342756128   -2.2309807126
 H   -4.9961521438   -1.5199044268   -1.0852485378