17

 O   -0.0086702342    1.1655149849   -0.5202085435
 C   -0.0490442033   -0.1511658327   -0.0809637491
 C   -0.3554924040   -0.3689613585    1.3623000171
 C   -1.3947814984   -0.7632997880    0.3115638209
 C   -2.5786812485    0.0142641002    0.1198798661
 C   -3.5592694646    0.6847162612   -0.0934866820
 C   -4.7477696415    1.4562615553   -0.3273547360
 C   -4.7426251038    2.9319127413   -0.2773216429
 O   -4.8017931085    2.2546340356   -1.5256830071
 H   -0.6231228551    1.2593833999   -1.2574297573
 H    0.6571691965   -0.8248095414   -0.5657620558
 H    0.1419024813   -1.1716853658    1.8942887094
 H   -0.5679235147    0.5203084243    1.9429056964
 H   -1.5015265804   -1.8279087934    0.1239463183
 H   -5.6859744066    0.9506217683   -0.1008179399
 H   -5.6498409219    3.4557221895    0.0219466435
 H   -3.8076399724    3.4465349091   -0.0639653682