11

 O   -0.0406416989    0.0074226128    0.0033913446
 C   -0.0081839397    1.1918893743    0.0165952338
 O   -1.1521167461    1.9865684160   -0.0333691183
 C   -0.7107691418    3.2870200629   -0.0114973863
 N    0.5318694905    3.5202253790    0.0409036121
 C    1.1715554902    2.1912139834    0.0620912693
 C    2.0333947211    1.9831164588    1.2151119170
 C    2.7344563827    1.7968711727    2.1707509681
 H   -1.4998302975    4.0284334188   -0.0456065651
 H    1.7524568073    2.0640522258   -0.8616820392
 H    3.3589552221    1.6334638456    3.0144490140