17

 N   -0.1103591878    1.3410904724   -0.1074950372
 C    0.8708470411    2.3207174696   -0.1394737891
 C    2.1869955596    2.2875235712   -0.4445397025
 C    3.1588171653    1.2681551258   -0.7111379184
 C    3.4836633644    0.1107979479   -0.0760664713
 C    2.9658201084   -0.5159655797    1.1004201179
 C    1.7086500834   -0.7800691198    1.5527252596
 N    0.4953315568   -0.7704400051    0.9538125473
 C   -0.2053100922    0.0114715067    0.2381300506
 H   -1.0131402330    1.7052872765   -0.3746826723
 H    0.4262373785    3.3067143205   -0.0374970425
 H    2.5872743267    3.2919418105   -0.5815227232
 H    3.8761993412    1.5774601506   -1.4707711722
 H    4.4110028453   -0.3407042474   -0.4289895085
 H    3.7403756308   -0.9604064384    1.7244992272
 H    1.6686984818   -1.3154137432    2.5024597479
 H   -1.1558238601   -0.3893171380   -0.1233081034