21

 C    0.5048640366    1.5141684624   -0.2060083826
 C    0.1044386579    0.0849047772    0.0095443816
 C   -1.1385634772   -0.3557685008    0.7690627242
 C    0.2085706113   -0.8555298074    1.2023793045
 O    0.5904589004   -1.9682978686    0.3761094697
 C    0.5972461750   -1.1108627040   -0.7977286641
 C    0.8058447462   -0.7796979847    2.5549126033
 C    1.0900856332   -2.0596102906    3.3089861416
 C    2.2298564719   -1.2249072154    2.7837154278
 H    1.5835762270    1.6069556591   -0.3754713563
 H   -0.0079366017    1.9478561859   -1.0735166145
 H    0.2505241256    2.1300373588    0.6626526795
 H   -1.5749150345    0.4177046416    1.3951870765
 H   -1.8533650926   -1.0465044629    0.3274391232
 H   -0.0498517985   -1.4972939991   -1.5950937213
 H    1.6186355156   -0.9886526788   -1.1788282243
 H    0.4503020503    0.0605511517    3.1434279892
 H    0.9006459578   -2.0741432291    4.3764214523
 H    0.8800636443   -2.9907311398    2.7958906180
 H    2.7672280032   -1.6115907558    1.9256051953
 H    2.8333410083   -0.6643280897    3.4889423164