13

 O    0.0655935163    1.3247711208    0.0069649065
 C   -0.0510735335   -0.0719536971    0.0027899635
 C   -1.5253498124   -0.4309256475    0.0144736260
 O   -2.4555030926    0.3229112638    0.0268348960
 O   -1.6511848358   -1.7857344793    0.0089129384
 C   -3.0063357168   -2.2441402785    0.0193842112
 C   -2.9890099297   -3.7052915743    0.0108149751
 N   -3.0122268323   -4.8593107629    0.0043407963
 H    1.0015521434    1.5452199518   -0.0002665771
 H    0.3952999836   -0.5441555270   -0.8865842044
 H    0.4106857116   -0.5506488029    0.8807977654
 H   -3.5282652541   -1.8771392375    0.9090664059
 H   -3.5453437678   -1.8669741795   -0.8557385130