15

 C   -0.0421579363    1.4346985798    0.0586719758
 N    0.0439500825   -0.0042309252   -0.0729358167
 C    0.6333482724   -0.6184900482   -1.1039275060
 N    1.1898346158    0.0359880136   -2.0953432847
 C    1.7514060756   -0.7272106357   -3.0754067336
 N    1.8056186881   -2.0244079603   -3.1523101815
 N    1.2168062499   -2.6703008225   -2.1038164653
 C    0.6020922830   -2.1025737855   -1.0272341318
 O    0.0865152610   -2.7253057611   -0.1082879134
 H    0.9553596602    1.8853117420    0.0872199309
 H   -0.5817027882    1.8730694845   -0.7872409821
 H   -0.5699422246    1.6725296711    0.9830918029
 H   -0.3441061002   -0.6261940862    0.6216512080
 H    2.2134427458   -0.1928744652   -3.8985321621
 H    1.2499768751   -3.6798128911   -2.1476975802