16

 O   -0.1277358406    1.4593822302   -0.1623134092
 C    0.0016173334    0.0810164988   -0.0537379204
 C    1.1036472332   -0.5155593565   -0.9261416387
 C    2.4038556426    0.0435793324   -0.5679063917
 C    3.4420479195    0.5543199650   -0.2413705523
 C   -0.3543350194   -0.5607668743    1.2548181961
 C   -1.3083416458   -0.6694664259    0.0597936147
 C   -2.5532865921    0.0452090852    0.0714776798
 N   -3.5712479782    0.5937786083    0.0748681555
 H    0.7056216267    1.8516331265    0.1284206355
 H    1.1186601621   -1.6067098292   -0.8228048035
 H    0.8806981536   -0.2926847064   -1.9766112132
 H    4.3762346982    0.9803244307    0.0313531542
 H    0.1493906987   -1.4688082230    1.5662578236
 H   -0.6614253678    0.1044061856    2.0524750556
 H   -1.3609242640   -1.6332468773   -0.4365093661