20

 C    0.1645219531    1.4855229159    0.0013165625
 C    0.1543490826   -0.0288981978   -0.0330603611
 C   -0.1267445266   -0.6093814737   -1.4065012729
 C    0.0907528999   -2.1277839085   -1.4856683949
 C    0.0333335620   -2.7433985839   -0.1062441974
 C    0.8909677311   -2.2411134062    1.0256879868
 C   -0.6102527364   -2.0908444224    1.0908084837
 N   -0.5359760831   -0.5768602390    1.1675236443
 C    0.9615571897   -0.7045640403    1.0179953475
 H    0.9958449145    1.8810689113   -0.5926862891
 H   -0.7693436679    1.8828662302   -0.4111914220
 H    0.2604713375    1.8505796195    1.0269819888
 H   -1.1680473370   -0.3598279512   -1.6485316369
 H    0.4905577406   -0.0905382703   -2.1476882814
 H   -0.6625781200   -2.5833269134   -2.1367374517
 H    1.0663142657   -2.3551165296   -1.9319941608
 H   -0.0793456121   -3.8250128845   -0.0843584834
 H    1.5531318923   -2.8688934148    1.6068099642
 H   -1.3486790244   -2.5771959020    1.7159007988
 H    1.6249287484   -0.1513240494    1.6772924551