16

 C   -0.1526612507    1.4904006090    0.2564099344
 O   -0.2945607217    0.0851122214    0.5222979281
 C   -1.0921593675   -0.5857569608   -0.3223053601
 O   -1.6712800694   -0.0811821722   -1.2557867648
 C   -1.1891643536   -2.0369112137    0.0308764359
 C   -2.5909187484   -2.5991292931    0.0475219052
 N   -1.7094480230   -2.9170749745   -1.0500142437
 C   -0.1642778782   -2.6706903211    0.9314202978
 O   -0.2826083569   -3.7878267446    1.3642368009
 H    0.5275841230    1.8663478635    1.0197364587
 H    0.2605580794    1.6499860897   -0.7419939269
 H   -1.1217860471    1.9897719288    0.3238212711
 H   -2.7659072179   -3.4114076676    0.7462260771
 H   -3.4006352611   -1.8919703007   -0.1072131309
 H   -1.9234918809   -2.2988126701   -1.8344094624
 H    0.7109800141   -2.0391528641    1.1760138196