10

 C    0.0929186830   -3.7450468636   -0.0196906936
 C    0.0509412853   -2.5383673220   -0.0122490553
 C    0.0043091290   -1.1827037830   -0.0039280805
 C   -0.0412938370    0.0271577667    0.0035355798
 C   -0.0678424806    1.4311463482    0.0118439936
 N   -1.1522557447    2.1707051591    0.0299296114
 O   -0.7027702115    3.4355966373    0.0311289552
 N    0.7019462758    3.4241754979    0.0125411234
 N    1.0754684790    2.2307342561    0.0009545770
 H    0.1301257317   -4.8072270666   -0.0262169610