18

 C    0.0957109179    1.6223256279   -0.0919509154
 C    0.0957751731    0.1081341726    0.0374334445
 N    0.6937245720   -0.6608575690   -1.0815577787
 C   -0.1898676461   -1.2580749838   -2.0605510041
 C    1.4365632510   -1.5794212341   -0.1808248250
 C    2.8066560836   -1.8916944018   -0.5261464180
 C    3.9506873386   -2.1463372825   -0.7920082723
 C    1.1242315760   -0.5614861486    0.9581511610
 O    1.5427122758   -0.3671226560    2.0546358094
 H    1.0946508239    1.9842429111   -0.3474750600
 H   -0.5993664351    1.9455266882   -0.8732920352
 H   -0.2156064715    2.0802367108    0.8518054779
 H   -0.9130957477   -0.2565087002    0.3096654375
 H   -0.7205770420   -0.4725821053   -2.6072445003
 H    0.3966365148   -1.8315207215   -2.7845310459
 H   -0.9418477298   -1.9340410690   -1.6103497463
 H    0.8762945661   -2.5099382675    0.0321821698
 H    4.9624542294   -2.3661248912   -1.0284274890