17

 O   -0.0695969279    1.4047981883    0.0262308073
 C   -0.0108068391    0.0210555258   -0.0509015693
 C    0.2483938199   -0.8116508446   -1.3350332252
 C   -0.3553090062   -1.9243484655   -0.4535915396
 O    0.6508487451   -2.1023301524    0.5643235031
 C    0.7248474564   -0.7605389168    1.0874852233
 C   -0.2788885941   -0.7001313779    2.2340015768
 O   -1.5342649894   -0.9485510245    1.5717661728
 C   -1.2797233459   -0.8277660051    0.1956323281
 H    0.8210134974    1.7594570735   -0.0732821497
 H   -0.3999583255   -0.4958405283   -2.1552359337
 H    1.2746699850   -0.9647299338   -1.6729116623
 H   -0.7000079704   -2.8858626277   -0.8252894936
 H    1.7543072860   -0.4809326153    1.3216729817
 H   -0.0979713224   -1.4846512844    2.9737426432
 H   -0.2984665452    0.2814713849    2.7280410644
 H   -2.1834085338   -0.5682958463   -0.3537104173