18

 O    0.1212286481    1.4742769005   -0.0628494587
 C    0.0941970076    0.0558259371   -0.0350185908
 C    0.7462141611   -0.5400250500    1.2334630170
 C   -0.0215315998   -0.2011481448    2.5532925003
 N   -1.4508574332    0.1362597295    2.4379253449
 C   -1.9353203583   -0.0751792963    1.3005487446
 O   -3.1319165675    0.3439571415    0.7804507664
 C   -2.5885839779    0.1956135652   -0.5856018988
 C   -1.3355523871   -0.4984031930   -0.0125925435
 H   -0.2717316013    1.8008924860    0.7557895439
 H    0.6451107372   -0.2563170205   -0.9266222685
 H    0.7980384871   -1.6266726219    1.1001976251
 H    1.7756502916   -0.1797241782    1.3163365090
 H    0.0928761200   -1.0302407334    3.2606081823
 H    0.4508367213    0.6607543703    3.0391708801
 H   -3.2516419097   -0.4051615894   -1.2099000155
 H   -2.4084151251    1.1792109217   -1.0242565757
 H   -1.3387318842   -1.5788024542   -0.1752637820