21

 O    0.0376839459    1.4238882140   -0.1560172102
 C    0.0359257856    0.0150030087   -0.0097679293
 C    0.6100000686   -0.4990767257    1.3254798005
 C    0.0150081768   -1.9107959322    1.4775723401
 C   -0.4804411202   -2.3275114090    2.8780766046
 O   -1.6967568891   -3.0279913059    2.6666832900
 C   -2.3816011889   -2.3223312524    1.6424414233
 C   -1.3021393094   -1.9119089889    0.6199839155
 C   -1.4064582901   -0.5055734845    0.0030629831
 H    0.9513703939    1.7185205223   -0.2192795154
 H    0.5827523563   -0.4565131416   -0.8438783904
 H    1.7043247195   -0.4835323455    1.3536424007
 H    0.2500637653    0.1654742002    2.1211527190
 H    0.7093432269   -2.6642132671    1.0968918377
 H    0.1988697692   -2.9955273130    3.4137574879
 H   -0.6529602009   -1.4348053237    3.5037831272
 H   -3.1515793580   -2.9855856906    1.2402957896
 H   -2.8771355506   -1.4269421403    2.0556923746
 H   -1.2362011041   -2.6708846662   -0.1638284878
 H   -1.9957518668    0.1623805493    0.6438797711
 H   -1.8644594598   -0.4936921280   -0.9890466019