21

 C    0.0512633425    1.5834458040    0.1614261708
 C   -0.0098960332    0.0561873791    0.0588949216
 C   -1.4444077092   -0.4952383909   -0.0233803866
 C   -2.1110364315   -0.0753128951   -1.3206274891
 O   -3.2310382281    0.3552447524   -1.4189685575
 C   -1.4674248089   -2.0299710429    0.0428652800
 C   -1.1489510187   -2.6772589425    1.4126322540
 O   -2.4439188528   -3.3014581480    1.4722094323
 C   -2.8437408807   -2.7147823216    0.2163138106
 H    1.0864693417    1.9325302604    0.2168827669
 H   -0.4160144598    2.0651915225   -0.7043726070
 H   -0.4715142721    1.9394777580    1.0553532082
 H    0.5521877559   -0.2818578745   -0.8225720163
 H    0.4904982646   -0.3917940287    0.9254513184
 H   -2.0537028781   -0.0970976325    0.7971024980
 H   -1.4762643519   -0.2319345087   -2.2271586280
 H   -0.8760570578   -2.4480190601   -0.7773739920
 H   -0.3348817726   -3.4123340111    1.4209423918
 H   -0.9948785804   -1.9684493537    2.2378713591
 H   -3.6922663175   -2.0287578806    0.3297739666
 H   -3.0993906113   -3.4769140156   -0.5293365520