15

 C    0.2296700967    1.3785361362    0.2580649690
 N   -0.2127734546    0.0810409896   -0.2445381562
 C    0.6156026484   -0.4808452618   -1.2754092630
 C    2.0260699139   -1.0088290729   -0.9901570639
 C    0.9004191309   -1.9653799895   -1.2693030251
 C    0.4218197411    0.1433089054   -2.5694871853
 N    0.2883425247    0.6540360728   -3.5985700725
 H    1.2570363841    1.3787190284    0.6580334387
 H    0.1838799741    2.1137773601   -0.5513941430
 H   -0.4529796844    1.7065345004    1.0460377999
 H   -0.3325102806   -0.5845138488    0.5082779774
 H    2.7921267826   -0.8767607176   -1.7451017436
 H    2.3675298305   -0.9054070948    0.0339243213
 H    0.4824164449   -2.5308777949   -0.4427088070
 H    0.8840809475   -2.4859571126   -2.2190688967