15

 O    1.3012054822    0.5130733962   -0.5209079184
 C    0.6248463572    1.4336904854   -0.2018088832
 O   -0.7595932159    1.5512114271   -0.3439273599
 C   -0.6896795930    2.9412009933    0.0964233223
 C   -1.5083098386    3.9246245282   -0.6927106794
 C   -1.2474940503    5.3059597663   -0.3072542539
 C   -1.0175527322    6.4380074683    0.0220921773
 C   -0.2467115759    2.9682645615    1.5082046011
 C    0.7886198625    2.8122567016    0.3745572149
 H   -1.2965104300    3.7795660251   -1.7592541083
 H   -2.5721967955    3.6901058773   -0.5536004077
 H   -0.8250590487    7.4447950973    0.3006401461
 H   -0.2203236033    3.9448505730    1.9809720865
 H   -0.4695819434    2.1308135161    2.1610183745
 H    1.6152054849    3.4921466132    0.2322924483