20

 C   -0.0625462100    1.5607233701    0.0123845704
 C    0.0061863006    0.0462614422    0.0000352761
 C    1.0614387307   -0.6942095793   -0.8934531943
 N    1.2560404562   -1.7203932078    0.1635701240
 C   -0.0306257519   -2.5057516546    0.5200456863
 C    0.0183221967   -1.8213551035    1.9222273957
 C    0.7520141390   -0.7067468649    1.1851520196
 C   -1.2692529622   -1.9833819293   -0.1562140682
 C   -1.2887574971   -0.6596845633   -0.3264405087
 H    0.9244286144    2.0004883467    0.1903336760
 H   -0.4319618092    1.9453235190   -0.9453763808
 H   -0.7377415277    1.9227381690    0.7963053199
 H    0.7395863555   -1.0451509608   -1.8777695450
 H    2.0000582358   -0.1343715212   -0.9820689216
 H    0.1010366599   -3.5861367501    0.4548962267
 H   -0.9320578543   -1.6236128185    2.4195835140
 H    0.7120879996   -2.3307671429    2.5956755804
 H    1.4967930815   -0.0946328565    1.7038073734
 H   -2.0885541543   -2.6473119563   -0.4096328920
 H   -2.1175116933   -0.1095623478   -0.7614285622