18

 O   -0.0090001370    1.4168747099   -0.0070188558
 C   -0.0279713724    0.0006012279   -0.0317321208
 C   -1.4364114351   -0.4906178600    0.0438972004
 C   -2.5476360134    0.2504588533    0.0929165616
 C   -3.7786619349   -0.5910221676    0.0740379426
 C   -3.9728077234   -1.4160169848   -1.1847889150
 C   -3.2780760193   -2.0248596688    0.0058225102
 C   -1.7511054526   -1.9776769292    0.0580908552
 H    0.9076525617    1.7034070114   -0.0432625408
 H    0.4471852022   -0.3902631938   -0.9499562588
 H    0.5493215417   -0.4227718951    0.8108505378
 H   -2.5611181357    1.3326158799    0.1013918118
 H   -4.6493927722   -0.3034423631    0.6532462203
 H   -4.9731764737   -1.7760828196   -1.4037755182
 H   -3.3862380806   -1.1462466261   -2.0576556757
 H   -3.7902768307   -2.8183149533    0.5368676801
 H   -1.2860792756   -2.5084897750   -0.7840843737
 H   -1.3654258789   -2.4554718860    0.9701437986