19

 C   -0.1612067117    1.6512030116   -0.1267822875
 C    0.0019435662    0.1380869780   -0.0817178436
 C    0.7394115095   -0.5811976084   -1.2240127527
 C    2.1850097489   -0.1867106179   -1.2648719354
 C    1.7451507214   -1.1886844846   -0.2327173319
 C    1.0380529248   -0.4929478733    0.9173101771
 O    1.8430318829    0.4365286333    1.6504714251
 C    1.8335196351    0.3834739759    2.9939640301
 O    2.4620171158    1.1331013370    3.6791354253
 H    0.7916268638    2.1628625616   -0.2805667288
 H   -0.8357409895    1.9357623213   -0.9411129575
 H   -0.5880760837    2.0271483122    0.8088565042
 H   -0.9731869213   -0.3284657639    0.0916202516
 H    0.2545456710   -1.0717774369   -2.0585543349
 H    2.7554898831   -0.6102239245   -2.0848869152
 H    2.5126980721    0.8027752426   -0.9630521173
 H    2.1523020699   -2.1912362324   -0.1928781790
 H    0.5655467193   -1.1888447525    1.6181586752
 H    1.1873582524   -0.4273064890    3.3859908351