15

 C    0.0382495409    1.4953313483   -0.0281280652
 C    0.0084452517   -0.0137929029    0.0890123644
 O   -0.0269989848   -0.6045230448    1.1354569073
 C    0.0248055460   -0.7650814928   -1.2569083348
 N    0.0568136791   -2.1953802683   -1.0848090900
 N    1.1677217588   -2.8722509367   -0.8213229363
 C    0.6879563087   -4.0984154550   -0.6637027169
 N   -0.6544317496   -4.1610353588   -0.8214014387
 N   -1.0438886431   -2.9401993306   -1.0830010310
 H    0.9710442002    1.8183120323   -0.5046739546
 H   -0.7840276750    1.8513432470   -0.6587594855
 H   -0.0370852356    1.9408448224    0.9638625393
 H   -0.8765935677   -0.5189231151   -1.8247429926
 H    0.8956677090   -0.4621423076   -1.8445560793
 H    1.3067302013   -4.9520255975   -0.4407098261