19

 C    0.0947014100    1.4791078712    0.1857615212
 C   -0.0039059163   -0.0397146071   -0.0522412535
 C   -1.4069489474   -0.4737321133   -0.0433100294
 N   -2.5117550087   -0.8135271347   -0.0758075540
 C    0.6632738254   -0.5055500663   -1.3713296881
 N    0.0718900517    0.1809089825   -2.4968399410
 C    2.2084778327   -0.4606026695   -1.2924518691
 O    2.2763746007   -1.8739298086   -1.0323225953
 C    0.8918430445   -2.0494107572   -1.3930078307
 H    1.1443829870    1.7798921215    0.2357902797
 H   -0.3796252118    2.0260844646   -0.6299000193
 H   -0.3854809872    1.7523792298    1.1281955819
 H    0.5010069052   -0.5677559295    0.7657308634
 H    0.4795191660   -0.1432368298   -3.3679044815
 H   -0.9269897374   -0.0028983721   -2.5474801953
 H    2.6750510700   -0.1885266712   -2.2500092697
 H    2.6671123359    0.1316154589   -0.4932596851
 H    0.3459430845   -2.6640301173   -0.6684509322
 H    0.7779935553   -2.4847868418   -2.3959450819