17

 C    0.0525477979    1.4801513855    0.0415966613
 C    0.0322202519   -0.0084031890   -0.0329710408
 C    0.1236227088   -0.8646731724   -1.1127036582
 O    0.2620045775   -0.5088770691   -2.4184400371
 C    0.0468571939   -2.1733971345   -0.5778787444
 C    0.0903897210   -3.4345655868   -1.3793918589
 O    0.9956623459   -3.3011055272   -2.4894665999
 N   -0.0719660008   -2.1437677191    0.7489424008
 N   -0.0932211214   -0.8342021901    1.0503703011
 H    0.8070786686    1.8462229769    0.7476575731
 H    0.2911703123    1.8839164711   -0.9448632202
 H   -0.9157683942    1.8953346774    0.3462917891
 H    0.5173698464   -1.3178685629   -2.8886384135
 H    0.3500825326   -4.2885898451   -0.7420706155
 H   -0.8788903433   -3.6495475813   -1.8430845035
 H    1.8806874020   -3.1927991873   -2.1228191489
 H   -0.1727386889   -0.5600862064    2.0145821656