15

 C   -0.0739745806    1.3863820475   -0.0676435741
 N   -0.0021670767   -0.0536545878   -0.0112834891
 C   -1.0480909964   -1.0716356110   -0.0555175444
 C   -1.7743007386   -1.1358110621   -1.3224700755
 N   -2.3143627693   -1.1880518413   -2.3431000031
 C    0.1194419845   -2.1527272421    0.0759046465
 O    0.2168868610   -3.1829728574   -0.8394569871
 C    1.0701038476   -0.9200833649   -0.0110473744
 O    2.2541485799   -0.7338764984   -0.0612205344
 H    0.9514398143    1.7626870877   -0.0726436914
 H   -0.5818572628    1.7221916872   -0.9784831866
 H   -0.6004792054    1.7942082188    0.8025401677
 H   -1.7544932700   -1.0390187059    0.7809140315
 H    0.1156121738   -2.6026321682    1.0714808023
 H    0.3513785086   -2.8232044621   -1.7244137278