21

 C    0.1446505174    1.6715662533   -0.0160581045
 C   -0.0312084374    0.1497520734    0.0495937587
 C    0.3882237245   -0.5093713806   -1.2932613482
 C    0.5834500350   -2.0378235991   -1.2330024943
 C   -0.4654285831   -2.7663840691   -0.4137913121
 O    0.0201337072   -3.7998229181    0.4531513209
 C   -0.4993888107   -2.5992424243    1.0489717388
 C    0.4670348339   -1.6760335289    1.7095928678
 C    0.6839658542   -0.4424407380    1.2512321467
 H    1.2024716915    1.9374896021   -0.1273401816
 H   -0.3960280318    2.0949597629   -0.8686299704
 H   -0.2280463824    2.1549805673    0.8927563951
 H   -1.1015588207   -0.0541267145    0.1781851356
 H   -0.3706194143   -0.2492973253   -2.0414650167
 H    1.3250464799   -0.0592248819   -1.6445702152
 H    0.6136399537   -2.4454455132   -2.2497233134
 H    1.5490133409   -2.2646788769   -0.7747385771
 H   -1.3992573262   -3.0174464871   -0.9190181059
 H   -1.4453523071   -2.7613640464    1.5707947737
 H    0.9908259878   -2.0469688335    2.5873833749
 H    1.4063996979    0.1948502182    1.7586367070