18

 C    0.3889197343    1.5530078649    0.0156115679
 C   -0.0391494064    0.0730954343    0.0005252359
 C    0.3646785784   -0.6035770743   -1.2849556872
 C    0.9701878290   -1.7850069617   -1.3751623955
 C    1.3385117560   -2.6440548325   -0.1973684600
 C    1.1592671639   -1.9511466019    1.1330806166
 O    1.9153411172   -0.7524631718    1.3336502547
 C    0.4907909630   -0.6452077762    1.2262050719
 H    1.4796100931    1.6281597551   -0.0016635417
 H   -0.0090544068    2.0837014306   -0.8550489645
 H    0.0245950357    2.0593909753    0.9155628322
 H   -1.1384041243    0.0443849308    0.0706986856
 H    0.1305729321   -0.0549519569   -2.1950716569
 H    1.2182349318   -2.1845620651   -2.3554615601
 H    0.7294503082   -3.5602608147   -0.1987166981
 H    2.3791634933   -2.9858123474   -0.2881597904
 H    1.1377091294   -2.6073583992    2.0042820441
 H    0.0000881418   -0.3793498992    2.1642862455