17

 N    0.0710790661    1.3389843375    0.3723863104
 C   -0.0258677792    0.0002045665    0.1028337374
 N   -1.1160310265   -0.6685857718    0.0223064787
 C   -0.7819945211   -2.0485106917   -0.3507026933
 C    0.7488310182   -2.2337701011   -0.1536064418
 O    1.3871573681   -3.0999578982   -1.0674894006
 C    1.2206681631   -0.7803811761   -0.1676658430
 C    2.3594450909   -0.2775124109   -0.9500703594
 O    2.4304212193   -0.3741780126    0.4777192846
 H    0.9273182638    1.6097728404    0.8353604096
 H   -0.7656494218    1.7630018751    0.7457979199
 H   -1.3705205684   -2.7549058639    0.2425768298
 H   -1.0433997158   -2.2326454388   -1.4046471304
 H    0.9587573226   -2.6533621238    0.8358249042
 H    1.1034159434   -2.8551731938   -1.9554780054
 H    2.9698151285   -1.0000650066   -1.4878370520
 H    2.3358290587    0.7334411499   -1.3522618589