23

 C   -0.0077466707    1.4736023384    0.3016433050
 C   -0.0743185738   -0.0464413399    0.1358320093
 C   -1.5023670179   -0.5635726652   -0.0846648783
 C   -1.5560932844   -2.0750258596   -0.2028709654
 O   -1.1401849784   -2.7592297546    1.0143278965
 C   -2.2950573012   -3.6221086487    0.9811750351
 C   -3.4378802675   -3.1272551210    1.8957492808
 C   -4.0319684682   -2.3248114418    0.6939459570
 C   -2.8941430442   -2.8481521680   -0.2269726286
 H    1.0204731192    1.8127788807    0.4619491771
 H   -0.3937567016    1.9882620406   -0.5856829480
 H   -0.6042068658    1.8043017290    1.1593484653
 H    0.5562048962   -0.3536052345   -0.7089602331
 H    0.3398732920   -0.5386668167    1.0229894925
 H   -2.1371194632   -0.2361589833    0.7470055380
 H   -1.9243427189   -0.1263434932   -1.0007652412
 H   -0.9091974063   -2.3950559595   -1.0351343065
 H   -2.0236831519   -4.6816194972    0.9910592843
 H   -4.0948159865   -3.9231217634    2.2575296497
 H   -3.0858053733   -2.5415967620    2.7476978634
 H   -5.0154743504   -2.6859115332    0.3848583274
 H   -4.0972825220   -1.2412982050    0.8152903379
 H   -3.1824417413   -3.3015040719   -1.1748100082