19

 C    0.0776761144    1.4579239193    0.1170979983
 C    1.3237602142    0.6586901797   -0.0048103719
 N   -0.0328953195   -0.0023481191   -0.0072335732
 C   -0.3580207171   -0.4838234720   -1.3959681179
 C    0.6518166507    0.2260206365   -2.3082876561
 N    1.8425448361   -0.3217251913   -3.1843857484
 C    2.5716883030    0.9431741008   -2.6676603325
 C    1.8485335422    0.4270376971   -1.3874475989
 C    2.3354769316   -0.9606775644   -1.8803444543
 H   -0.2087782413    1.8503263142    1.0889497081
 H   -0.2186378801    2.0868834320   -0.7195241788
 H    1.9359204769    0.4555575086    0.8684504344
 H   -0.2887961035   -1.5734415903   -1.3918487058
 H   -1.3917699612   -0.2176076688   -1.6304637512
 H    0.2280085827    1.1079233478   -2.7938084853
 H    3.6591841116    0.8539950259   -2.7217735455
 H    2.2164533868    1.8720763267   -3.1207864046
 H    1.7834095072   -1.8517948878   -1.5810967838
 H    3.4115918750   -1.1531211050   -1.8744084328