15

 O   -0.0411633243    1.3882349922    0.2225653100
 C    0.0127685051    0.0133578026    0.0407322123
 C   -1.3220629746   -0.7448601695    0.0601578134
 N   -2.0960249511   -0.1262226584   -1.0446770598
 C   -1.1376482359   -1.2148363148   -1.3373444023
 C    0.2474453305   -0.5575095174   -1.4473940819
 C    0.4813163887    0.3900765074   -2.5144170848
 C    0.6767028673    1.1948584968   -3.3862669919
 H   -0.7605130580    1.7015850436   -0.3437997393
 H    0.7580907683   -0.3849508106    0.7313463069
 H   -1.8218161363   -1.2098965626    0.9007271079
 H   -3.0322190523   -0.5264938591   -1.0335805100
 H   -1.4621284633   -2.1328613099   -1.8102171785
 H    1.0378179121   -1.3139373193   -1.4180711968
 H    0.8480688838    1.9013055090   -4.1600785051