19

 C    0.0326410141    1.4587151546   -0.1739780160
 C   -0.0252381014   -0.0242118187    0.0058871563
 O    0.5267794756   -0.8892947869   -1.0685986802
 C    0.0321692770   -1.8288276609   -0.0454752052
 C    0.5726749572   -0.9473167179    1.1044782690
 C   -0.3960248738   -1.0105587267    2.2881401107
 C   -1.7661640402   -1.0365130478    1.5416516708
 C   -1.2724837282   -0.9816606891    0.1083155866
 O   -2.2246927247   -0.9744022654   -0.8892397759
 H    1.0597215851    1.7904906675   -0.3539308923
 H   -0.5870692978    1.7661304440   -1.0226281788
 H   -0.3421321498    1.9642080152    0.7220382041
 H    0.1628396738   -2.8952882876   -0.2328110447
 H    1.6485944388   -0.9206889127    1.2701811639
 H   -0.2370829383   -1.9034238318    2.8996855069
 H   -0.2948308212   -0.1427758362    2.9468066905
 H   -2.3444368932   -1.9440044016    1.7372917561
 H   -2.4036016833   -0.1808165806    1.7827010826
 H   -1.7248155597   -0.9507723175   -1.7188202445