17

 N   -0.3143616078    1.4823051199    0.0523831144
 C   -0.0819824991    0.0682024551    0.0087417659
 C   -0.4278446454   -0.7088616171    1.2806616419
 N   -0.6574631764   -0.0106470454    2.4905535674
 C   -1.7548789760    0.5498911650    2.7805912822
 N   -2.9550636020    0.6367468923    2.0812195269
 C   -3.2563140975    0.3654948230    0.7497449249
 N   -2.6062769894   -0.2500244804   -0.1453610271
 C   -1.3272131199   -0.8193167889    0.0642018337
 H    0.4891255895    1.9659457881    0.4383783701
 H   -0.4833571343    1.8467998593   -0.8787810498
 H    0.7589788430   -0.3073903823   -0.5789506886
 H    0.2015584261   -1.5814365856    1.4407317126
 H   -1.8281386727    1.0602927399    3.7426040431
 H   -3.6664631513    1.1704912840    2.5587040708
 H   -4.2370018692    0.7644648750    0.4843807651
 H   -1.2171940276   -1.7556977617   -0.4782436335