16

 N   -0.0471198704    1.3009331420   -0.1261408734
 C   -0.0118747409    0.0371620749   -0.0151356628
 O    1.1884417294   -0.6372875266    0.0459649766
 C    1.2216355685   -1.9836651245    0.5618485890
 C    0.1951854897   -2.7855511839   -0.2225500078
 O   -0.4115486101   -3.9569622640    0.3886811564
 C   -1.7496288199   -3.4003002470    0.2043375561
 C   -1.1184825048   -2.0756888783   -0.1299874881
 C   -1.2452984409   -0.7674701005    0.0498674060
 H    0.9027798897    1.6786907328   -0.1229041725
 H    2.2529984960   -2.3165664689    0.4303401366
 H    0.9665103991   -1.9978700555    1.6284245866
 H    0.5543442026   -3.0125330723   -1.2352784426
 H   -2.2806978620   -3.9018106238   -0.6155810434
 H   -2.3561200323   -3.4480289786    1.1150543789
 H   -2.1662349335   -0.2456224059    0.2771767844