17

 C   -0.1941026651    1.5371310076   -0.0851474889
 C    0.0607628120    0.0506890295    0.0228816102
 O    1.1396806676   -0.4571635449   -0.8289987717
 C    1.6746534133   -1.2030354298    0.2483775809
 C    2.2054851735   -0.2944294626    1.3370795219
 C    2.8166290295    0.9800341365    1.0809858103
 N    3.3312866618    1.9996429495    0.8958690782
 C    0.7093742343   -0.6174332896    1.2514686770
 N    0.0824733188   -1.2116060306    2.3749882287
 H    0.6921826864    2.1249332146    0.1557222416
 H   -0.5108355237    1.7877664959   -1.1023852425
 H   -1.0045057841    1.8194168447    0.5962458618
 H   -0.8522709919   -0.5111379357   -0.2246383493
 H    2.0522929803   -2.2016131551    0.0636819607
 H    2.6558299930   -0.8446299014    2.1588272342
 H   -0.1896467250   -0.5160036737    3.0629257711
 H   -0.7486607106   -1.7287694451    2.1057226759