24

 C    1.1486626422    0.9199481354    0.9198440380
 C    0.9511987127   -0.5117739638    0.4160043573
 C    1.4420982548   -0.7747501127   -1.0308767483
 C    0.7579091688    0.1784777331   -2.0134398590
 O    2.8447905246   -0.4681542098   -1.1234267656
 C    1.2247851946   -2.2729708468   -1.3099703759
 C    0.3278984397   -2.8356868197   -2.3657105337
 N    1.7647872358   -3.0370868387   -2.4360373048
 C    2.5181106317   -2.4182546217   -3.5184552164
 H    2.1784150012    1.2454192174    0.7486113077
 H    0.4820119555    1.6285391277    0.4199321835
 H    0.9433556180    0.9800802580    1.9929132067
 H    1.4956147485   -1.2001888071    1.0770354264
 H   -0.1051405539   -0.8015545034    0.4862969512
 H    1.0319256399    1.2085391801   -1.7745251895
 H    1.0644678528   -0.0085540761   -3.0429403553
 H   -0.3294349869    0.0831949651   -1.9521585844
 H    3.3191395223   -1.1003962546   -0.5718704537
 H    1.2947528057   -2.8540857728   -0.3884600443
 H   -0.2798334144   -3.7159399430   -2.1660503126
 H   -0.1193845569   -2.1318704068   -3.0661574192
 H    2.0674399502   -1.5094636115   -3.9392313997
 H    3.5193438242   -2.1615558641   -3.1662675224
 H    2.6092275492   -3.1516786445   -4.3267822759