17

 C   -0.2165170637   -0.9640810259    0.4066240932
 C   -0.1446163539    0.1928236704    0.0661884149
 C   -0.0202793043    1.5227900986   -0.3764530086
 C   -1.0649043332    2.3887866314   -0.5252585587
 C   -1.8738884350    2.6775059418    0.7446525942
 C   -0.8385921534    3.8592799745    0.8594313573
 C    0.6136424214    3.6864025119    0.2509959155
 C    1.2547378086    2.3338293996   -0.0947638848
 C   -0.5766885189    3.8439910037   -0.6202614338
 H   -0.2917563917   -1.9795526862    0.7073309044
 H   -2.8736834544    3.1034066682    0.6073166512
 H   -1.8954852435    1.8854591400    1.4974702086
 H   -1.0173023662    4.7438633504    1.4670442419
 H    1.2524180836    4.5422133332    0.4618975806
 H    1.7913033376    1.8492805924    0.7279113603
 H    1.9638003481    2.4460108256   -0.9263412731
 H   -0.7981398011    4.5744578104   -1.3869257932