17

 C    0.0772311868    1.5494497569   -0.0563578966
 C    0.1078253873    0.0659574148    0.0770320934
 O    0.4623209513   -0.7264281419   -1.0562630684
 C    1.1459584311   -1.6901260378   -0.2076191157
 C    0.7085944893   -0.9239747407    1.0458542459
 N    1.3737171933   -0.7104221523    2.2721327053
 C   -0.8210725979   -0.7801215213    0.9540587335
 C   -1.4942167598   -0.1507533580    2.0515514538
 N   -2.0695242653    0.3516310760    2.9212577668
 H    1.0446143281    1.9239112764   -0.4037215703
 H   -0.6878867211    1.8513162416   -0.7794113768
 H   -0.1588830918    2.0104517593    0.9055532461
 H    0.7809960676   -2.7133169189   -0.3522732085
 H    2.2292232669   -1.6514758078   -0.3760901746
 H    1.2716738148   -1.4904832586    2.9124072603
 H    2.3606812266   -0.5176233020    2.1446930291
 H   -1.3908673973   -1.5631620857    0.4602290668