20

 C    0.1901064863    1.4543792426    0.1724915868
 N    0.2710717354    0.0113805063    0.0526963845
 C    0.3094413470   -0.6268748470   -1.1518682300
 O    0.2998398551   -0.0369358156   -2.2199327893
 C    0.3408509518   -2.1559281030   -1.0794752965
 C   -1.0446521527   -2.7075836656   -1.4523006847
 C    1.4426361586   -2.6674902468   -2.0404214936
 C    1.5938845715   -4.1162305570   -2.0233932103
 C    1.7123541561   -5.3123406075   -1.9877539812
 H    0.1865374332    1.8621729890   -0.8389231058
 H   -0.7273584589    1.7623204887    0.6864734549
 H    1.0499011378    1.8577452997    0.7187575967
 H    0.2867179126   -0.5441522356    0.8914280498
 H    0.5929811496   -2.4790205004   -0.0621181069
 H   -1.0284295477   -3.8002028151   -1.4660115396
 H   -1.8043354688   -2.3811296824   -0.7354169717
 H   -1.3355012008   -2.3474580909   -2.4434660843
 H    1.2026000574   -2.3140380570   -3.0491282539
 H    2.3993852380   -2.2000171173   -1.7763022648
 H    1.8258552185   -6.3678408951   -1.9728647600