19

 C   -0.1312800308    1.5757655906   -0.0449620729
 C   -0.1188321865    0.0458277310   -0.0737189678
 C    0.8255321014   -0.5245071855   -1.1513581380
 C    0.8723305779   -2.0188575000   -1.1974639757
 C    1.8496403790   -2.9096766572   -0.8078538217
 C    1.3661135979   -4.2275483313   -1.0452571659
 C    0.1040685443   -4.1092073927   -1.5751915387
 N   -0.1855077283   -2.7689268944   -1.6614538192
 H    0.8680661949    1.9749251902    0.1616424946
 H   -0.4576519054    1.9893147688   -1.0060762976
 H   -0.8073011390    1.9552450305    0.7274412989
 H    0.1848552174   -0.3476108494    0.9034305052
 H   -1.1363262703   -0.3284621614   -0.2462334125
 H    0.5313955373   -0.1201518762   -2.1313517502
 H    1.8416372977   -0.1580767288   -0.9678615277
 H    2.8107828635   -2.6374977299   -0.3975779790
 H    1.8871864599   -5.1530223297   -0.8537186100
 H   -0.6060401972   -4.8531204912   -1.8989243990
 H   -1.0421878836   -2.3871889032   -2.0228327527