15

 O    0.0288596011   -0.0176160975   -0.1205483814
 C   -0.0194723219    1.1870897547   -0.0518969515
 C   -1.2352713526    2.0479526649   -0.0142912026
 C   -0.8849392423    3.3410355010   -0.0218438395
 C    0.5981827871    3.5195553449   -0.0254646141
 C    1.3366043017    3.0148486933    1.2208781196
 C    0.6902677235    2.7429018974    2.4705761231
 C    0.1847217066    2.5243178465    3.5392626936
 C    1.1709256406    2.1330274292   -0.0243946420
 H   -2.2345815032    1.6381263317    0.0428619662
 H   -1.5659922706    4.1826804281    0.0249246683
 H    1.0480356189    4.3404156711   -0.5711561550
 H    2.3429449809    3.4144885281    1.3237652720
 H   -0.2675544725    2.3224895372    4.4785806189
 H    2.0685171528    1.8495434292   -0.5582720356