18

 O   -0.5917175321    0.8375701086   -0.7870642354
 C    0.1287300751    1.0720909561    0.1423534309
 C    1.3147399386    2.0512143270    0.0608884891
 C    1.2488337385    2.9744571618   -1.1744655492
 C    2.5188473021    3.7661288918   -1.3872351241
 C    3.6923064433    3.1373152484   -2.1003831037
 C    2.8940704380    4.2291574043   -2.7701105478
 C    1.4302641308    2.7858827108    1.3208809563
 N    1.4930980644    3.3641117513    2.3197655758
 H    0.0052474369    0.5748847204    1.1268526289
 H    2.2102391219    1.4136524625   -0.0191511296
 H    1.0419567828    2.3367872735   -2.0389390359
 H    0.3872666824    3.6426659907   -1.0675511494
 H    2.7660444553    4.4455413277   -0.5758892386
 H    4.6928579999    3.3668502185   -1.7519851304
 H    3.5759597553    2.1266830584   -2.4799285044
 H    2.2443953080    3.9474968675   -3.5923267441
 H    3.3472984389    5.2079203507   -2.8783735084