19

 C   -0.6000787359    1.2260484281    0.0988463151
 C    0.0363409830   -0.1410522369   -0.0770540408
 C    1.3825651447   -0.2826337553   -0.8695732141
 O    2.2076041950    0.8581174944   -0.8499574407
 C    1.7936407252   -1.3952244896    0.1410191750
 C    0.7366051099   -0.8425454126    1.1224692913
 O    1.3640953724    0.1263991919    1.9828895370
 C    1.0056480239    0.1824717023    3.2805891447
 O    1.4614697225    0.9803132747    4.0419193117
 H    0.1171271289    1.9556699545    0.4804762056
 H   -0.9749896548    1.5983505839   -0.8594717176
 H   -1.4445766727    1.1830349944    0.7952494361
 H   -0.6869710490   -0.8510375197   -0.4946119780
 H    1.2980197858   -0.5726966864   -1.9191114938
 H    2.3646937410    1.1029092156    0.0702798451
 H    1.5361978477   -2.3984856328   -0.2078224619
 H    2.8293663994   -1.3822506804    0.4866542700
 H    0.1550388507   -1.5452706568    1.7277212688
 H    0.2596599122   -0.5901224793    3.5486755264