18

 C   -0.0830982386    1.5973395913    0.0868239444
 C    0.0732549225    0.0931670707   -0.0504316650
 C    1.2408568407   -0.5575069134   -0.8305663342
 C    2.2233896495   -0.1935194563    0.3954339181
 C    0.8908205163   -0.7686454350    0.9568408392
 O    0.1380961873   -1.5635350635    1.9299495891
 C   -0.1771938126   -2.4372851045    0.8461282717
 N   -1.0174162560   -3.3614701579    0.8011103575
 C    0.9623829966   -1.8975065870   -0.0375839004
 H    0.8499711505    2.1172742970    0.3170132821
 H   -0.4770965205    2.0234486295   -0.8421105913
 H   -0.7982452406    1.8315191599    0.8823283118
 H   -0.8910073576   -0.3666805585   -0.2903975366
 H    1.4893915603   -0.4328400376   -1.8852712683
 H    3.1050443385   -0.8270112202    0.4992093054
 H    2.4632183619    0.8592770816    0.5447897223
 H   -1.5203818259   -3.4519811092    1.6863026704
 H    1.8299733880   -2.5542327769    0.0552998941