21

 C    0.0129785567    1.5392384244   -0.0204919788
 C    0.0223637483    0.0057299664    0.0405703027
 C    0.8509207518   -0.4801199741    1.2389683885
 C   -1.4191435094   -0.5334521906    0.0607275834
 C   -1.5262997672   -2.0535205190   -0.0606949405
 C   -2.9573062951   -2.5526633213   -0.1614439826
 O   -3.9250189902   -1.8234662495   -0.1585537787
 C   -3.1004090686   -3.9987462052   -0.2651930415
 C   -3.1976889399   -5.1956778298   -0.3490125168
 H    1.0304995144    1.9398842813   -0.0758993492
 H   -0.5397322653    1.9007763730   -0.8937493194
 H   -0.4623152662    1.9626941482    0.8723481720
 H    0.5057244121   -0.3638969920   -0.8762453032
 H    1.8627976226   -0.0631639008    1.2079705015
 H    0.3916315060   -0.1642729767    2.1836385561
 H    0.9473429622   -1.5699304539    1.2632108476
 H   -1.9202368439   -0.2091722149    0.9815117571
 H   -1.9876483774   -0.0799695878   -0.7586072234
 H   -0.9874779852   -2.4233053557   -0.9454382306
 H   -1.0615441880   -2.5718568876    0.7883077593
 H   -3.3039026875   -6.2506399546   -0.4237948235