19

 C   -0.0119114056    1.3627171180   -0.0085664424
 O   -0.0024946186   -0.0445731925   -0.0255767009
 C   -1.2970305944   -0.6061659998    0.0196611342
 C   -1.1583748478   -2.1048214602   -0.0038742461
 C   -0.4262649085   -3.0322411499    0.9941594956
 N   -0.9725155086   -4.0409652244   -0.0344242633
 C   -2.2559101447   -3.1907970563    0.0272967165
 C   -0.5096379507   -3.0075416383   -1.0792323498
 H    1.0275671825    1.6975989904   -0.0463101308
 H   -0.5514610004    1.7787373148   -0.8743556222
 H   -0.4799845082    1.7576893189    0.9072300336
 H   -1.8291368473   -0.2868690045    0.9334795960
 H   -1.9003773080   -0.2655392794   -0.8406242371
 H    0.6647512443   -2.9887682350    1.0281845493
 H   -0.8546070816   -3.1554239798    1.9933353617
 H   -2.8237066378   -3.3254452261    0.9527039791
 H   -2.8962626024   -3.3039291534   -0.8525067994
 H   -1.0169192834   -3.1073251330   -2.0434499751
 H    0.5751674212   -2.9622270593   -1.1996915488