16

 C   -0.0503755785    1.5359785317    0.0761669259
 C    0.0112870291    0.0003416419   -0.0174653656
 C    0.6937048305   -0.4723253355   -1.2154164685
 C    1.2604911681   -0.8513919530   -2.2105224387
 C    1.9238196591   -1.2996096427   -3.3751121946
 C    2.4857538207   -0.5606639392   -4.3726591682
 O    3.0136188510   -1.4134277333   -5.2945572972
 C    2.7415104937   -2.6460973435   -4.8029204297
 N    2.1055947446   -2.6571441353   -3.6821269148
 H    0.9549325663    1.9654316140    0.0927918324
 H   -0.5837888845    1.9568855149   -0.7803716069
 H   -0.5702878568    1.8394233426    0.9894060524
 H    0.5175532525   -0.4024610522    0.8694369387
 H   -1.0063171858   -0.4109273865    0.0047002523
 H    2.5884155423    0.4927502965   -4.5639169802
 H    3.0791659177   -3.4859020003   -5.3897344172