17

 C    0.0487389859    1.5541514386   -0.0655237200
 C    0.0419122787    0.1026860645   -0.0440931877
 C    0.0360149006   -1.1076995954   -0.0261517822
 C    0.0293376532   -2.4668866022   -0.0059265111
 C    0.0223556707   -3.6785410305    0.0132763052
 C    0.0050931689   -5.1205985684    0.0463591810
 C    0.1918706512   -5.8476452254    1.4110877296
 O   -0.9828638030   -6.6477882749    1.1893830127
 C   -1.3656190896   -5.8602691760    0.0480261152
 H    1.0722688869    1.9454787968   -0.0826556985
 H   -0.4695339068    1.9395181286   -0.9509358801
 H   -0.4508470208    1.9664778170    0.8184464522
 H    0.6750549439   -5.5305758749   -0.7153672699
 H    1.0959135569   -6.4559527857    1.5184043890
 H    0.0868154720   -5.1847374768    2.2786098149
 H   -2.2176167647   -5.2034154224    0.2618508586
 H   -1.5862006840   -6.4776926228   -0.8288893188