17

 O    0.0070500620    0.0049634972    0.1059840453
 C    0.0104625939    1.2076262364   -0.0064674649
 N   -1.0998712949    2.0403361113   -0.0781699927
 C   -0.6455907491    3.4398422382    0.0297916381
 C    0.6207337630    3.3462117122   -0.8476479699
 C    1.2137462829    2.1815432633   -0.0263332381
 C    1.1679296372    2.7556338544    1.4078529557
 N    1.2772500714    4.2310265300    1.5011743290
 C   -0.0552378923    3.5917554394    1.4487542940
 H   -1.9764162126    1.7204066276    0.3063825622
 H   -1.4135954524    4.1502859776   -0.2745409106
 H    0.3757318206    3.0612462290   -1.8715832348
 H    1.2299844203    4.2461168094   -0.8274243237
 H    2.1483575378    1.7281504440   -0.3486351531
 H    1.4798366471    2.1387632278    2.2425090000
 H    1.4862682020    4.4790944224    2.4657974148
 H   -0.7125963170    3.6261232898    2.3109425387