17

 O    0.0311853512    0.0438335562   -0.5226322981
 C    0.0061170569    1.1826801624   -0.1314755068
 C   -1.2592883808    2.0037228554    0.1549420322
 C   -0.7858292467    3.3098669709    0.8209056906
 C   -0.6363347535    3.1392841249    2.3405393833
 O    0.5566612471    2.3594174113    2.5027370553
 C    1.4116206846    2.7032487189    1.4447153006
 C    0.7021858853    3.4770264355    0.3968609703
 C    1.1962384997    2.0729780336    0.0638660863
 H   -1.7258674071    2.2084476998   -0.8160926936
 H   -1.9771552850    1.4273727296    0.7443232584
 H   -1.4021992940    4.1698164490    0.5563437963
 H   -0.5226519286    4.1129946173    2.8397871359
 H   -1.4595646694    2.5941780847    2.8101732094
 H    2.4356300000    2.8967020345    1.7453485867
 H    1.0748435725    4.3770382321   -0.0743543587
 H    2.0801776776    1.8809564036   -0.5325522880