19

 O   -0.0293301467    1.3911449457    0.1215405849
 C    0.0786160907    0.0050708976    0.0802312511
 C    0.8540288618   -0.7913740921   -1.0320422113
 C    0.7556551774   -1.9353588766    0.0259026335
 C    0.9077176065   -0.8306597051    1.1047557838
 C   -0.7658237971   -2.1744936984    0.0118300638
 O   -1.3900957688   -2.4373536800    1.2899132436
 C   -1.9897588569   -1.1179849303    1.3191461114
 C   -1.2783516008   -0.7118008603    0.0167385998
 H    0.8554132398    1.7645087629    0.1886871420
 H    0.3665746844   -0.9290570407   -2.0023388436
 H    1.8788551274   -0.4366137451   -1.1688034487
 H    1.4153610718   -2.8007888792   -0.0009495269
 H    1.9380197175   -0.4705987092    1.1722008930
 H    0.5048241491   -1.0213847843    2.0998123526
 H   -1.1009605299   -2.8753580905   -0.7591804825
 H   -3.0816876688   -1.1767950211    1.2364595165
 H   -1.7280001746   -0.5591678329    2.2253862237
 H   -1.9031186227   -0.3457844802   -0.7981127068