24

 C    0.4983173857    0.4845713371   -1.3134304573
 C   -0.0750042002    0.2868034849    0.0925015331
 O   -0.1458901205    1.5261435997    0.8015189009
 C   -1.4270939315   -0.4279252717    0.1012007847
 C   -2.5522304723    0.3154269320   -0.6023635539
 C   -1.4898395347   -1.9290067487    0.1457098570
 C   -0.2847997323   -2.8479675887    0.1142580607
 N   -1.8792624714   -1.1286120591    1.3103559383
 C   -1.0868674273   -1.1290346088    2.5322690463
 H    1.4711832919    0.9797066063   -1.2494193366
 H    0.6262013036   -0.4735824450   -1.8269893865
 H   -0.1577264580    1.1085836084   -1.9302835837
 H    0.6435429114   -0.2962744733    0.6714529553
 H   -0.6935550204    2.1299310313    0.2889888065
 H   -2.3685460962    0.4247611321   -1.6763806139
 H   -3.4895295716   -0.2277480882   -0.4663432500
 H   -2.6968254441    1.3148473154   -0.1745317771
 H   -2.3525737260   -2.3794989225   -0.3491373498
 H    0.6157506174   -2.4177087581    0.5548119019
 H   -0.5034145599   -3.7780145438    0.6510041768
 H   -0.0503349099   -3.1173702971   -0.9213246396
 H   -0.0274575389   -1.3992923618    2.4210009032
 H   -1.1287709515   -0.1301984105    2.9746221709
 H   -1.5351337234   -1.8386386101    3.2357224228