20

 C   -0.1147502713    1.6757898363   -0.1187132886
 C    0.0608470187    0.1667194343    0.0924434182
 C    0.7159377993   -0.4936363000   -1.1203074091
 C    0.8693219769   -2.0520149072   -1.2081185515
 C    0.2848990464   -2.9102426113   -0.1016341979
 O    0.3454920205   -4.2538466702   -0.5612833988
 N    0.0513786805   -1.9916560403   -2.4226007939
 C   -0.1670064170   -0.6380451374   -2.3904502173
 O   -0.8114179252    0.1069954647   -3.0825690479
 H    0.8554712427    2.1707676116   -0.2372718556
 H   -0.7016881613    1.8702789235   -1.0202589191
 H   -0.6227909917    2.1349251067    0.7345311129
 H    0.6710981143   -0.0183143697    0.9855879696
 H   -0.9183104953   -0.2881568651    0.2827637863
 H    1.6583841329    0.0119686977   -1.3550466548
 H    1.8947397746   -2.3867150730   -1.4037487981
 H    0.8717346693   -2.7702747931    0.8200997928
 H   -0.7514770131   -2.6066216890    0.1033539270
 H   -0.0693780245   -4.8195351365    0.0963881089
 H   -0.2891451169   -2.7225690320   -3.0292430832