19

 C   -0.0416448920    1.5482722199   -0.0251784781
 C    0.0152773107    0.0261706002    0.0387611927
 O    0.7277883544   -0.5024016208   -1.1014498067
 C    2.0103934404   -0.8797022548   -0.6516445257
 C    2.2737643027   -0.4866209270    0.7663408657
 C    0.7925406135   -0.5308614335    1.2386008444
 C    0.8395226240   -2.0943312301    1.1741653513
 C    2.1506578912   -1.9654491336    0.4016770695
 O    3.1735882958   -2.8949127982    0.3886498359
 H    0.9620027328    1.9789612001    0.0525269405
 H   -0.4771740960    1.8692164276   -0.9754199066
 H   -0.6548196525    1.9497193955    0.7889900761
 H   -0.9986877091   -0.3900311470   -0.0010635985
 H    2.7851699594   -0.8065560826   -1.4060686424
 H    3.0958205988    0.1074489745    1.1411432579
 H    0.5349924328   -0.0861567055    2.1985966457
 H    1.0141867090   -2.5301713798    2.1609085933
 H   -0.0014039100   -2.6014234578    0.6871877567
 H    3.0142960340   -3.5107522073   -0.3355731316