13

 O   -0.0312263692    0.0579192299   -0.1534769846
 C    0.0550685506    1.2417682545   -0.2619869106
 O    1.0345284410    1.9457455731    0.3641101677
 C    1.0285919514    3.3484739752    0.1666558068
 C    2.3300761401    4.0364946379    0.6504817744
 N    2.5049132841    4.5122799979   -0.7284629525
 C    1.4344980957    3.8417433495   -1.2585388354
 O    1.0058081838    3.6870451560   -2.3686445304
 H   -0.6199979249    1.8771589845   -0.8608255379
 H    0.1074459229    3.8007298238    0.5461582286
 H    2.2032831969    4.8298320153    1.3915185189
 H    3.0868088572    3.3206447636    0.9814066447
 H    3.2515829704    5.0284607187   -1.1698898198