19

 C   -0.0128586745    1.4197934010    0.2773179794
 C   -0.1831516515   -0.0529987976   -0.1135627124
 C    0.6598558266   -0.4384156177   -1.3127570399
 O    0.3329801556    0.2248847493   -2.5093314494
 C    2.0967068330   -0.8496985206   -1.1390178852
 C    1.0351267774   -1.9002296205   -1.4897066394
 O    0.6657423615   -2.8056838275   -0.5082535053
 C    1.0546534073   -2.4882281563   -2.8484263644
 O    0.7695962229   -3.6551798240   -3.0174436532
 H    1.0265650246    1.6462001840    0.5393385170
 H   -0.3110929878    2.0854908751   -0.5399274617
 H   -0.6368115344    1.6671002265    1.1406499401
 H    0.0742067878   -0.7044191142    0.7253490799
 H   -1.2324344734   -0.2543845897   -0.3583969538
 H    0.7020589447    1.1141742683   -2.4634148032
 H    2.8074790272   -0.5719756653   -1.9105533396
 H    2.4952251942   -0.9313177739   -0.1337961982
 H    0.4952972991   -3.6300881398   -0.9943847846
 H    1.3370707898   -1.8205293270   -3.6790737461