15

 N   -0.1601745348    1.4489715331    0.1153619729
 C    0.3166806908    0.1047748894   -0.1827909098
 C    0.9346327059   -0.4832287131    1.0750417089
 N   -0.0275733568   -0.9853417983    2.0704646239
 C    0.8476841785   -1.9561232785    1.3976218741
 C    0.2238861327   -2.8872023721    0.4869767529
 N   -0.2461878558   -3.6462225456   -0.2468581738
 C    2.1214203791    0.1841589218    1.5702812300
 N    3.0734629236    0.6933517664    1.9832655872
 H   -0.4012108325    1.9371722393   -0.7396433416
 H   -1.0022185769    1.3979079761    0.6801939235
 H   -0.4527714121   -0.5970557595   -0.5357057872
 H    1.0881654972    0.1658469846   -0.9573055516
 H    0.3004305702   -0.8228967567    3.0198144409
 H    1.6816922909   -2.3750953068    1.9532976699