21

 C   -0.0507352043    1.7523368211    0.5433668569
 C    0.0550620188    0.3010473351    0.0397068272
 C   -1.2622333889   -0.3942513395   -0.0906946771
 C   -2.0101963947   -0.7991342088   -1.1733623661
 C   -1.6980235372   -0.6874802762   -2.6349655605
 C   -1.5752809404   -2.0559153276   -3.3240204668
 N   -3.1882224709   -1.3890010766   -0.7507725564
 C   -3.1592698815   -1.3425088255    0.5578608906
 N   -2.0200035594   -0.7506372787    1.0134212765
 H    0.9392147022    2.2135735990    0.6157950286
 H   -0.6627489990    2.3546823012   -0.1342730564
 H   -0.5131961702    1.7997766069    1.5351375172
 H    0.5445119889    0.2921364551   -0.9388590951
 H    0.7154852607   -0.2666781934    0.7099973419
 H   -2.4937273823   -0.1128291865   -3.1258206389
 H   -0.7739924084   -0.1149327651   -2.7733730363
 H   -2.4914072267   -2.6340876745   -3.1781168589
 H   -1.4038555938   -1.9416212145   -4.3992285730
 H   -0.7443569073   -2.6329884626   -2.9050548783
 H   -3.9223799788   -1.7151618177    1.2254575414
 H   -1.7667372468   -0.6040344009    1.9761744634