17

 C   -0.0049732251    1.5886373484   -0.0235451067
 C   -0.0017106329    0.0639014041   -0.0104772867
 C   -1.3991954734   -0.5396636840    0.2308807878
 C   -2.0359567784   -0.0728056165    1.4621057835
 N   -2.5602067198    0.3071298180    2.4187842980
 C    0.7610370277   -0.6269295134   -1.1908451890
 N    1.7002731606   -1.1468055883   -0.1968177177
 C    1.1073003020   -0.5618365645    0.8943317492
 O    1.3648141628   -0.5485519697    2.0658433165
 H    0.9968468849    1.9777009675   -0.2271150728
 H   -0.6844579678    1.9748754413   -0.7915087437
 H   -0.3278329320    1.9772401108    0.9459704011
 H   -2.0580338094   -0.2817386349   -0.6076564859
 H   -1.3379549871   -1.6333063995    0.2642487489
 H    0.1994873539   -1.4003517323   -1.7261709156
 H    1.2027238822    0.0687543960   -1.9112553608
 H    2.5482196719   -1.6866388831   -0.2875642660