18

 C   -0.0191472817    1.4539982089   -0.0350337899
 C    1.3166581901    0.7673905801    0.0408261994
 C    0.0160386813   -0.0411760082    0.0931971412
 C    0.3772811747   -0.7134960085   -1.2601456914
 C   -0.3418261428   -0.2979018612   -2.5116424988
 C    0.3668388214    0.5819788463   -3.2243458268
 C    1.7069738882    0.9277543038   -2.6032088380
 C    1.7129467447    0.1052011367   -1.2932278036
 H   -0.3061697127    1.9822082755    0.8688692664
 H   -0.3647104277    1.9241666252   -0.9511171906
 H    2.0099420155    0.9804949550    0.8462528825
 H   -0.4311306723   -0.5545755766    0.9360135163
 H    0.4969973093   -1.7960269960   -1.1589852063
 H   -1.3264138231   -0.6635140798   -2.7843316199
 H    0.0390130337    1.0241090068   -4.1604725537
 H    2.5364051865    0.6591494974   -3.2701509561
 H    1.8013803679    2.0058949690   -2.4165357266
 H    2.6059829668   -0.5124916745   -1.1867336942