21

 C    0.0674588269    1.3262497004   -0.1277542343
 O    0.0215082810   -0.0755428065   -0.0257052281
 C   -1.2968239580   -0.5801494053   -0.0105650813
 C   -1.2278134804   -2.0989007229    0.0681257520
 C   -2.6171701943   -2.7500754973    0.1073653854
 O   -3.4029874763   -2.3935779905   -1.0182156921
 C   -2.5018554995   -4.2649214772    0.2042732854
 C   -3.5743637214   -5.1475689519   -0.2603910053
 O   -2.4023087188   -4.9265278332   -1.0644457115
 H    1.1198781730    1.6209083629   -0.1378805070
 H   -0.4113481872    1.6862185723   -1.0525181557
 H   -0.4297381478    1.8163635610    0.7250595713
 H   -1.8524058283   -0.1770454150    0.8555578069
 H   -1.8448729941   -0.2740038996   -0.9144634747
 H   -0.6701287161   -2.4806398841   -0.7958735117
 H   -0.6634139750   -2.3849023785    0.9641948816
 H   -3.1640778067   -2.3839331061    0.9870033808
 H   -3.0881108606   -2.9559940556   -1.7404546290
 H   -1.8107633485   -4.6389395138    0.9602241800
 H   -3.6643015047   -6.1503355918    0.1523925406
 H   -4.4870416332   -4.7064288871   -0.6524807832