19

 C   -0.6525091463    1.3141139164    0.2402658137
 C   -0.0607417251   -0.0697573487    0.0033987459
 C    0.7506474242   -0.3429437891   -1.3016178927
 C    1.7641785079    0.7369535559   -1.7221311416
 O    2.7855227171    0.1921112696   -0.8462708069
 C    1.9298183708   -0.9016707936   -0.4609872638
 C    1.1536559528   -0.6021304819    0.8511870197
 C    1.9042765833    0.2784501514    1.8186092621
 O    1.4737045739    1.2685776095    2.3524654487
 H    0.1014786035    2.1029508353    0.2211373015
 H   -1.4012933964    1.5322803114   -0.5303498542
 H   -1.1409980263    1.3678468565    1.2162556681
 H   -0.8684653319   -0.8059183659    0.0649645190
 H    0.2483937978   -0.8910626074   -2.0976047173
 H    2.0766088389    0.6756815252   -2.7718450979
 H    1.5241391724    1.7781768868   -1.4827783657
 H    2.4082492993   -1.8759423050   -0.5878862347
 H    0.9071083205   -1.5211331920    1.4002429252
 H    2.9344773936   -0.0856536343    2.0361245909