17

 C    0.1847386914    1.5350708816   -0.2153364641
 C    0.0183496294    0.0182110193   -0.0989376879
 O    0.7469464723   -0.5939214349   -1.1701014570
 C    1.3668157640   -1.8042988904   -0.7336371755
 C    1.4460878976   -1.7037728523    0.7722976200
 O    2.0242649794   -0.4716211907    1.2215523185
 C    0.6000482597   -0.5804165276    1.1729197937
 C   -1.4652581257   -0.3412876344   -0.2205923459
 O   -2.2411016395   -0.3365965916    0.6997718710
 H    1.2407277314    1.7821374848   -0.0860050904
 H   -0.1404806607    1.8797989653   -1.2008065225
 H   -0.4078184399    2.0437117891    0.5499785337
 H    0.7733912690   -2.6881382077   -1.0153601250
 H    2.3455761045   -1.8719058670   -1.2194425275
 H    1.6273289969   -2.5794412706    1.3885460594
 H    0.0558772988   -0.5129633565    2.1083117931
 H   -1.7712177987   -0.5990998763   -1.2595404238