19

 O    0.0091117052    1.5345527750    0.0545030932
 C    0.0710762227    0.1186232694    0.1937897795
 C   -1.2947737790   -0.5285978559    0.0128117956
 C   -1.9228193925   -0.5851879668   -1.4239821714
 C   -2.1774468232   -2.1125000941   -1.2501374281
 C   -1.0704004557   -3.0636527588   -1.7683495879
 O    0.1839825910   -2.3840585662   -1.6502371744
 C   -0.3590047994   -3.0027538632   -0.4763876188
 C   -1.4454330905   -2.0781988341    0.1314500174
 H   -0.1934458352    1.7239274479   -0.8670542341
 H    0.7966827595   -0.3191802246   -0.5026580825
 H    0.4337842816   -0.0622347017    1.2125518091
 H   -1.9889189243   -0.0421809162    0.7055281997
 H   -2.8307579476    0.0093929445   -1.5439049899
 H   -1.2285312140   -0.3454039460   -2.2334593761
 H   -3.1972585333   -2.4854263664   -1.3370136373
 H   -1.1312262128   -3.8441403996   -2.5191097121
 H    0.2768713093   -3.7233546381    0.0263633575
 H   -1.9122686919   -2.4846991249    1.0293744805