21

 C    0.0037314175    1.3006690659    0.2302391565
 O   -0.0841599784   -0.0097645382   -0.2822581323
 C   -1.3565947340   -0.5889994973   -0.1243999417
 C   -1.3193897675   -2.0552912133   -0.6264481923
 C   -0.8424439016   -2.4477350589    0.8045501681
 C   -1.6376411045   -1.1988295968    1.2962317358
 C   -3.1073428134   -1.5532109458    1.3422855392
 C   -3.6338737378   -2.2039276296    0.3031166006
 C   -2.7523370614   -2.5579806295   -0.8748638062
 H    1.0145094286    1.6619437262    0.0255194520
 H   -0.7199197879    1.9735714224   -0.2559421855
 H   -0.1707472784    1.3373091906    1.3156607034
 H   -2.1369064930    0.0743253693   -0.5266269005
 H   -0.6545301942   -2.2565679566   -1.4692086606
 H   -1.1463071463   -3.4192232037    1.2012017023
 H    0.2341973248   -2.3104804339    0.9110203910
 H   -1.2895491010   -0.6589008848    2.1780766925
 H   -3.7026583823   -1.2706108777    2.2051566054
 H   -4.6801924958   -2.4943687264    0.2770761176
 H   -3.1543674269   -2.1149298604   -1.7971089474
 H   -2.7515966366   -3.6446498416   -1.0416608579