9

 O    0.1192475146    1.3095160396    0.1700598112
 C    0.0751460773   -0.0163310510    0.0126334745
 N    0.1107382224   -0.6922947002   -1.1134105291
 C    0.0345882987   -1.9853212888   -0.6696145565
 N   -0.0441028992   -2.1397900847    0.6360931385
 N   -0.0165038297   -0.8415149983    1.0702756864
 H    0.1834719778    1.6928287042   -0.7141399263
 H    0.0380676418   -2.8316668515   -1.3398751301
 H   -0.0621390437   -0.6207056492    2.0503133614