12

 O    0.4854046804    0.7193449484   -0.7792801030
 C   -0.0381182981    0.0785522306    0.3650041677
 C   -1.4209580578   -0.4247758416    0.1160844497
 C   -2.1589958164   -0.5444523433   -0.9847660596
 O   -3.3939517333   -1.0683057046   -0.6420568672
 C   -3.3909502915   -1.2719574945    0.7089417721
 O   -4.2828588277   -1.7129069466    1.3562420163
 O   -2.1685336528   -0.8714158942    1.1915901325
 H   -0.0014746934    1.5406078534   -0.9073836534
 H    0.6355086664   -0.7570534180    0.5885501101
 H   -0.0427592761    0.7264804332    1.2548752591
 H   -1.9762960999   -0.3337942728   -2.0222139343