19

 C   -0.0894790625    1.5245907770    0.0069811040
 C    0.0129786692    0.0183088903   -0.0205732612
 C    1.3465879584   -0.6597877320   -0.3130197865
 C    0.7105756734   -0.8005699444    1.0432936566
 C    1.3177625534   -0.3070898030    2.3237693401
 O   -0.0059266644   -2.0201331243    1.2260631906
 C   -1.0962560961   -2.0877539893    0.4078212162
 O   -1.8089057904   -3.0467932338    0.3723538940
 C   -1.2133909086   -0.7907843570   -0.3950435439
 H    0.8238964202    1.9851607792    0.3942768220
 H   -0.2536443761    1.9224181005   -1.0007766126
 H   -0.9246280429    1.8551453311    0.6350170381
 H    1.3703865433   -1.5337651997   -0.9570540658
 H    2.2154316926   -0.0145201404   -0.3938294846
 H    1.8409695289    0.6385878146    2.1626757154
 H    0.5480010970   -0.1534075043    3.0865250995
 H    2.0405721059   -1.0321834289    2.7105789763
 H   -2.1415070203   -0.2867087106   -0.1026936680
 H   -1.2991674711   -1.0299407249   -1.4590722402