16

 C    0.1509256788    1.3251509443   -0.1707388249
 N   -0.2153307000   -0.0397564866    0.1646230845
 H   -0.5201282680   -0.6049856503   -0.6144472372
 C    0.5215766363   -0.7581325062    1.0762535906
 N    1.2302500620   -0.1786466150    2.0848233563
 C    1.8137202910   -1.1587912870    2.8847335855
 C    1.4764937248   -2.3731873869    2.3702327303
 C    0.6562280329   -2.1410204048    1.2124919113
 C    0.0786520058   -3.0739418476    0.3300374056
 N   -0.4114645907   -3.8066482084   -0.4263566159
 H    1.1980974349    1.4323563661   -0.4921238024
 H   -0.4970851529    1.6731670237   -0.9769170983
 H   -0.0189890398    1.9912076933    0.6839508867
 H    1.2891146318    0.8103617693    2.2495752411
 H    2.4169519066   -0.8846356810    3.7333512352
 H    1.7710532162   -3.3386206630    2.7483159215