17

 N    0.0364194976   -1.0889942553    0.1097770181
 C    0.0055183458    0.0658104108    0.0508776206
 C   -0.0316932366    1.5081271743   -0.0563162564
 C    0.5709585162    2.0980832382   -1.3427898904
 C    1.3153921270    2.2217861450   -0.0462473788
 O    1.3961367753    3.4732704838    0.5548788909
 C    0.4790838332    3.6420247534    1.6336762488
 C   -0.9447469544    3.4714004337    1.1318375197
 N   -1.1306968582    2.0977146025    0.6616979040
 H    0.9369535946    1.4115950482   -2.0971398882
 H    0.1034266814    3.0034498915   -1.7131176912
 H    2.1977704832    1.6046779454    0.1068338173
 H    0.6897175052    2.9229877193    2.4381678436
 H    0.6404153190    4.6541529161    2.0104747320
 H   -1.6549236001    3.6563797139    1.9455042001
 H   -1.1246411294    4.2294049816    0.3511779093
 H   -1.9973623398    1.9913893875    0.1482470604