21

 C   -0.1141551124    1.5111515434    0.0029505644
 C    0.0084571245    0.0176853980   -0.0059573712
 C    0.8736270500   -0.8202215204   -0.9866245617
 C    1.1323663685   -2.1278190557   -0.2625205247
 C    0.9458092682   -1.9537714166    1.2328087839
 C   -0.1441021298   -0.8987013185    1.2011916480
 C   -1.0497435537   -1.0755675660   -0.0107425348
 C   -2.5464366440   -1.0016909673   -0.0080522767
 C   -0.1798073556   -1.9085729955   -0.9913677808
 H    0.8244082203    1.9886922579    0.3114707967
 H   -0.3710657036    1.9008308256   -0.9893440163
 H   -0.8937702904    1.8395458815    0.6983311330
 H    1.4737072680   -0.4375719571   -1.8016807256
 H    1.8541657342   -2.8246673466   -0.6730976150
 H    0.6205599575   -2.8785322968    1.7239211336
 H    1.8573211129   -1.6007721215    1.7294980409
 H   -0.5701855182   -0.4902698895    2.1115188633
 H   -2.9030981232   -0.2363423621    0.6892501902
 H   -2.9399352902   -0.7531118300   -1.0009616910
 H   -2.9944884076   -1.9566949437    0.2941857536
 H   -0.5391313053   -2.5171318193   -1.8107432298