19

 O   -0.0029117953    1.3862171761   -0.0822304336
 C   -0.0103190141   -0.0227361196    0.0307401528
 C   -1.4165847610   -0.5782874302    0.1147199473
 C   -1.5964679502   -2.1123619316    0.0830286589
 C   -3.0529175226   -2.2245880567   -0.4654865331
 C   -3.3925611783   -0.7319343539   -0.6422696150
 O   -3.6416988872   -0.1537182111    0.6337381426
 C   -2.3346830996   -0.0004208439    1.2146186282
 O   -2.1625024586   -0.1689068187   -1.0601531917
 H   -0.6064276993    1.6022898376   -0.8032726425
 H    0.5059549147   -0.5007364273   -0.8167804235
 H    0.5447478268   -0.2738953831    0.9410148687
 H   -0.8731574154   -2.5680880628   -0.5981195091
 H   -1.4711933422   -2.5663040136    1.0686843654
 H   -3.0892543249   -2.7520258962   -1.4218599880
 H   -3.7447926411   -2.7072270602    0.2268783339
 H   -4.2005066404   -0.4733876265   -1.3262385349
 H   -2.2687278117   -0.5550080142    2.1570509253
 H   -2.1279683496    1.0584978061    1.3943723482