18

 C   -0.3819929854    1.4299473372    0.3214089697
 C    0.2700672901    0.1285580975   -0.1651038664
 C    1.0138239284   -0.5596326768    0.9536903335
 O    0.2552768374   -1.2888982587    1.9245907644
 C    1.1838910829   -2.0262677495    1.1088905399
 C    0.5539846660   -3.0720105279    0.2045181812
 O    0.0814466164   -4.1688663464    0.9546064925
 C    2.3652769791   -2.4882577263    1.8243850861
 N    3.3228016369   -2.8483342201    2.3615339135
 H    0.3666582511    2.1262404268    0.7133346329
 H   -0.9085285259    1.9285924501   -0.4966991325
 H   -1.1032859074    1.2273153687    1.1185022876
 H   -0.4930849989   -0.5345997341   -0.5801916414
 H    0.9848482460    0.3434357806   -0.9692148147
 H    1.8037665188    0.0457890862    1.4032721071
 H   -0.2429136698   -2.6046838339   -0.3862512388
 H    1.3066925208   -3.4661989430   -0.4850583028
 H   -0.5689052066   -3.8324046102    1.5820554482