14

 O   -0.1753906861   -0.0074901632   -0.3587869465
 C   -0.0069674866    1.0514274804    0.2010063507
 C    1.1921103479    1.8437182706    0.1035977560
 C    2.1864921254    2.5286424800    0.0445146281
 C    3.3740926664    3.3422454581   -0.0522528864
 C    4.0696359011    3.4972112215   -1.4363550910
 O    4.0663308499    4.9305670192   -1.3157537956
 C    3.2256669491    4.8885126665   -0.1504442999
 H   -0.7916009180    1.4952539728    0.8470962079
 H    4.0848078286    3.0527573142    0.7270853258
 H    5.0813090059    3.0874130993   -1.5171416280
 H    3.4607519380    3.1475159930   -2.2785453484
 H    2.2022995821    5.2219604759   -0.3616542360
 H    3.6371831963    5.4676547517    0.6823941133