20

 C    0.0124073377    0.9033947246   -0.9230197912
 C    0.0626178754    0.0648471159    0.3389004922
 O    1.0228360510    0.0563744773    1.0739154752
 C   -1.1539844830   -0.8178614417    0.6299684666
 C   -0.8963949164   -2.2160644952    0.1211531054
 C   -1.3297207910   -2.7103842512   -1.2034163438
 N   -1.9943915277   -3.2612583659   -0.0044210878
 C   -1.0239317175   -4.2745103705    0.5503335563
 C    0.0772179012   -3.2046973804    0.7659074139
 H    0.9707633607    1.3974077388   -1.0868771711
 H   -0.2419521992    0.2786259723   -1.7866463106
 H   -0.7792722450    1.6570721528   -0.8351337728
 H   -1.2998126560   -0.8425283748    1.7146865931
 H   -2.0592318565   -0.4200329383    0.1610284473
 H   -1.9864539171   -2.0766516798   -1.7925826681
 H   -0.6784399986   -3.3562815514   -1.7902924399
 H   -1.4183809724   -4.6997750578    1.4748603127
 H   -0.8015333982   -5.0875742564   -0.1488389711
 H    1.0394200306   -3.3407457276    0.2651131659
 H    0.2627007820   -2.9879341405    1.8190601775