18

 C    0.0432075834    1.4246367119    0.0444800470
 O    0.0261597993    0.0181588708   -0.0153373820
 C    0.6434981463   -0.5828066187    1.1011619877
 C    0.5711987204   -2.0656587551    0.9374224094
 C    0.0228907853   -2.7994761505   -0.0867038729
 N    0.2345784321   -4.0882200223    0.2761213750
 C   -0.1283225167   -5.3074822454   -0.4163668764
 N    0.8781966460   -4.1507314590    1.4579022315
 N    1.0817708785   -2.9271444680    1.8591896865
 H    1.0710646201    1.8191323758    0.0734128211
 H   -0.4529612327    1.7956240823   -0.8553607796
 H   -0.4937507274    1.8017110600    0.9290364918
 H    1.6953061294   -0.2612345038    1.1890898742
 H    0.1442718862   -0.2793938107    2.0371653787
 H   -0.4751398879   -2.5152466195   -0.9967392740
 H    0.3542573892   -5.3538756087   -1.3965798558
 H    0.2143070439   -6.1402633159    0.1975277712
 H   -1.2123659552   -5.3709908933   -0.5454639434