21

 C    0.0639691134    1.5804736238   -0.1071480703
 C   -0.0300523583    0.0587575267    0.0282019750
 C    0.9279031662   -0.4982367348    1.0890988448
 C    0.7844513188   -1.9994446151    1.3020965965
 C    1.3549864746   -2.5749140963    2.6356480184
 C   -0.1141035453   -2.9026468203    2.9594377986
 O   -0.5581524648   -2.3998799999    1.6809827885
 C    1.2469614179   -2.8152689455    0.1019063904
 O    2.1266481409   -2.4871246001   -0.6512598215
 H    1.0740275876    1.8922952496   -0.3953134305
 H   -0.6289123371    1.9536587589   -0.8675397646
 H   -0.1793712208    2.0792988763    0.8377986133
 H   -1.0527503327   -0.2312620586    0.2939279556
 H    0.1890568194   -0.4078722940   -0.9392352503
 H    1.9678997306   -0.3021341741    0.8017074672
 H    0.7511338179    0.0066389901    2.0468720676
 H    2.0129201319   -3.4398568322    2.5302452483
 H    1.8402300897   -1.8318693569    3.2697754883
 H   -0.3499022874   -3.9657247968    3.0829089851
 H   -0.5542822019   -2.3428565043    3.7930565129
 H    0.7042913996   -3.7827418566   -0.0026941432