20

 C    0.0465060799    1.3704514602   -0.2560037229
 C    0.0982120734   -0.1039101753    0.1713152438
 C    0.7039843374   -0.2700454126    1.5723440808
 C   -1.2882917278   -0.7203481067    0.1185385825
 C   -1.9753062478   -1.1694820506   -1.1393558086
 O   -1.1422679475   -1.4616245041   -2.2579363029
 C   -0.3715119662   -2.5106058401   -1.8643419407
 N   -0.5478167838   -3.0059081419   -0.7067086939
 C   -1.5783198206   -2.2017318038   -0.0875363419
 H    1.0460272564    1.8171878386   -0.2391105732
 H   -0.3543626469    1.4737995480   -1.2688901089
 H   -0.5890476450    1.9550318101    0.4198318971
 H    0.7457637692   -0.6343032752   -0.5349612016
 H    0.7672456791   -1.3263779022    1.8496762778
 H    1.7123131857    0.1544869341    1.6154714907
 H    0.0957319193    0.2425398337    2.3272745082
 H   -1.9903006066   -0.2667690172    0.8172745388
 H   -2.9699411406   -0.8583461991   -1.4322935200
 H    0.3486742975   -2.8452530115   -2.6010172916
 H   -2.2618037051   -2.7214051342    0.5730394565