13

 N   -0.0115818396   -1.0640893054   -0.3788893615
 C   -0.0065087576    0.0561745797   -0.0959462406
 C    0.0177593959    1.4751842402    0.2667218751
 C    1.4071374769    2.0837225478    0.1599436267
 C    1.9050031816    2.5998000195   -1.1636490107
 C    1.5475494309    3.5671147641   -0.0614242180
 H   -0.6792100266    2.0105440220   -0.3887550209
 H   -0.3719910869    1.5764489939    1.2868729257
 H    2.1424799984    1.6137519431    0.8052434963
 H    2.9510198311    2.4559104469   -1.4078374389
 H    1.2381674736    2.5340544371   -2.0170531089
 H    0.6409787537    4.1528351788   -0.1747267304
 H    2.3481130086    4.0863825221    0.4527933461