18

 C    0.0025472538   -1.2518104394    0.0268047894
 C   -0.0220209327   -0.0505447452    0.0741702923
 C   -0.0100766389    1.4060777952    0.1225743451
 C    1.4015837951    2.0086603342   -0.1049449385
 C    1.4066159484    3.5073337183   -0.0402657031
 C    1.5044019525    4.3726340791   -1.1084619568
 N    1.4428159413    5.6566829727   -0.6283677958
 C    1.3075254895    5.6340747197    0.7358551799
 C    1.2805484241    4.3177709817    1.1298790135
 H    0.0091476480   -2.3126223887   -0.0113017443
 H   -0.6951178752    1.8097545013   -0.6330330666
 H   -0.3949819051    1.7473870668    1.0913396735
 H    2.0796627975    1.5882065048    0.6463161952
 H    1.7711524683    1.6718787019   -1.0789208566
 H    1.6177490615    4.1759704940   -2.1630329670
 H    1.5040673689    6.4870384518   -1.1901736558
 H    1.2484373525    6.5482041829    1.3044075084
 H    1.1888806705    3.9652945290    2.1466486972