18

 C   -0.0448006469    1.4851926420   -0.0152255298
 C   -0.0071959273   -0.0183727596   -0.1246199148
 C    0.7549390796   -0.7293288397   -1.1927222315
 N    1.2744722883   -0.6599058938    0.1936584220
 C    1.1671718156   -2.0253676677    0.7533443630
 C    0.5455201347   -2.8741846984   -0.3285808081
 C    0.3425228952   -2.1508692237   -1.4421114190
 C   -0.1830316930   -2.5899091113   -2.6791674458
 C   -0.6185170932   -2.9187306003   -3.7534852085
 H    0.8877072411    1.9221018120   -0.3819768276
 H   -0.8763595482    1.8971626378   -0.5968652856
 H   -0.1732763127    1.7946910942    1.0278509640
 H   -0.9073885342   -0.5341598704    0.2122637225
 H    1.2816617952   -0.1810081806   -1.9692692205
 H    2.1685324923   -2.3871909418    1.0257262079
 H    0.5760396029   -2.0138353853    1.6788462975
 H    0.2931658754   -3.9200976333   -0.2057396414
 H   -1.0060022748   -3.2224642201   -4.6941571942