14

 O   -0.4811399574    0.1223352191   -0.1386390606
 C   -0.1974571510    1.2632903449    0.0091557684
 O   -1.0457860121    2.3217608181    0.3228302910
 C    0.0358711246    3.2654610352    0.1002556396
 C    1.0945891641    3.0376574430    1.1119826369
 C    1.0219991741    2.1452307821   -0.1382660259
 C    2.1522870790    1.9462063419   -1.1171009328
 C    3.2362147492    1.1248977713   -0.5703231567
 N    4.0945884003    0.4907976257   -0.1290926493
 H   -0.1904543515    4.1572700884   -0.4664117825
 H    1.9328744074    3.7290039799    1.1043964670
 H    0.8297322130    2.6398417647    2.0858246272
 H    1.7795960886    1.4730406558   -2.0322328181
 H    2.5715973217    2.9159235101   -1.4085917842