20

 C   -0.1340112778    1.5172655544    0.0027881715
 C    0.0248905143   -0.0095923466    0.0140782645
 C    0.7398236593   -0.4481801305   -1.2603796965
 O    0.7891161529   -1.8640189878   -1.5092109568
 C    1.5459011677   -2.6671586352   -0.7179791897
 N    1.6391820704   -2.7508419995    0.5391674093
 C    0.7903163034   -1.9916386754    1.4536285089
 C    0.7754188300   -0.4703021284    1.2792337226
 O    2.0942764972    0.0689783165    1.3243926712
 H    0.8449972714    2.0028156443    0.0472818139
 H   -0.6529689481    1.8607616296   -0.8977548135
 H   -0.7114286446    1.8515698919    0.8700423774
 H   -0.9697052031   -0.4756979702    0.0272318145
 H    0.2278634020   -0.0455530527   -2.1372752950
 H    1.7650052865   -0.0573688847   -1.2552838493
 H    2.1094071659   -3.3720033904   -1.3326275315
 H   -0.2404065969   -2.3650710980    1.3760474952
 H    1.1369594785   -2.2166350072    2.4671631747
 H    0.2480119057   -0.0536399262    2.1480098407
 H    2.6974549954   -0.6086500538    0.9993146176