20

 C    0.0771512693    1.5381500721    0.1186100161
 C    0.0013325254    0.0193269544   -0.0783636312
 C   -1.4142407355   -0.5294077921   -0.0805170473
 C   -2.2583914264   -0.4792729419    1.2525999765
 N   -2.7150154589   -1.8862902101    1.0954554562
 C   -3.0868491692   -2.1317382845   -0.3826612531
 C   -3.3667837763   -0.9781330735   -1.2708730005
 C   -2.3802948259   -0.0795906695   -1.1548471929
 C   -1.6738615286   -2.0677290091    0.0395821321
 H    1.1171238780    1.8762122288    0.1490787728
 H   -0.4206668437    2.0771372996   -0.6937845283
 H   -0.3986856374    1.8409124284    1.0576204916
 H    0.4951337643   -0.2559387923   -1.0193800082
 H    0.5682689856   -0.4767184194    0.7203656095
 H   -1.6097669641   -0.4501512389    2.1329110875
 H   -3.0450685701    0.2774435527    1.3374374222
 H   -3.6036567743   -3.0780253932   -0.4829714589
 H   -4.2688962666   -0.8800651914   -1.8611003053
 H   -2.3571009513    0.9069704160   -1.6020556039
 H   -0.9480972346   -2.8763414360    0.0445968753