19

 C   -0.0513510762    1.5335071536   -0.2045500687
 C    0.0539236143    0.0406434543    0.0166673840
 C    1.3193001649   -0.7417032090   -0.1130265664
 O    2.4567683268   -0.0043388461    0.3523750552
 C    1.9499133166   -0.0527518143    1.7090182215
 C    2.7876588658   -1.0082418574    2.5593114178
 C    1.8721565478    1.2889437257    2.4100703126
 O    2.3163728872    2.3273040121    1.9994619913
 C    0.6249112841   -0.6764217981    1.2355481803
 H    0.9064957557    2.0265982176   -0.0358772360
 H   -0.3587640666    1.7334678036   -1.2364081684
 H   -0.7967265818    1.9857031397    0.4581619803
 H   -0.7953611011   -0.5295074305   -0.3597424021
 H    1.5058524845   -1.5616583637   -0.7971862615
 H    3.8199384781   -0.6510226897    2.6161373954
 H    2.3869309847   -1.0863032637    3.5758186431
 H    2.7838916160   -2.0031370065    2.1071346425
 H    1.3590004720    1.2227385380    3.3996839752
 H    0.0834915472   -1.4374866157    1.7824614637