21

 C    0.0053479456    1.4865870739   -0.4032964394
 C    0.0179214072    0.0486690418    0.1329981516
 C   -1.3667658210   -0.5328886994    0.2694506544
 C   -2.3541011954    0.0031490908    1.3111203693
 C   -3.2710364309   -1.1770953859    1.5960003718
 C   -4.4427497996   -1.0503681538    2.5154263233
 C   -2.8926250805   -2.2586226385    0.9030581518
 C   -1.7286581712   -1.9422920258    0.0290561840
 O   -2.0105345939   -0.9126299500   -0.9562164461
 H    1.0233966925    1.8673227143   -0.5272886035
 H   -0.4949233870    1.5269194582   -1.3754591084
 H   -0.5225579918    2.1642661214    0.2759534086
 H    0.5959647136   -0.5903220374   -0.5432791023
 H    0.5175592601    0.0164063584    1.1097798362
 H   -1.8364760335    0.3366759372    2.2213668379
 H   -2.9123855652    0.8671846035    0.9307174715
 H   -5.1615199781   -0.3106808168    2.1401446188
 H   -4.9676648257   -2.0023249124    2.6318004721
 H   -4.1324661692   -0.7048097909    3.5099688561
 H   -3.3813972297   -3.2253738351    0.9281680333
 H   -1.0177535762   -2.6974276835   -0.2946130611