17

 O    0.0893101478    1.3851071067   -0.1419806148
 C   -0.0052467447    0.0089437789   -0.3523983059
 C   -1.3268914700   -0.5354812404    0.1601629261
 O   -2.1257784910    0.2248939162    0.6739466490
 C   -1.6131878280   -1.9998784641    0.0206060143
 C   -2.4853371579   -2.5982103405    1.1411519049
 C   -3.0995870307   -2.3515810166   -0.1832591775
 C   -0.6211326014   -2.8349821022   -0.5950716536
 C    0.2086899122   -3.5369158859   -1.1107278772
 H   -0.7419694966    1.6335865073    0.2929949628
 H    0.0801614811   -0.2471206781   -1.4210037113
 H    0.8086795719   -0.5380850918    0.1509385399
 H   -2.2458903174   -3.6142076288    1.4292905616
 H   -2.7230706973   -1.9121989003    1.9453463559
 H   -3.7575545943   -1.4968636022   -0.2851984989
 H   -3.2967376206   -3.1921964331   -0.8367937256
 H    0.9435354670   -4.1534143350   -1.5666126997