16

 C    0.5268263591    1.0361101837    0.4329030162
 C   -0.3003211281    0.1104170824   -0.4635700912
 N    0.3898226715   -0.8807911846   -1.2759869554
 C    1.6386577411   -0.9664714132   -1.2341388905
 O    2.2433737962   -1.9209933044   -2.0198350962
 C    3.6181153790   -1.9914648303   -1.9679706038
 N    4.0293222645   -3.0012338072   -2.7734565505
 O    4.3260836147   -1.2791580361   -1.3003931466
 H    1.1018392374    0.4759726572    1.1776980424
 H    1.2260718375    1.6477356458   -0.1468354789
 H   -0.1410559601    1.7152795917    0.9711211347
 H   -1.0274159735   -0.4391142753    0.1485330770
 H   -0.9056362412    0.7129163883   -1.1534449583
 H    2.3528370643   -0.3851362987   -0.6534400276
 H    3.3751608386   -3.4625970338   -3.3806758272
 H    5.0159349289   -3.1033025355   -2.9302435941