19

 C   -0.2877769075    1.5357315596   -0.0545645617
 C    0.1115382631    0.0513276219    0.0311072505
 C    0.8405577218   -0.4364904814   -1.1846787141
 C    2.1038779184   -0.8653733288   -1.2784679997
 C    2.4811804196   -1.3258568348   -2.6799494612
 O    2.8955455155   -2.6816696041   -2.7268406455
 C    1.1872065561   -1.0802448779   -3.4663507943
 O    0.1265626762   -1.9317626902   -3.0080610081
 C    0.1869228990   -0.5569590917   -2.5363754059
 H    0.5959479975    2.1718737332   -0.1630354132
 H   -0.9445026877    1.7278437523   -0.9094047183
 H   -0.8221939004    1.8447802093    0.8486520451
 H    0.7382135346   -0.1080893188    0.9151052848
 H   -0.7947991352   -0.5528499741    0.1745548771
 H    2.7936388449   -0.9768118223   -0.4486244805
 H    3.3135473388   -0.7462738035   -3.0953520561
 H    2.1069775764   -3.1971325056   -2.5108629595
 H    1.2012993470   -0.8777479039   -4.5330887942
 H   -0.6525018781    0.0614729807   -2.8388520452