20

 C   -0.0444169845    1.5369461283    0.0627354241
 C    1.2769780037    0.8114575998    0.0149546153
 C    2.2196213611    0.7620498675    1.2065684853
 C    2.7158332393   -0.6631654790    1.5096738389
 C    1.6860991056   -1.5549467959    2.2185879414
 O    0.5212869045   -1.8752229763    1.4801120410
 C   -0.3642160604   -0.7857231522    1.2671736179
 C   -0.0107109110    0.0252127344    0.0379713293
 H   -0.3186580325    2.0178680771    0.9974566379
 H   -0.3897148205    2.0627918427   -0.8207270630
 H    1.7869402132    0.8212027096   -0.9450611838
 H    3.0753715815    1.4196648607    1.0131405029
 H    1.7291980443    1.1690705898    2.1002057386
 H    3.0369395440   -1.1507746346    0.5810343282
 H    3.5972417597   -0.6156277238    2.1632836545
 H    2.1475458574   -2.5184571797    2.4605738604
 H    1.3994065336   -1.0785359363    3.1734826955
 H   -1.3617229854   -1.2243199176    1.1516823672
 H   -0.3935716793   -0.1442577122    2.1618614646
 H   -0.2919746843   -0.4494507624   -0.8977405662