22

 C   -0.0449599870    1.5640747562    0.0241528124
 C   -0.0212780481    0.0618309743    0.0178670939
 C   -0.7817619491   -0.8127275028   -0.9942434119
 C   -1.1070303130   -1.8370524952    0.1370865439
 C   -0.3366563635   -0.9631078609    1.1328106115
 C    1.0730914980   -0.7425781294    0.6602218017
 N    1.7921230566   -1.7619832565   -0.0549939755
 C    3.1805573412   -1.4667347197   -0.3929406650
 C    2.8513173500   -2.4491218497    0.6769365121
 H    0.4977544831    1.9730785901   -0.8375835080
 H   -1.0712445446    1.9469220168   -0.0226541476
 H    0.4203500341    1.9693890266    0.9291051205
 H   -1.6782380047   -0.3152360855   -1.3737167555
 H   -0.1944779408   -1.1853823967   -1.8372069740
 H   -2.1753872060   -1.8855238829    0.3589443262
 H   -0.7233979208   -2.8507261081   -0.0018066900
 H   -0.6127053142   -0.7925804789    2.1680858058
 H    1.6722623397   -0.1545393552    1.3648908580
 H    3.5141077219   -1.8032839493   -1.3706293244
 H    3.5871410312   -0.5063855689   -0.0790977345
 H    3.0369196409   -2.1463388048    1.7063635879
 H    2.9390074752   -3.5165676595    0.4946774824