15

 O   -0.0203379943    1.4030839184   -0.1730393524
 C    0.0387380110    0.0010800280   -0.0797948467
 C   -1.3559317113   -0.5780802991    0.2106248957
 O   -2.2817305731   -0.1318226274   -0.7966356588
 C   -2.5627979523   -1.1590872145   -1.7466824201
 C   -2.1817241804   -2.4761279500   -1.0972377978
 O   -2.4129879925   -3.5919623891   -1.4695247353
 C   -1.3815474224   -2.0905101410    0.1775102973
 O   -0.8627507971   -2.8618437969    0.9370470701
 H   -0.7347162760    1.6054300497   -0.7899173505
 H    0.4429913368   -0.4536838899   -0.9998138454
 H    0.7125524075   -0.2552530635    0.7429917835
 H   -1.7081859359   -0.1961845858    1.1745810482
 H   -3.6268621006   -1.1312225616   -2.0009380254
 H   -1.9872941592   -1.0231296972   -2.6752949124