17

 O   -0.7635028451    0.8893301641    0.4642795513
 C    0.1552332874    0.9934707233   -0.3107030309
 C    1.3031703083    1.9647571527   -0.2014559043
 C    1.1963272063    3.1868284729   -1.1276981176
 C    0.5404688469    4.3091141067   -0.3193899996
 C    0.2400766672    3.7510746591    1.0673059209
 C    1.4476287721    2.7925296677    1.1013296902
 O    2.5513753548    3.6558453117    0.7705195379
 C    2.0444546470    4.2236708840   -0.4221201296
 H    0.2133206159    0.3325516365   -1.2064548142
 H    2.2307084665    1.4178942297   -0.4168068956
 H    1.1286810013    3.1118066023   -2.2043738996
 H   -0.0368731690    5.0943081797   -0.7875360897
 H    0.3184179893    4.5121460599    1.8486460142
 H   -0.7107330489    3.2256545286    1.1453017560
 H    1.6561242716    2.2542445735    2.0220694631
 H    2.7011604083    4.9348172176   -0.9022260423