16

 O   -0.1749338814    0.0658597486   -0.3190215640
 C   -0.0883551123    1.2362019848   -0.0550809170
 C   -1.2598009168    2.2019004511   -0.0641255808
 C   -1.2048020963    3.2209008698    1.0607794047
 C   -0.6146949526    2.8641453010    2.3824002917
 N    0.0791310980    3.7848627007    1.4810996400
 C    1.2841010562    3.3072538431    0.8107183152
 C    1.2939313025    1.8613284354    0.3100513392
 O    2.3057793358    1.2261316015    0.1667191256
 H   -1.2312548959    2.7312094743   -1.0293469032
 H   -2.1918561107    1.6291161052   -0.0468730212
 H   -2.0151911932    3.9466501239    1.0390708633
 H   -0.9971125318    3.3064316884    3.2977681482
 H   -0.2220630250    1.8546324113    2.5076775555
 H    1.4609586411    3.9465373111   -0.0669018799
 H    2.1463622124    3.4428886496    1.4705657928