13

 N    0.0206133654    1.0994027928   -0.5338148993
 C   -0.0313720712   -0.0605613476   -0.0820879629
 O    0.9786476143   -0.9040806688    0.3989647376
 C    0.0400483660   -1.9872365125    0.6334411328
 C   -0.6296198356   -1.9056507997    2.0190567665
 O   -1.6443170198   -1.0051720896    1.5142931264
 C   -1.1347749058   -1.0737606941    0.1739754396
 C    0.4576128238   -3.2498742944    0.0746492215
 N    0.7661698112   -4.2766105933   -0.3562221878
 H    0.9670702332    1.4829151057   -0.5263775569
 H   -1.0691737349   -2.8481282676    2.3603869276
 H   -0.0047313953   -1.4613281262    2.7987582927
 H   -1.8881917613   -1.2763425346   -0.5854772177