15

 O    0.1604332363    0.0723737765    0.4207108137
 C    0.1006897275    1.2590287906    0.3063017911
 O   -0.9972696889    1.9814672927    0.6493257500
 C   -0.8287162559    3.3821578981    0.3698126508
 C    0.6644573153    3.6155049402    0.1006844771
 O    1.3915444934    4.0199681946    1.2548728881
 C    2.1718906473    2.9178120303    1.6888742034
 O    2.3959632170    2.1072772256    0.5582468982
 C    1.2105244926    2.2093318574   -0.2010459223
 H   -1.4395495436    3.6384823595   -0.5025425866
 H   -1.1756423612    3.9508073485    1.2345069548
 H    0.8255659861    4.3547907765   -0.6874535820
 H    3.1342505224    3.2757466774    2.0634034163
 H    1.6382094613    2.3567430301    2.4742220214
 H    1.4431764904    1.9976590819   -1.2456951941