18

 C   -0.0492383962    1.5067632212    0.0020454064
 C    0.0171509331   -0.0001404751    0.0157672594
 C   -1.2457751165   -0.7856430660   -0.3014164326
 O   -1.0374659219   -2.1066134625    0.2090142595
 C   -0.2065934112   -2.0017568138    1.3738138490
 C    0.7024795435   -0.8181788828    1.1141710510
 C    1.2967513308   -0.7496096003   -0.2730259741
 O    1.3823982310   -1.8494629616   -1.1272995038
 H    0.9085033355    1.9454772490    0.2977320851
 H   -0.2891151520    1.8869988118   -0.9978579554
 H   -0.8138744379    1.8810820613    0.6936008890
 H   -2.1178165012   -0.3114564806    0.1766237583
 H   -1.4517424782   -0.8871172122   -1.3724506203
 H   -0.8145454446   -1.8384646759    2.2765062129
 H    0.3152913510   -2.9589559505    1.4758589104
 H    1.2011288819   -0.3488234006    1.9555003251
 H    2.1867055701   -0.1366519638   -0.3801110794
 H    0.5796957329   -2.3746844178   -0.9993150506