16

 N    0.0761580087    1.4865725785    0.0445252926
 C    0.0026747217    0.0585519459   -0.0203847454
 C   -1.3196813910   -0.6579404189    0.0542496643
 N   -2.4449744063    0.1462696826   -0.3400047176
 C   -2.2893746116    0.4355475950   -1.6975043080
 N   -1.2162500040   -0.0228774086   -2.2513293237
 C   -0.4838820449   -0.7255582589   -1.2483530547
 C   -3.2799219089    1.2133501965   -2.3617237119
 C   -4.1481768997    1.8564388967   -2.8894614290
 H    0.4155031215    1.8785458851   -0.8276385361
 H   -0.8458693409    1.8791924870    0.2073917648
 H    0.8009789950   -0.4640926805    0.5036121829
 H   -1.5037784807   -1.4664062107    0.7511195649
 H   -3.3655250751   -0.0477762978    0.0230781985
 H    0.0926523817   -1.5825097144   -1.5776898147
 H   -4.9018442054    2.4274015826   -3.3737603268