15

 C   -0.1747807158   -1.2637549249   -0.2346876877
 C   -0.0902174181   -0.0699069644   -0.1274804672
 C    0.0031660621    1.3712705048    0.0062034414
 C   -0.2952142813    1.9689806667    1.4495138713
 N    1.0784496270    2.5116584630    1.4152636994
 C    2.1544061126    3.2024689791    1.8792596717
 N    3.1307390335    3.1358792012    0.9900744950
 C    2.6789076107    2.3871231279   -0.0789507631
 C    1.3918437894    1.9989013378    0.1916435884
 H   -0.2405591947   -2.3191011574   -0.3340789279
 H   -0.5952484630    1.8631618285   -0.7676236743
 H   -1.0743065594    2.7334774045    1.4848523292
 H   -0.4531132850    1.2191071661    2.2260220287
 H    2.1909374279    3.7176611101    2.8257800013
 H    3.3064842540    2.1913314570   -0.9329608065