19

 C   -0.4734758669    1.1442276345    0.4686173782
 C   -0.1744555060   -0.2631519116    0.2463287210
 C    0.0671741643   -1.4280209439    0.0566989670
 C    0.3904714459   -2.8341933763   -0.1961890777
 C    0.9947368216   -3.5607461901    1.0475467995
 C   -0.1644131462   -4.3790417465    1.5888070881
 C   -1.4833181337   -3.6592086737    1.8242085506
 C   -1.2095762228   -4.3506797932    0.5143493421
 O   -0.7714682216   -3.5887644821   -0.5818971729
 H    0.1759376944    1.7882954835   -0.1345010121
 H   -1.5098866165    1.3733092611    0.1973097367
 H   -0.3358874615    1.4231181062    1.5191300001
 H    1.0799155609   -2.8817319444   -1.0468198788
 H    1.8009741825   -4.2301690384    0.7320327133
 H    1.4074026510   -2.8414790329    1.7584871385
 H    0.0572357258   -5.2786227458    2.1506884178
 H   -2.1881048866   -4.1375857032    2.4965327408
 H   -1.4954003801   -2.5755098680    1.8471228326
 H   -1.7868898843   -5.2114591650    0.1982258551