13

 O   -0.0201681105    0.0492500275   -0.3191074734
 C    0.1014744373    1.2186516260   -0.1827775588
 C   -0.8481565056    2.4433552245   -0.0573231788
 O    0.3180156276    3.3003649705    0.0600831138
 C    1.2827293006    2.2206590381   -0.0484192819
 C    2.1450915568    2.0606486054    1.1019309110
 C    2.8481193827    1.9048790177    2.0638705015
 C   -1.6975668288    2.7280931830   -1.1931080855
 C   -2.3945991971    2.9416034037   -2.1483042355
 H   -1.4246016073    2.4306392807    0.8780572797
 H    1.8665919549    2.3045089588   -0.9754911398
 H    3.4754496045    1.7730267620    2.9110912368
 H   -3.0153562752    3.1363983020   -2.9882011891