14

 O   -0.0474388038    1.2851307142    0.0219296069
 N    0.0647176955   -0.1039460491   -0.0949831310
 C   -1.0562010540   -0.6739842562    0.0231595913
 C   -1.4381146732   -2.1115109449   -0.1121884639
 O   -2.2384107992   -2.4287429245    1.0489229983
 C   -2.8703577440   -1.7479376001   -0.0201912983
 C   -2.5404617322   -0.2317508424    0.1256899888
 C   -3.0194521232    0.4522202443    1.3080420302
 C   -3.4374484015    1.0112548384    2.2857166291
 H    0.8663147166    1.5753756270   -0.0757656916
 H   -0.9298535426   -2.9236692440   -0.6138937547
 H   -3.7428371520   -2.1960768059   -0.4791034171
 H   -2.8013868457    0.3229784594   -0.7842029511
 H   -3.7950237908    1.5036792637    3.1558223831