18

 C   -0.2256421541    1.5993397842   -0.0001480450
 C   -0.0569412005    0.0954752553   -0.0643917411
 C    0.8816069907   -0.5662543540   -1.0779395062
 C    2.1035518395   -0.2063888893   -0.1821816964
 C    2.6337254156   -1.6556233402   -0.1337348366
 C    3.4042411437   -2.0775884111    1.0853521256
 O    4.4131665986   -2.7389531032    1.0419016539
 C    1.0946136397   -1.7352465570   -0.0757904257
 N    0.9971092013   -0.5084850060    0.8706787342
 H    0.7217688789    2.1272799640   -0.1438879012
 H   -0.9211428145    1.9395213361   -0.7746852813
 H   -0.6337300401    1.8940333105    0.9719305465
 H   -1.0227917751   -0.4088610523    0.0678561513
 H    0.8429009923   -0.6177594743   -2.1714311815
 H    2.6784283598    0.7189064613   -0.1480502179
 H    3.1055777885   -2.0297075112   -1.0457399124
 H    2.9755560497   -1.7335963145    2.0496244710
 H    0.4568691561   -2.6066313184    0.0821537129