25

 C   -0.3671665828    1.6717479157   -0.0143007747
 C   -0.1504553528    0.1470606516    0.0979308521
 C    0.6851333439   -0.1530638390    1.3575272486
 C   -1.5441391581   -0.4958385697    0.2626277645
 C    0.5647422980   -0.3827861049   -1.1974791661
 C    2.0816827505   -0.1354972487   -1.2581404695
 O    2.3978913241    1.2335151917   -1.0528038292
 C    0.3585398558   -1.8845400852   -1.4640406716
 O   -0.8755238353   -2.0660765983   -2.1456389030
 H    0.5746858445    2.2050994438   -0.1370273629
 H   -1.0080192975    1.9077375834   -0.8715517488
 H   -0.8694375704    2.0475194570    0.8846647320
 H    0.1397230244    0.1587639192    2.2546035726
 H    0.8966704068   -1.2237325681    1.4640417377
 H    1.6359428594    0.3864393413    1.3414236754
 H   -2.1622643214   -0.3473280553   -0.6260664202
 H   -1.4914420751   -1.5725344955    0.4471517797
 H   -2.0552862687   -0.0397463312    1.1178877826
 H    0.1137114999    0.1324942927   -2.0550390167
 H    2.5874982030   -0.7670143614   -0.5098680502
 H    2.4377613107   -0.4629634318   -2.2472456140
 H    3.3537814861    1.3273873775   -1.0979620756
 H    1.1883982926   -2.2664981282   -2.0806322054
 H    0.3797275112   -2.4483344082   -0.5188373415
 H   -1.0442610886   -3.0104702383   -2.2142062457