14

 C   -0.0037667701    1.3725303639   -0.0057683296
 O    0.0260130290   -0.0575204458   -0.0457200494
 C    0.6230344377   -0.6100572672   -1.0913490754
 N    0.6952931510   -1.9214191386   -1.2041847684
 N    1.3686790552   -2.0543761768   -2.3894473295
 C    1.7046179239   -3.2888428557   -2.9675604445
 O    1.4466545309   -4.3577735634   -2.5010442215
 C    1.6506789401   -0.8202240133   -2.9000438974
 N    1.1976365647    0.1186047679   -2.1119085185
 H    1.0088710382    1.7846181217    0.0111588321
 H   -0.5386176993    1.7770478585   -0.8693581770
 H   -0.5290306039    1.6248725745    0.9153043195
 H    2.2435599205   -3.1266429176   -3.9192513457
 H    2.1785457722   -0.6784094180   -3.8318568047