19

 C    0.0054241513    1.6434245924    0.2446756969
 C    0.0200967151    0.1292556429    0.0741864084
 C    1.0638804252   -0.4770312806   -0.9472657626
 C    1.6704766922   -1.2847284629    0.2025680748
 N    2.1281497471   -0.2876292905    1.2026459770
 C    0.7092895653   -0.7060773983    1.1756168992
 N   -1.3191486805   -0.4117161712   -0.1535743322
 C   -2.0303127014   -0.2195346305   -1.2946369414
 O   -1.6221043076    0.3478313291   -2.2870436540
 H    1.0116607472    1.9976241678    0.4776239854
 H   -0.3404684365    2.1181991677   -0.6767702038
 H   -0.6667906996    1.9345739435    1.0595469350
 H    0.5754215534   -1.0788704494   -1.7113585320
 H    1.7381101009    0.2424802978   -1.4154944678
 H    2.1118225480   -2.2728597148    0.1670858063
 H    2.5714037952   -0.8005090775    1.9644648712
 H    0.2382043520   -1.1357838646    2.0540924119
 H   -1.8011669511   -0.8278364541    0.6284837183
 H   -3.0447988562   -0.6637369969   -1.2264641506