21

 C   -0.1120692750    1.4771895198   -0.5659718586
 C   -0.0148153336    0.1975983353    0.2728382436
 C   -1.3411078410   -0.5250739244    0.3508491658
 N   -1.7120977191   -1.3850232327   -0.7882901738
 C   -1.5164877686   -1.9914169710    0.5416591798
 C   -0.3850666764   -2.9862981871    0.6701636346
 C   -0.7449053120   -4.3104401063   -0.0372045716
 C    0.3140528862   -5.3109011762    0.0643264969
 N    1.1622284099   -6.0903528572    0.1579178180
 H    0.8526746875    1.9901355650   -0.6186397043
 H   -0.4291757156    1.2430324447   -1.5869004053
 H   -0.8392033137    2.1777650717   -0.1401237118
 H    0.7402275597   -0.4637072788   -0.1621606693
 H    0.3193459749    0.4396790523    1.2899949117
 H   -2.1412105470    0.0851654055    0.7725487935
 H   -2.7005355217   -1.2969064063   -1.0052489178
 H   -2.4178513504   -2.2863528193    1.0807163061
 H    0.5291991576   -2.5888265314    0.2244875105
 H   -0.1753153476   -3.1775750031    1.7282792624
 H   -1.6633912271   -4.7341116954    0.3864018457
 H   -0.9445459569   -4.1066152753   -1.0947633863