15

 C   -0.7035083855    1.4593322162    0.3188619311
 C   -0.1697073466    0.0853089506    0.0792203856
 C    0.3111429668   -0.4902535457   -1.0788212407
 C    0.4646152973    0.0483772633   -2.4731797296
 C    1.0144406176   -0.9439841940   -3.3959732353
 N    1.4514271189   -1.7580733933   -4.0893863848
 N    0.6547311774   -1.7455426226   -0.7015935350
 N    0.4099176163   -1.9537583688    0.6015938962
 N   -0.0884156644   -0.8466086678    1.0737832110
 H    0.0468518147    2.2322781024    0.1171593135
 H   -1.5755301284    1.6761277354   -0.3085423326
 H   -1.0071778305    1.5466678445    1.3637822085
 H   -0.5034130643    0.3879074437   -2.8624257344
 H    1.1210119417    0.9276794831   -2.4761623058
 H    1.0464342291   -2.4845282070   -1.2675754475