14

 O   -0.0865968824   -0.0733502049    0.0303450589
 C    0.0157153774    1.1321841202    0.0019647571
 N   -1.0532564719    2.0307913270   -0.0303303296
 C   -0.6930458233    3.4455260870    0.0193142244
 C    0.7905379116    3.2951562373    0.0088761609
 C    1.2118199400    2.0097763462   -0.0068463653
 C    2.6433839456    2.0631376074   -0.0232806325
 C    2.9459792785    3.3899669802   -0.0179803938
 O    1.8051774789    4.1707210219    0.0005582854
 H   -1.9961782103    1.7005517639    0.0875531063
 H   -1.0757499889    4.0015476463   -0.8472687735
 H   -1.0672107475    3.9397409616    0.9267195940
 H    3.3479539831    1.2472586628   -0.0374511955
 H    3.8715837592    3.9406874930   -0.0238617568