20

 C    0.1548709135    1.6453253430   -0.0977756930
 C   -0.0235190347    0.1371522957    0.1487725257
 C    0.5361234052   -0.6915325622   -1.0221163571
 C    0.6937106500   -0.2504482646    1.4361159642
 O    1.8804813007   -0.0408568144    1.5917164583
 C   -0.0940633835   -0.9053883817    2.5712837447
 C   -0.6591310706   -2.2735502374    2.1520459177
 O    0.7223539890   -1.0406467895    3.7025112404
 H    1.2177749147    1.8917938624   -0.1652678704
 H   -0.3328408148    1.9367526424   -1.0327100597
 H   -0.2807455535    2.2399839283    0.7113494049
 H   -1.0913368473   -0.0808662802    0.2636782337
 H    1.6129611570   -0.5265704514   -1.1175340017
 H    0.3677602232   -1.7632465728   -0.8782337850
 H    0.0543100921   -0.3963656553   -1.9589967420
 H   -0.9418078205   -0.2341476554    2.7971216481
 H   -1.1783122535   -2.7148125437    3.0061964125
 H   -1.3675090529   -2.1919673097    1.3223695236
 H    0.1538663726   -2.9464472795    1.8636758208
 H    1.5977152034   -0.7297713840    3.4178832243