15

 C   -0.0560605386    1.5123701721    0.0445217230
 C   -0.0088343552    0.0128685507    0.0044870388
 C   -0.0071837108   -0.7012286900   -1.1358009829
 C    0.0134078838   -2.1573348322   -1.1293844689
 O    0.0103465106   -2.8687043075   -2.1005956246
 O    0.0327508763   -2.7518326286    0.1173327831
 N    0.0680016245   -2.0424293986    1.3128935815
 C    0.0219363357   -0.7490788913    1.2471665575
 N   -0.0715437273   -0.0701055810    2.4565762937
 H    0.8566127498    1.9279694130    0.4905860001
 H   -0.1533357456    1.9267154996   -0.9606491119
 H   -0.8983698963    1.8570034584    0.6533888895
 H   -0.0326094690   -0.2350323332   -2.1140027058
 H    0.0629830739   -0.6852944263    3.2493157103
 H    0.4925693184    0.7653858349    2.5248760464