17

 O   -0.0024973426    1.4512593942    0.5397173363
 C    0.1451444644    0.1182028502    0.0854003634
 C   -1.2152304903   -0.5502468580    0.0120435827
 C   -1.4775921491   -2.0784205581    0.0311562843
 C   -1.0849598286   -2.0208927491    1.5212283728
 N   -1.9508698654   -0.7499028723    1.3738001629
 C   -2.8844431411   -1.6889582141    0.5690733009
 C   -3.8690175648   -1.0601649030   -0.3005933646
 N   -4.6756980271   -0.6025753890   -0.9905521762
 H   -0.5370819190    1.4182583866    1.3420892023
 H    0.5659144189    0.1760635911   -0.9246684211
 H    0.8662394195   -0.4378480295    0.7002420197
 H   -1.8368829321    0.0273338940   -0.6776747705
 H   -1.2427861320   -2.8339402702   -0.7241841434
 H   -1.5221736600   -2.7618202951    2.1950358452
 H   -0.0488403958   -1.8243043520    1.7861106634
 H   -3.3813568149   -2.4215778357    1.2099356818