15

 O    0.4530717980    1.1190061129   -0.3132796371
 C    0.0618456356   -0.2263654672   -0.1171258821
 C    0.6084569794   -0.8156578699    1.1760213007
 C   -0.3562187003   -1.2308159646    1.9983504378
 C   -1.7010581488   -0.9807453618    1.3906203368
 O   -1.9799087838    0.4086856814    1.1311902682
 C   -1.4546173008   -0.3857750363    0.0553556007
 C   -2.3673308393   -0.6226119882   -1.0939650065
 O   -1.9918778901   -0.9948345783   -2.1768537726
 H    0.0511717217    1.6240768028    0.4054848018
 H    0.3922417583   -0.7726795754   -1.0059000489
 H    1.6708788444   -0.8041211759    1.3896059518
 H   -0.2286515617   -1.6643268079    2.9825656420
 H   -2.5729520117   -1.5853511000    1.6218057164
 H   -3.4377517208   -0.4337542715   -0.8610426791