11

 C    0.1018438344    1.4199062049   -0.0589375706
 N    0.0707436513   -0.0227222040   -0.0121756512
 N    0.1929010684   -0.7925237882   -1.1517811087
 C    0.1169510805   -1.9937212463   -0.7078192040
 O   -0.0458470618   -2.0998524155    0.6306098956
 C   -0.0793617598   -0.7843310891    1.1148542380
 O   -0.2121220677   -0.4786274386    2.2658104534
 H    1.0548501228    1.7713210731   -0.4639429979
 H   -0.7153123785    1.8025444239   -0.6766746608
 H   -0.0150207330    1.7745567878    0.9660624091
 H    0.1700029735   -2.8977147378   -1.2921952229