9

 N   -0.1534098504   -1.1549921760    0.0021290292
 C   -0.0547947958   -0.0043505791    0.0126702320
 C    0.0226647272    1.4394466360   -0.0032213218
 O    0.5283526869    2.0787196918    1.1638900367
 C    1.3276615550    2.1495470702   -0.0119622669
 C    2.5821981981    1.4306053016   -0.0047369344
 N    3.6015223010    0.8879740461   -0.0231793715
 H   -0.8239632131    1.9348181141   -0.4748363410
 H    1.3666004111    3.1267828354   -0.4895281025