16

 C   -0.1281172718    1.5222094334    0.0908635549
 C    0.1015996466    0.0510174463    0.0411045529
 O   -0.7945911008   -0.8421732420    0.7038474944
 C    0.6150086846   -0.9467485902    0.9749864683
 C    1.2904956670   -1.7623103087   -0.1654641932
 C    0.3083452492   -2.1800078854   -1.2108212642
 C    0.7518787257   -0.7286741817   -1.1765414532
 C    1.4547514146   -0.0877095577   -2.2298218225
 N    2.0203952243    0.4658672849   -3.0765078260
 H    0.7691882148    2.0613765089   -0.2265137739
 H   -0.9458310555    1.8064520735   -0.5803312478
 H   -0.3895639649    1.8287269131    1.1065360850
 H    0.9368097176   -0.8771668903    2.0064948100
 H    2.3058016553   -2.1310012322   -0.1195105333
 H    0.7212951834   -2.7529185732   -2.0336372047
 H   -0.7125733501   -2.4112389388   -0.9365642570