22

 C   -0.8400556006   -0.6413699665    4.4812246143
 C   -1.2208393368   -1.7006694225    3.4438230629
 C   -1.0403332367   -1.1974634311    2.0098537482
 N   -1.3480802424   -2.2773435000    1.0675330939
 C   -2.6659338861   -2.4596942931    0.5155864154
 C   -3.8527070455   -1.5717894446    0.8145475324
 C   -1.5042816548   -2.0176534336   -0.3712545721
 C   -1.4949732623   -0.6644809884   -0.9800122399
 O   -1.8098330377    0.3767835600   -0.4456899131
 H   -0.9749383246   -1.0183834156    5.4993978578
 H    0.2078817825   -0.3397740439    4.3744619269
 H   -1.4543740744    0.2594699775    4.3750790699
 H   -0.6160758077   -2.6043501293    3.5799559446
 H   -2.2650400581   -2.0040635854    3.5916525128
 H   -1.6268592002   -0.2876811804    1.8428170652
 H    0.0094677608   -0.9261257108    1.8462211091
 H   -2.9281170887   -3.5117078640    0.3966102782
 H   -3.6073140370   -0.5116985111    0.7515768524
 H   -4.6548367816   -1.7812815566    0.0996375831
 H   -4.2409789766   -1.7874305974    1.8159582156
 H   -1.0386862246   -2.7695407797   -1.0069002877
 H   -1.1527145069   -0.6700714333   -2.0397574798