17

 C    0.2608461416    1.3695894058   -0.1353129302
 C   -0.0888144535   -0.0918338690    0.0573998845
 C   -1.5586648863   -0.4083257290   -0.1308707151
 O    0.7342658446   -0.9388813524   -0.8624715699
 C    1.4480459171   -1.4553327138    0.1820446234
 N    2.4877509521   -2.1587728993    0.2283016347
 C    0.6190165463   -0.7952290269    1.2602589092
 O    1.3094137738    0.0107409211    2.1769848213
 H    1.3268240512    1.5408810337    0.0239667842
 H   -0.0064535612    1.6903837427   -1.1465408070
 H   -0.2893888667    1.9850193317    0.5825161373
 H   -1.8923563206   -0.1121164468   -1.1299263660
 H   -1.7474702628   -1.4787853747   -0.0095432902
 H   -2.1583286492    0.1352992510    0.6062543144
 H    2.8422025706   -2.3757995018   -0.7047487115
 H   -0.0520871239   -1.4927092480    1.7789796978
 H    2.2155558868   -0.3173153842    2.2143088634