14

 O    0.1085668666    1.3566996540   -0.0387567806
 C   -0.0398226767   -0.0199952010   -0.0285950984
 C   -0.4638040427   -0.7946400629    1.1788446849
 O   -1.3890283715    0.0128512428    1.9337658286
 C   -2.3740761475   -0.0655486943    0.8674325367
 C   -2.9375202606    1.2285444558    0.4815530447
 N   -3.4114835934    2.2356250760    0.1705304872
 C   -1.3643630838   -0.7654115792   -0.0558820350
 O   -1.7090008243   -1.7618667748   -0.9309332593
 H   -0.2345087714    1.6936045529    0.7994852330
 H    0.7111155902   -0.5222674789   -0.6346102882
 H    0.0748766089   -1.5697343284    1.7097445989
 H   -3.1833038597   -0.7454930789    1.1558427312
 H   -1.6851264142   -1.4098972032   -1.8284591939