16

 C   -0.0059939573    1.5146314723    0.1783712975
 C    0.0474466940    0.0296768371   -0.0853877458
 C    0.6637178601   -0.6591601089   -1.2340604234
 C    1.9522060629   -0.0072527487   -1.7517755975
 C    1.9164926930    1.2477203690   -2.4829273732
 N    1.9036775375    2.2581860163   -3.0449133828
 C    2.3991629254   -0.0411480256   -0.2645062595
 N    3.3784304777    0.3246896310    0.4232416521
 N    1.2623284443   -0.8126461523    0.1727478850
 H    0.8395217321    2.0635064502   -0.2379918348
 H   -0.9213681708    1.9290016409   -0.2552348273
 H   -0.0283228977    1.6953784221    1.2573868624
 H   -0.8193908243   -0.5038770360    0.2991006877
 H    0.2021561191   -1.5057210284   -1.7285860775
 H    2.5473731788   -0.7354420181   -2.3123714014
 H    4.0626890853    0.8373598093   -0.1343068815