17

 O    0.1778155060    1.3818068115   -0.0824434178
 C    0.1519349877   -0.0092852029   -0.0225475073
 C    0.4412298349   -0.7353896293    1.3225493140
 C   -0.7291927079   -1.7133586348    1.0163049254
 O   -1.6125646847   -2.0809962971    2.0281730514
 C   -1.2733868934   -0.6764803172   -0.0351234709
 O   -2.1625188520    0.2115833765    0.6669266859
 C   -1.8435619061   -1.1396139430   -1.2783152622
 C   -2.3207936340   -1.5243992827   -2.3137960459
 H   -0.5954397130    1.6807306349    0.4153417823
 H    0.7683528555   -0.3915793237   -0.8394516199
 H    1.4356388464   -1.1590524956    1.4711551697
 H    0.1944700933   -0.0902741518    2.1711392491
 H   -0.3867713253   -2.6257024324    0.5225114990
 H   -2.1292472605   -1.2881766621    2.2269500077
 H   -2.9634336940    0.3034443372    0.1423439856
 H   -2.7343974029   -1.8691324374   -3.2296423261