18

 O   -0.1178780679    0.1149435866    0.2162574899
 C   -0.0260367772    1.3012243647    0.0818676991
 N   -0.9988781281    2.3234106629    0.0820234930
 C    0.0194703489    3.3713375313   -0.0378006742
 C    1.0512545600    3.2927907604    1.0557060550
 C    0.7594610449    2.8737363171    2.4739189048
 C    0.9429788451    3.8665563730    3.5965866161
 C   -0.4419616046    3.4224515849    3.2141715032
 C    1.1002595065    2.3077437568   -0.1197720774
 H   -1.7430289416    2.3519938664    0.7699952317
 H   -0.1393494319    4.2199710633   -0.6901332030
 H    1.8290552088    4.0495626714    0.9551844126
 H    1.0251799541    1.8473761550    2.7071052345
 H    1.3640097075    3.5137202891    4.5311324367
 H    1.2396306679    4.8755049343    3.3275322623
 H   -1.0680205118    4.1378977668    2.6903641537
 H   -0.9798953870    2.7607422698    3.8839953176
 H    1.9526723565    2.2234539462   -0.7784547757