20

 C   -0.3910037258    1.3989044920   -0.0801878193
 C    0.1631670296   -0.0225642688   -0.1369754954
 C    1.2736626029   -0.2390830809   -1.1865124630
 C    2.0540637017   -1.4602760779   -0.6600866611
 N    1.7350564105   -1.6134483674    0.8060714736
 C    1.0540291321   -2.9231865436    0.5864298847
 C    1.4243699470   -2.8405809581   -0.9013689508
 O    1.2657933761   -3.5396389395   -1.8574049372
 C    0.8529263521   -0.4954495875    1.1647206363
 H    0.4037730888    2.1196543389    0.1449542662
 H   -0.8445705403    1.6899984052   -1.0330539814
 H   -1.1586090468    1.4962268723    0.6948241166
 H   -0.6628238918   -0.7115136422   -0.3605915250
 H    0.8893231294   -0.4028262179   -2.1969298887
 H    1.9356556097    0.6339572816   -1.2217352415
 H    3.1237578850   -1.4113086095   -0.8881960898
 H    1.5047256196   -3.7540764905    1.1404650381
 H   -0.0300439580   -2.9311222899    0.7684863923
 H    1.4618679825    0.3212051321    1.5761377220
 H    0.1486062559   -0.7996048686    1.9449570635