17

 O    0.1615605152    1.3398250999    0.2874376875
 C    0.0157115867   -0.0300597284    0.0393766837
 C   -1.4498676613   -0.4593685643    0.0240126049
 C   -1.5258330872   -1.9602853903   -0.2749312445
 C   -0.8334772864   -2.3392476132   -1.5657341051
 N   -1.2424808713   -3.3237902663   -2.2572655679
 N    0.2699403018   -1.5373125640   -1.9073831050
 C    0.6871944108   -0.3800431849   -1.2877974367
 O    1.5490114530    0.3318786012   -1.7659632281
 H    0.8998398386    1.6275269830   -0.2720105667
 H    0.5403165402   -0.6255585946    0.8115199155
 H   -1.9082140258   -0.2345949408    0.9904876811
 H   -1.9862888724    0.1216701689   -0.7345415188
 H   -1.0428628194   -2.5184336872    0.5387863568
 H   -2.5527598408   -2.3216914782   -0.3383263497
 H   -0.6645732128   -3.4812073860   -3.0858020358
 H    0.7445952412   -1.7381937549   -2.7796772613