18

 C    0.0840817067    1.3106798307    0.2195741213
 C    0.0902831160   -0.1936970438    0.5033227537
 N    0.6532806560   -1.0921994903   -0.4932693686
 C    1.1254093246   -0.6301799804   -1.5720333819
 N    1.6623640754   -1.4937863707   -2.5203692790
 C    2.1992355293   -1.0767244997   -3.7251985559
 C    2.7217365457   -2.2070248130   -4.5935894967
 O    2.2416323911    0.0924723086   -4.0466113492
 H    1.0969149395    1.7053353475    0.0865197801
 H   -0.4959007709    1.5549687040   -0.6766543574
 H   -0.3699388400    1.8395887068    1.0628530180
 H    0.6278944646   -0.3849842448    1.4420637353
 H   -0.9375293714   -0.5330801465    0.6912012182
 H    1.1767130691    0.4122979379   -1.8869421362
 H    1.6427726374   -2.4752379267   -2.2836960875
 H    3.5042395935   -2.7688407355   -4.0727096613
 H    1.9186017841   -2.9086463760   -4.8427225058
 H    3.1294458495   -1.7841754981   -5.5108195671