13

 C   -0.0068506197    1.4012012966   -0.0052009573
 O    0.0048172238   -0.0336279315   -0.0043912949
 C    0.5982284741   -0.6039710735   -1.0416883974
 N    1.1600036228    0.0193780179   -2.0408076967
 O    1.6338740109   -0.9853748447   -2.8610108416
 N    1.3611825347   -2.2181068112   -2.3623348353
 C    0.7191229362   -2.0242817688   -1.2339337747
 C    0.2530094025   -3.0601765497   -0.3973976582
 C   -0.1570162755   -3.9181070392    0.3378616176
 H    1.0151143884    1.7911757560   -0.0057613620
 H   -0.5350246513    1.7780748025   -0.8858185725
 H   -0.5270054762    1.6919373891    0.9066901979
 H   -0.5164851307   -4.6815305335    0.9832622350