18

 C    0.2726471022    1.8251615205   -0.2732841434
 C    0.1854759186    0.3265074565   -0.1349625399
 N    1.4313674507   -0.4067043737    0.0358793924
 C    0.4733763643   -0.4067846537    1.1566052609
 C    0.8650961102    0.3204238561    2.4054999033
 O    1.7025249601    1.1922680475    2.4450214657
 C    0.1235866203   -0.0997371105    3.6556635597
 C    0.8620289531   -0.1278307014    4.9363581945
 O   -0.0513869772    0.9128214494    4.6443307761
 H    1.0531908918    2.2252227153    0.3744861951
 H    0.5097688991    2.0867887976   -1.3100557918
 H   -0.6828036724    2.2942100687   -0.0163139308
 H   -0.5907030355   -0.1462008577   -0.7374367180
 H    1.3968624920   -1.3064895371   -0.4362539361
 H   -0.1162867090   -1.3065711187    1.3216463266
 H   -0.7300207585   -0.7649857582    3.5290661606
 H    0.5544052908   -0.8320168064    5.7081474442
 H    1.9109934495    0.1610029860    4.9247863110