23

 C   -0.0978520519    1.5997596122   -0.0172836235
 C   -0.0168945531    0.0754497850    0.0027647753
 C    1.0672794235   -0.5911835370   -0.8952837447
 C    2.0786259911   -0.2768643501    0.2599548928
 C    0.8168494591   -0.5922628298    1.1495453323
 C    0.7021332553   -0.1601291533    2.5943089996
 C    0.6886821173   -2.1069167452    0.8448359544
 C   -0.3981934217   -2.6435426497   -0.0563975966
 C    0.8746131883   -2.1042794480   -0.6626571962
 H    0.8677965353    2.0993292346    0.0927437144
 H   -0.5355982297    1.9393893020   -0.9626842774
 H   -0.7477738452    1.9594354862    0.7882752982
 H   -1.0358842129   -0.2974210326   -0.1199950765
 H    1.2353637061   -0.2558588259   -1.9200796974
 H    2.9364620522   -0.9479965994    0.3639814566
 H    2.4152315013    0.7604459536    0.3055660102
 H    0.8496490590    0.9190740789    2.7061087440
 H   -0.2838953211   -0.4084544900    3.0038631939
 H    1.4520539171   -0.6629846616    3.2162948071
 H    1.2228421201   -2.7931976970    1.4942019715
 H   -0.4823611874   -3.7265803584   -0.0688437689
 H   -1.3544322206   -2.1487319306   -0.1742794253
 H    1.5536987980   -2.7876060837   -1.1608357936