17

 O    0.0112622053   -0.0064633280   -0.2520421709
 C    0.0316365875    1.1877899338   -0.1311829066
 C   -1.1372912290    2.1847785630   -0.0845597512
 C   -0.3032299280    3.4733316054    0.1185380614
 C    0.7749628092    3.3069239159   -1.0062081196
 C    1.2239229593    2.1123053777    0.0160834530
 C    0.7586375247    3.1622229035    1.1127265502
 C   -0.3205896549    3.6590328654    2.1325548470
 O   -0.9386622585    4.4299702072    1.0212370995
 H   -1.7073587081    2.1880419471   -1.0181725364
 H   -1.8263492948    1.9591587192    0.7320563918
 H    0.4644845392    3.0114302630   -2.0130578716
 H    1.5309890503    4.0912689847   -1.0389029911
 H    2.2214680873    1.6782330258   -0.0130693820
 H    1.5021962272    3.9623681125    1.0889804148
 H   -1.0220957229    2.9241603502    2.5355566115
 H    0.0386892962    4.3212636836    2.9224049002