20

 C   -0.0815310922    1.5863963477    0.1878146062
 C   -0.0582766430    0.0582896866    0.0062111213
 C    0.9070849772   -0.6024053930    1.0056096061
 C   -1.4398118901   -0.5302301738    0.1023758180
 N   -1.9878169882   -1.1230040965   -0.9519913789
 N   -3.2160359740   -1.5201509447   -0.5168622304
 C   -3.4511873706   -1.1900950476    0.7768177757
 N   -4.6295238184   -1.5748354846    1.4232495444
 C   -2.3165900275   -0.5391373877    1.2203448169
 H    0.9231189824    2.0066229556    0.0701873526
 H   -0.7388667736    2.0601932133   -0.5471197385
 H   -0.4424220889    1.8596706480    1.1857678061
 H    0.2925434425   -0.1610005624   -1.0086224703
 H    1.9195084213   -0.2008282144    0.8897823023
 H    0.5926327770   -0.4188405586    2.0391938795
 H    0.9491442918   -1.6852572663    0.8565088793
 H   -3.7991937116   -2.0703298638   -1.1232945690
 H   -5.4677499930   -1.3224513333    0.9122925428
 H   -4.6842688559   -1.1871620720    2.3555439270
 H   -2.1569801751   -0.1195663225    2.2006970588