14

 C    0.0112385883    1.5342487215   -0.0402037323
 C   -0.0322006292    0.0249910430    0.0869875613
 O   -0.0801037879   -0.5470645741    1.1542996519
 C   -0.0121993850   -0.7062553162   -1.1684932495
 C    0.0048889944   -1.3114211941   -2.2115054112
 C    0.0242947399   -2.0452325568   -3.4762182799
 C    0.0378943644   -3.4998664098   -3.3192003723
 C    0.0494804495   -4.6941446220   -3.2040361904
 H    0.9181134024    1.8404735515   -0.5728797746
 H   -0.8409134598    1.8868070033   -0.6313364131
 H   -0.0097209997    1.9853511704    0.9528219121
 H   -0.8481155014   -1.7461329481   -4.0740478417
 H    0.9001161773   -1.7280150365   -4.0594210720
 H    0.0592846367   -5.7503389519   -3.0931753585