20

 O    0.0108577197    1.1511099547   -0.4559293455
 C   -0.1791448927   -0.2644052159   -0.3806202814
 C   -1.5932995658   -0.4804715321    0.1646259733
 O   -1.7016315968    0.2150602767    1.4010603992
 C   -2.6808502370   -0.0201900605   -0.8602940885
 C   -3.1725879653   -1.2844264994   -1.5319542514
 N   -2.0811928505   -2.1331929833   -2.0679663902
 C   -2.6989082563   -2.4598330607   -0.7610884229
 C   -1.8840715842   -1.9825920279    0.4221558253
 H    0.9285228054    1.3253828253   -0.6804387461
 H   -0.0780402308   -0.7429164591   -1.3608289041
 H    0.5415659425   -0.7126922237    0.3191005650
 H   -1.2385389081    1.0526767641    1.2681734089
 H   -3.4997636210    0.4396345269   -0.2980877369
 H   -2.2887861127    0.7231321249   -1.5596415828
 H   -4.1280710731   -1.2865959753   -2.0470272063
 H   -2.4624006463   -2.7525790483   -2.7788383583
 H   -3.2865413669   -3.3683640499   -0.6780685149
 H   -0.9657836026   -2.5603963379    0.5709169452
 H   -2.4765116575   -2.0558375289    1.3397952122