14

 C   -0.0302820107    1.5378655296    0.0016375561
 C   -0.0008413784   -0.0001622876    0.0124221714
 C    0.7435365011   -0.5252770462    1.2520297336
 N   -1.3839489233   -0.4920065964    0.0568684808
 C    0.7047179835   -0.4750268618   -1.2076008124
 N    1.2144649678   -0.8663154244   -2.1694214505
 H    0.9826093459    1.9475186312   -0.0076900481
 H   -0.5567438524    1.9118210407   -0.8814389019
 H   -0.5548225434    1.8870846648    0.8944489902
 H    0.2214331285   -0.1824110955    2.1487187377
 H    0.7674756115   -1.6189943529    1.2585015376
 H    1.7740606173   -0.1626362934    1.2711171916
 H   -1.8904688458   -0.1825032691   -0.7683201915
 H   -1.3932100915   -1.5082403191    0.0350929053