24

 C    0.7687260345    1.5156028736   -0.3660199887
 C    0.1609343389    0.1759873441    0.0758296328
 C    0.2343484174   -0.9361715832   -1.0154454300
 N    1.2151586129   -1.9634877418   -0.6193675372
 C    2.5526781590   -1.4187467417   -0.3390427120
 C    1.5996114210   -1.6674302654    0.7710777487
 C    0.7816594456   -0.5108289059    1.3486586778
 C    1.6355264223    0.4108690643    2.2314644944
 C   -0.3558130239   -1.1126928641    2.1993233126
 H    1.8308959684    1.4491508197   -0.6175281922
 H    0.2480028204    1.8791188336   -1.2584840152
 H    0.6607056299    2.2814792731    0.4082529248
 H   -0.8939055868    0.3794249563    0.2895790701
 H   -0.7331023327   -1.4396496706   -1.1150844269
 H    0.4912841830   -0.5336008001   -2.0013834431
 H    3.3675214213   -2.1161104145   -0.5138169935
 H    2.7750098293   -0.3956325816   -0.6256138954
 H    1.7577537041   -2.5273701006    1.4191929074
 H    2.4737289362    0.8467130632    1.6819139956
 H    1.0407871787    1.2305659618    2.6492720583
 H    2.0512134042   -0.1518891567    3.0746272190
 H    0.0438821329   -1.6961176738    3.0362364202
 H   -0.9916099093   -0.3238345911    2.6156506306
 H   -0.9893512674   -1.7774885785    1.6028804120