21

 C   -1.5534755207    1.5478040399   -1.2320088564
 C   -1.7430692585    0.0440538375   -1.3385278191
 O   -1.2870373008   -0.5419218718   -0.1218307023
 C   -1.5564842793   -1.9210625010    0.0447370126
 C   -0.6917249254   -2.7635421813   -0.8880946632
 O    0.6761808701   -2.4522606476   -0.7181146296
 C   -1.4769705619   -2.3438990394    1.5225925926
 O   -2.7762139503   -2.9729085083    1.4399652701
 C   -3.0328150276   -2.3731615931    0.1554002412
 H   -1.8859868568    2.0385811260   -2.1513980749
 H   -2.1288296018    1.9486428069   -0.3931287866
 H   -0.4994351234    1.7921259182   -1.0714955891
 H   -2.8036695284   -0.2001643769   -1.4988838431
 H   -1.1826386224   -0.3518656741   -2.1978536735
 H   -0.8251196423   -3.8237598783   -0.6494626301
 H   -1.0144058409   -2.6214218328   -1.9330894747
 H    0.7196693107   -1.4932084172   -0.6161600669
 H   -0.6855879952   -3.0482313429    1.7957565505
 H   -1.4739369784   -1.4861637933    2.2059176888
 H   -3.7416398781   -1.5368935304    0.2235024084
 H   -3.3953936984   -3.1027165900   -0.5785185846