16

 N   -0.1769837047    1.3838147367   -0.1326205656
 C    0.0360177594   -0.0658547671    0.0683969738
 C   -1.3326990735   -0.8251927241    0.0958503861
 C   -1.4453202577   -1.5608338455   -1.2625312059
 C   -0.0409936369   -1.5137149828   -1.8086885183
 C    0.7690025932   -0.7487515040   -1.0813517161
 C    0.7674965242   -0.2255893506    1.3367489785
 N    1.3640090227   -0.3680312776    2.3162159148
 H    0.7199646249    1.8637287899   -0.1439328305
 H   -0.5792582363    1.5158933221   -1.0578996307
 H   -1.3329498010   -1.5473148911    0.9142015328
 H   -2.1392202251   -0.1141346102    0.2819851698
 H   -1.8082802072   -2.5871066206   -1.1404315349
 H   -2.1488409066   -1.0708108626   -1.9486914277
 H    0.2479732030   -2.0330367682   -2.7160359844
 H    1.8150302415   -0.5447711342   -1.2789796917