18

 C    0.0792971943    1.5495765823   -0.0318888268
 C    0.0024100506    0.0283199810    0.0744985684
 O    0.6909700234   -0.4645096446    1.2114258853
 C   -1.4632202170   -0.4987017025    0.0549856344
 C   -1.4498750736   -2.0484015268   -0.0426683402
 C   -2.7832985320   -2.6375008660   -0.1083509669
 N   -3.8396133651   -3.1006300878   -0.1761070450
 C   -2.1774145669   -0.0521199870    1.2482560925
 C   -2.7104611536    0.3058587954    2.2650471741
 H    1.1242587703    1.8671922986    0.0038588397
 H   -0.3606809881    1.9035763857   -0.9699456136
 H   -0.4583167328    2.0245623650    0.7952145818
 H    0.5186759534   -0.4195977439   -0.7829356890
 H    0.2463957907   -0.1064132996    1.9908126733
 H   -1.9627507601   -0.0990444110   -0.8360285385
 H   -0.8936786960   -2.3448845637   -0.9389466184
 H   -0.9094221652   -2.4498781682    0.8191063962
 H   -3.2204510823    0.6190491931    3.1430406325