16

 C   -0.2091956860    1.5149931850    0.0055414708
 C    0.0351558791    0.0000408278    0.0169193330
 C    0.7867866966   -0.4423765818   -1.2377021328
 O    1.1677351508   -1.8243834786   -1.2102808171
 C    1.7844977115   -2.3013886543   -0.0949925342
 O    2.3295247484   -3.3739726660   -0.1284677015
 C    1.6744213675   -1.4787504811    1.1325396093
 C    0.8284973193   -0.4496704473    1.2149246593
 H    0.7362066053    2.0676898722   -0.0116833718
 H   -0.7912933966    1.8121365061   -0.8722664620
 H   -0.7636630309    1.8258417468    0.8960455993
 H   -0.9418343148   -0.5065558941    0.0409646563
 H    0.1742682425   -0.3293231817   -2.1352244671
 H    1.6894595134    0.1731195678   -1.3577555564
 H    2.2547152308   -1.8372529943    1.9742872347
 H    0.6872180731    0.0797954835    2.1546764702