22

 C   -0.0462751498    1.4690567255    0.0002564784
 C    0.0199444022   -0.0561693308    0.0195066131
 C    0.8456767041   -0.6387779422   -1.1179040717
 N    2.1320872060   -0.5522419817   -0.3304518698
 C    1.1632712076   -0.6106094707    0.8972706322
 C    1.1411552605   -2.1511110259    0.7864467667
 C   -0.0821079611   -2.9775164389    1.1624213476
 C    1.5319889883   -1.8921609629   -0.6660163338
 C    2.1973558138   -2.8444176741   -1.6122976694
 H    0.9471015625    1.9001455576   -0.1568765185
 H   -0.7016888115    1.8250807625   -0.8019409694
 H   -0.4412521144    1.8528787972    0.9471319390
 H   -0.9800886393   -0.4734200449    0.1869248421
 H    0.8168982186   -0.3553650990   -2.1659651570
 H    1.4468217544   -0.1115814475    1.8239545660
 H    2.0278906373   -2.5409401674    1.3019819829
 H   -0.9818813520   -2.6491557098    0.6347346465
 H    0.0761104864   -4.0336992252    0.9183295136
 H   -0.2811870353   -2.9165121492    2.2382148528
 H    1.4936221952   -3.6074665663   -1.9641253211
 H    2.5850347020   -2.3134319520   -2.4872439848
 H    3.0380644546   -3.3534851044   -1.1286021853