20

 C   -0.1117349392    1.3167796705    0.3327666712
 O   -0.2950816041   -0.0490590088    0.0176489613
 C    0.5697442274   -0.5200221296   -0.9981998995
 C    1.9662605292   -0.7097324134   -0.4118316975
 O    3.0001527045   -0.5948222220   -1.0166017223
 C    0.0232487302   -1.8690770020   -1.5221067004
 C   -1.4548526487   -1.7344833827   -1.9124686228
 C    0.8604223488   -2.3902651326   -2.6979341531
 H    0.9043479065    1.5298513871    0.6973716103
 H   -0.3044629940    1.9595167194   -0.5391401260
 H   -0.8254724734    1.5629919904    1.1220452894
 H    0.6314789629    0.1967726242   -1.8329503839
 H    1.9390302924   -0.9964952422    0.6661480015
 H    0.0923966032   -2.5868896937   -0.6923900047
 H   -1.8475395201   -2.7025974343   -2.2390244901
 H   -2.0554335200   -1.3774668557   -1.0748394298
 H   -1.5734172466   -1.0290191924   -2.7434999305
 H    1.9186521132   -2.4915524784   -2.4461666341
 H    0.4900794628   -3.3693593897   -3.0163111358
 H    0.7884123650   -1.7127420541   -3.5564671732