20

 C   -0.0103404294    1.5241944145    0.0177096750
 C    1.2894616350    0.7567228956   -0.0259189388
 C   -0.0178780634    0.0149690289    0.0288244777
 C   -0.4428263032   -0.8114193110    1.2484037874
 C   -1.5151856204   -1.7216919673    0.6579425653
 C   -2.7040970585   -0.9351727323    0.0421434388
 C   -1.9721237994   -1.0726902865   -1.2839504482
 C   -0.5194315126   -0.7777881646   -1.1529435874
 N   -1.0138494536   -2.1126779615   -0.7398725766
 H   -0.2662719107    2.0458963322    0.9344544978
 H   -0.3370133960    2.0282534608   -0.8863245271
 H    1.8485617671    0.7463603343   -0.9563826832
 H    1.9106969986    0.7525411523    0.8641800469
 H    0.3953019706   -1.4110244454    1.6227052300
 H   -0.8211190542   -0.2014183218    2.0750498356
 H   -1.7677854764   -2.5901053202    1.2657945813
 H   -3.6271133684   -1.5188062312    0.0523447055
 H   -2.9108580640    0.0707553583    0.4220319892
 H   -2.4423985964   -1.1952840119   -2.2557335362
 H    0.0684315153   -0.7847467833   -2.0666002631