21

 C    0.5589950290    0.5687709234    0.7475132222
 C   -0.0609081329    0.0009234145   -0.5145799875
 O    0.4722241012    0.0856241547   -1.5959698279
 C   -1.3967691077   -0.7359969564   -0.3383164853
 C   -1.1376816861   -2.1937813817   -0.0663191911
 C   -1.3529923416   -2.8490134058    1.0775120992
 C   -1.0053834707   -4.3145232101    0.9783576349
 C   -0.2088054464   -4.3934863065   -0.3507996577
 C   -0.5999197638   -3.1200119201   -1.1399534097
 H    1.5663835239    0.9326038710    0.5426438539
 H   -0.0580463506    1.3944944169    1.1217985544
 H    0.5822928977   -0.1937405169    1.5329641243
 H   -1.9692521244   -0.2943291440    0.4835178595
 H   -1.9581736493   -0.6160890667   -1.2713582916
 H   -1.7793537743   -2.4058519444    1.9721408450
 H   -0.4268222461   -4.6770534420    1.8357823556
 H   -1.9184156033   -4.9268311365    0.9470574827
 H    0.8633233851   -4.3683108594   -0.1313291729
 H   -0.4015874046   -5.3140177127   -0.9071772041
 H   -1.3855661248   -3.3207573715   -1.8831853171
 H    0.2366338599   -2.6835744659   -1.6946850269