25

 C   -0.0622731404    1.5130180549    0.0770129229
 C   -0.0198595446   -0.0029721547   -0.0058925293
 C   -0.8603199516   -0.7677218033    0.9931924518
 C    0.6454578266   -0.7424520559    1.1339033595
 C    1.4948054846   -1.9801441888    0.9019891068
 C    2.7549115108   -1.7101617769    0.0585490377
 C    2.4999046380   -1.6291666338   -1.4555289644
 C    1.5880891825   -0.4940081493   -1.9496845651
 C    0.1410580172   -0.5502464615   -1.4208213949
 H    0.8348881218    1.9688320089   -0.3577287639
 H   -0.9297348430    1.9122789809   -0.4627135130
 H   -0.1319260277    1.8523806093    1.1154696067
 H   -1.4611046908   -0.2063604006    1.7020375440
 H   -1.3160382807   -1.6989770559    0.6692866490
 H    1.0295049084   -0.1008662791    1.9249134765
 H    1.7866288641   -2.3894989487    1.8770728377
 H    0.9024098851   -2.7665760809    0.4176235368
 H    3.2331316566   -0.7842198005    0.4064906955
 H    3.4824687580   -2.5122489071    0.2353553904
 H    3.4673733294   -1.5401041952   -1.9659563037
 H    2.0740813923   -2.5875095980   -1.7870141528
 H    2.0362335226    0.4753315711   -1.6946303485
 H    1.5662769407   -0.5339559204   -3.0458724749
 H   -0.2162645050   -1.5857701304   -1.4722481379
 H   -0.5141678650    0.0229944758   -2.0896374471