21

 C    0.0072830470    1.5591342173    0.1299208495
 C    1.5219904223    1.8002689540    0.0148556783
 O    2.0436821305    0.8160496123    0.9606078231
 C    1.5837299774   -0.1447171742   -0.0298270740
 C    1.9645632727    0.8651764437   -1.1449153853
 C    1.2019100583    0.8050582458   -2.4767553909
 C    0.2986545455   -0.4425505374   -2.5138576557
 C   -0.6255261700   -0.5498483794   -1.2820438956
 C    0.0389463004   -0.0038957132    0.0003494351
 H   -0.3655834247    1.8923881472    1.1005631810
 H   -0.5799770868    2.0466761128   -0.6536144998
 H    1.9153463869    2.8074468713    0.1560968085
 H    2.0264455457   -1.1361342121    0.0717513786
 H    3.0487629609    0.9103893815   -1.2585487372
 H    0.6021163013    1.7129631455   -2.6161251843
 H    1.9022289160    0.7734843729   -3.3172590654
 H   -0.2911311071   -0.4652959900   -3.4359436200
 H    0.9506930620   -1.3247450992   -2.5475057603
 H   -1.5597255923   -0.0036757265   -1.4581828125
 H   -0.9104769146   -1.5983273430   -1.1397710702
 H   -0.3860647114   -0.4791152496    0.8869559269