20

 C   -0.1222301041    1.5267740216    0.1381797784
 C   -0.0952478248    0.0142099487    0.1225955914
 C   -1.3143776080   -0.6512157889   -0.4772361523
 O    1.1670604904   -0.5612201353   -0.2859529078
 C    0.7648803473   -0.7227060066    1.0639324477
 C    1.5522181012   -0.2067613258    2.2749607972
 C    1.0012897549   -1.4219963656    3.0795754686
 C    0.5290401531   -2.0759187835    1.7465021596
 H    0.8018612505    1.9330323423    0.5542143578
 H   -0.2365008677    1.9154297788   -0.8798331689
 H   -0.9662420977    1.8954644093    0.7318752057
 H   -1.4606388732   -0.3166150047   -1.5102481973
 H   -1.2062849409   -1.7376439416   -0.4850593302
 H   -2.2171371752   -0.3924018410    0.0873971509
 H    2.6306894509   -0.2704440066    2.1018553016
 H    1.3160832788    0.7935279408    2.6462632856
 H    1.7267414371   -1.9855785759    3.6683799455
 H    0.1653032518   -1.1474203251    3.7270042443
 H   -0.4816366152   -2.4905345422    1.7177543504
 H    1.2283914007   -2.8321811188    1.3775894819