19

 O   -0.1726858845    1.4566802974   -0.0531418445
 C   -0.0068265910    0.0817470097   -0.0739714681
 C    0.6592269289   -0.6728383640   -1.2223761998
 C   -0.3608941494   -1.8447680082   -0.9762774746
 O    0.1424702140   -3.0538907974   -0.4431212915
 C    1.1037129956   -2.8683470119    0.5852113610
 C    0.6400541125   -1.9117525421    1.6981454850
 C   -0.1909890789   -0.7459121951    1.1844389276
 C   -1.1243383145   -0.9497798800    0.0170594963
 H    0.5926744091    1.8487088133    0.3812859128
 H    0.4378857833   -0.1819531158   -2.1736286514
 H    1.7313096297   -0.8825824029   -1.1766862472
 H   -0.9241861040   -2.1263161893   -1.8661925164
 H    1.2935900459   -3.8638062471    0.9958474638
 H    2.0501070456   -2.5123303943    0.1539376929
 H    0.0134381075   -2.4654242635    2.4086399088
 H    1.5181436732   -1.5650163424    2.2571000479
 H   -0.6325080873   -0.1342533551    1.9681584714
 H   -2.1974586657   -0.8193776013    0.0752478859