17

 O    0.0094594700    1.4186495778   -0.2840539583
 C   -0.0332426859    0.0345268703   -0.0547598510
 C    0.8662402171   -0.8748547230   -0.9419449814
 O    1.5731117474   -1.3502409223    0.2492205708
 C    0.8753131409   -0.5132474640    1.0804245565
 O    1.0327286830   -0.3446493818    2.2471503374
 C   -1.4821277353   -0.3679605774    0.0334364577
 C   -1.9192257176   -1.6201701943    0.7534309831
 C   -2.2266631124   -0.2650479412    1.3385183650
 H    0.9193699328    1.7285683434   -0.2146464108
 H    0.3744457785   -1.7010553920   -1.4572664062
 H    1.5464286689   -0.3414613502   -1.6105257050
 H   -2.0311680764   -0.1037858859   -0.8663208432
 H   -2.7266881913   -2.1931186810    0.3120259249
 H   -1.1694805447   -2.2262580616    1.2507472000
 H   -1.6607499788    0.0399851416    2.2110014225
 H   -3.2487059964    0.0942047115    1.3101767178