17

 C    0.0044997097    1.5010785224   -0.0281199643
 C   -0.0420795522   -0.0321702001    0.0238212617
 C   -1.4661876601   -0.5668734814   -0.0495956200
 O    0.7197144832   -0.6056707762   -1.0570668388
 C    2.0117082819   -0.8251900150   -0.5774964986
 O    1.9036264366   -1.0526896086    0.8305968355
 C    0.7075812712   -0.5493114891    1.2465725406
 N    0.2875121495   -0.5093342832    2.4338919503
 H    1.0340091941    1.8710141021   -0.0015232535
 H   -0.4667258703    1.8552690978   -0.9490389414
 H   -0.5265364087    1.9181262682    0.8311932294
 H   -1.9666716086   -0.1906049363   -0.9462247290
 H   -1.4610384785   -1.6587795753   -0.0823891196
 H   -2.0216530164   -0.2466399958    0.8346489020
 H    2.4327231763   -1.7160711191   -1.0520654685
 H    2.6740990517    0.0405432767   -0.7381083133
 H    0.9735780004   -0.8969968071    3.0827373877