21

 C   -0.1531528497    1.6174920174   -0.1232347957
 C    0.0456425995    0.1087067681   -0.0322859176
 C    1.1578341477   -0.5639513725   -0.9079180485
 C    1.7832437042   -1.1993353607    0.3428205950
 C    2.2381211194   -2.6240926728    0.4585857841
 C    2.1742930647   -0.1416746898    1.3074378616
 C    0.6969921370   -0.4740709343    1.2312070001
 C    0.0066291469   -1.1049551481    2.3577933957
 O    0.5564315521   -1.6499778758    3.2924640608
 H    0.7795737973    2.1609258905    0.0592722397
 H   -0.5145799077    1.9042437898   -1.1167553374
 H   -0.8880933887    1.9622443588    0.6123486849
 H   -0.9110073055   -0.3944662724   -0.2116630454
 H    0.7590760272   -1.2966135766   -1.6132547075
 H    1.8146356023    0.1225411979   -1.4534985030
 H    3.2341971503   -2.7511674926    0.0171923515
 H    2.2912282553   -2.9269770479    1.5083607485
 H    1.5553605678   -3.3059457928   -0.0598323326
 H    2.6403314487   -0.4881527387    2.2239379481
 H    2.5102518473    0.8324034713    0.9607636204
 H   -1.1058811961   -1.0898663284    2.2841120774