18

 O    0.2482735434    0.1359296288    0.0349205790
 C    0.1003345015    1.3288162193    0.0245116312
 C   -0.9851840288    2.1318328194    0.7517248721
 C   -0.8541334847    3.5321239266    0.1245948857
 N    0.5571235672    3.6803936896   -0.2939727823
 C    1.4028463409    4.2056991602    0.7880115208
 C    2.7780188756    4.4358255701    0.3550846961
 C    3.9172518335    4.6103518275    0.0157997805
 C    0.9603626306    2.3464099007   -0.7474161787
 H   -1.9638513805    1.6610021457    0.6358318576
 H   -0.7506054183    2.1367564126    1.8229385508
 H   -1.4878416621    3.6060048852   -0.7673377526
 H   -1.1379818914    4.3449176733    0.7964420278
 H    0.9663209373    5.1583248774    1.1110778018
 H    1.4247486841    3.5559497202    1.6848595054
 H    4.9217804780    4.7743707939   -0.2873376627
 H    2.0284762361    2.1656319021   -0.6118916607
 H    0.7438679776    2.2238158873   -1.8183550618