21

 C    0.4275094061    1.0805787015    0.3720805570
 O   -0.2967123270    0.0593526349   -0.2916495238
 C    0.4277463348   -0.5656090638   -1.2938853657
 C    1.3776141473   -1.7274969738   -0.9405933026
 C    1.5698525794   -2.1455600180    0.4621098845
 O    2.6053324098   -2.6061233373    0.8875679610
 C    0.0356184867   -1.9437862422   -1.6841509405
 C   -1.1252666767   -2.6146643468   -0.9709565118
 C    0.1669825217   -2.3239430057   -3.1476448010
 H    1.3112434939    0.6792682944    0.8874276773
 H    0.7567290378    1.8592232481   -0.3309162214
 H   -0.2476961597    1.5244328916    1.1063170321
 H    0.7900023575    0.1099565912   -2.0718976206
 H    2.2776239460   -1.8250910042   -1.5397539582
 H    0.6949942527   -2.0058256657    1.1304218543
 H   -1.2884022825   -2.2115591738    0.0284324443
 H   -2.0461660803   -2.4544949566   -1.5424855579
 H   -0.9649670207   -3.6951722208   -0.8946543942
 H    0.3451866798   -3.3995211250   -3.2541112903
 H   -0.7522036926   -2.0796863414   -3.6924544683
 H    0.9954685462   -1.7982580466   -3.6316826541