18

 C   -0.1076464773    1.4782493488    0.0040792311
 C    0.0403734222   -0.0143765987    0.0674570067
 O   -1.2633105068   -0.7178600850    0.0625459333
 C   -0.9287423712   -1.4227182483    1.2114166479
 N   -1.6075170698   -2.2334566455    1.8868212531
 C    0.4623044769   -0.8308326886    1.3057075429
 C    1.5783524860   -1.4984540497    0.4550926671
 C    1.0346048768   -2.1834976224   -0.7612109194
 C    1.1467378947   -0.6855292315   -0.7772532453
 H    0.8662065070    1.9601441127    0.1358423123
 H   -0.5063868762    1.7808899782   -0.9703939166
 H   -0.7865564502    1.8371778174    0.7823507709
 H   -2.5381690285   -2.3608418984    1.4838492701
 H    0.7688169001   -0.3713596890    2.2429054576
 H    2.5751124761   -1.6889482914    0.8300652175
 H    1.7792406211   -2.6934308928   -1.3638659406
 H    0.0634979497   -2.6665825803   -0.7496388782
 H    1.7519323193   -0.1577905854   -1.5046307303