19

 C   -0.0262279316    1.6191602387    0.0189178864
 C    0.1032595825    0.1016253618    0.0346304621
 C    1.1671417175   -0.6229115081   -0.7704897744
 C    2.4038145205   -0.7529146901    0.0597063577
 C    2.1572631094   -0.1189383370    1.4133748170
 C    0.7219169483   -0.6654884835    1.2375819314
 C   -0.1107615160   -1.1011079845    2.4081904339
 N    1.2804436597   -1.7387187781    0.2295965561
 H    0.9329552750    2.1170336358    0.1864700920
 H   -0.4097411479    1.9629684299   -0.9479015928
 H   -0.7256402789    1.9632067457    0.7892415603
 H   -0.8669172067   -0.3601969675   -0.1858967071
 H    1.1715366037   -0.8308328031   -1.8353725904
 H    3.3506644989   -1.0594326045   -0.3710363779
 H    2.6822275229   -0.6699131214    2.1992006277
 H    2.3098613180    0.9555559308    1.5565733944
 H   -0.4221538381   -0.2340303074    3.0029294994
 H   -1.0113957366   -1.6261858421    2.0740996230
 H    0.4523131095   -1.7753546252    3.0614190010