20

 C    0.0191079570    1.4708767833    0.0822466050
 C   -0.0294161174   -0.0219141877   -0.0750019102
 N    0.0101725316   -0.5724931774   -1.2154570935
 C   -0.0835292360   -2.0226687231   -1.3115972764
 C    0.2788927391   -2.7645371599   -0.0345742254
 C    1.7548692995   -2.7954281585    0.4648774081
 C    1.2310423704   -2.5051008435    1.8990806135
 C   -0.1064217078   -2.0378636802    1.2775594788
 O   -0.1243509556   -0.6105077572    1.1535838312
 H    0.8729345293    1.7617188329    0.7025229451
 H    0.0977555418    1.9376139923   -0.8986350022
 H   -0.8833482662    1.8268841573    0.5897477054
 H   -1.1115702919   -2.2749760895   -1.6093905401
 H    0.5565959622   -2.3523775007   -2.1395169443
 H   -0.1425318048   -3.7740854855   -0.0367456620
 H    2.3100380403   -3.7224216823    0.3081206878
 H    2.3395510427   -1.9648466017    0.0600896800
 H    1.1016984371   -3.4180399855    2.4868633878
 H    1.7541369430   -1.7604448643    2.5019809633
 H   -1.0362382441   -2.3213179489    1.7776172780