17

 N   -0.1205114045    1.5059492401   -0.0055127727
 C   -0.0208237440    0.0466888692   -0.0314570543
 C   -1.3766541122   -0.5257174801    0.0559203550
 N   -2.4276641895   -1.0029568007    0.1028763177
 C    0.7208504851   -0.5147368542   -1.2685030795
 C    0.7803151691   -2.0544404103   -1.3980518011
 O    0.5766957615   -2.2730137924   -2.7855270490
 C   -0.3104344177   -1.2622220317   -3.1794649499
 O    0.0621376502   -0.0926405830   -2.4579013357
 H    0.8112181175    1.9017226588    0.0810047462
 H   -0.4908083064    1.8175736131   -0.9000206880
 H    0.5232013705   -0.2713564222    0.8678919246
 H    1.7291470454   -0.0787006814   -1.2591891183
 H    1.7487969936   -2.4740777799   -1.1202540583
 H   -0.0091226836   -2.5356209189   -0.8031112793
 H   -0.1910300916   -1.0787505731   -4.2506518858
 H   -1.3529926935   -1.5275542533   -2.9418318615