18

 C    0.1951813359    1.3729732804   -0.9312733631
 C   -0.1411299353    0.1971627970   -0.0107174267
 C    0.4706155383   -1.1131090859   -0.5305686311
 N    0.2559188774    0.5757073214    1.3567695495
 C   -0.2348772063   -0.2343387620    2.4532223929
 C    0.4941251386   -1.5074845782    2.7055845585
 N    1.0917697605   -2.4835086393    2.8635338081
 C   -0.2456874640    0.5586517645    3.7011041920
 N   -0.2564882031    1.1878977445    4.6684653137
 H    1.2792249704    1.5318170809   -0.9767019287
 H   -0.1512894283    1.1748585921   -1.9493697334
 H   -0.2697397527    2.2935388850   -0.5710703331
 H   -1.2339696840    0.0864406230    0.0189221909
 H    1.5641886501   -1.0459161867   -0.5566697629
 H    0.2034919908   -1.9724275674    0.0893392436
 H    0.1227670781   -1.3145422738   -1.5487766887
 H    1.2567146960    0.7244763451    1.4328263209
 H   -1.2771825524   -0.4989775907    2.2310261176