18

 O   -0.0727676945   -0.1487573613   -0.1087659283
 C   -0.0401963248    1.0601072547    0.0313443812
 C   -1.3295157654    1.8437396468    0.2737519748
 C   -1.6292189492    2.9080584536   -0.7890839991
 C   -0.7185255619    4.1159062933   -0.8360973351
 C   -0.2380838992    4.9005672328    0.3451620095
 N    0.6930337317    4.1359142175   -0.4939101364
 C    1.4828663733    3.0995729369   -0.0041413874
 C    1.2440287475    1.7792893354    0.1017624138
 H   -2.1392088678    1.1104900997    0.2929248473
 H   -1.2758619191    2.3031813941    1.2684211530
 H   -1.6078827395    2.4309274880   -1.7765154470
 H   -2.6558138489    3.2717189967   -0.6553765033
 H   -0.8971130090    4.7172593424   -1.7286033033
 H   -0.1618704944    5.9835515071    0.2922471065
 H   -0.4380768423    4.5013670061    1.3365170618
 H    2.4828604519    3.4566210517    0.2411299046
 H    2.0913616116    1.1350853945    0.3176575271