20

 C   -0.0774025805    0.9934003042    0.6168163035
 O   -0.2132731421   -0.0036053908   -0.3813403372
 C   -1.4123002887   -0.7009526983   -0.2633119792
 C   -1.4885616955   -2.0390641120   -0.9379242530
 C   -1.4470482926   -1.9506459438    0.5662915627
 C   -0.3282312583   -2.5307643676    1.4669881135
 C   -1.4308233771   -2.9404415380    2.4570094232
 N   -2.1462578348   -1.6970895691    2.8397951924
 C   -2.4934424402   -2.3938534828    1.5689852509
 H    0.9255460365    1.4151477985    0.5164267493
 H   -0.8167207650    1.7975681713    0.4798143988
 H   -0.2069384393    0.5778618052    1.6247275791
 H   -2.3050935589   -0.0716461244   -0.2704136799
 H   -2.4167397160   -2.3144926761   -1.4288769855
 H   -0.5889831729   -2.3878865154   -1.4352317167
 H    0.1700596290   -3.3889183031    1.0083937871
 H    0.4191687065   -1.8320721015    1.8498826225
 H   -1.4446083232   -3.8084262747    3.1042312543
 H   -2.8532905594   -1.9657318732    3.5253480410
 H   -3.5012151874   -2.7434603887    1.3790962732