18

 O    0.0106077841    1.4067345990   -0.0620086197
 C    0.0107089655   -0.0074202686    0.0004512134
 C    0.5552594177   -0.5914449217    1.3175627725
 O   -0.0429047679   -1.8714039245    1.4123257049
 C   -1.3756883760   -1.7371452304    0.9450690364
 C   -2.1265326002   -3.0126808956    0.7581271366
 C   -2.4839330060   -2.0777478802    1.9041548913
 C   -1.4346390279   -0.5355763345    0.0013419714
 H    0.9183336589    1.7034979771   -0.1791193292
 H    0.5689029927   -0.4366542788   -0.8436571105
 H    1.6409399694   -0.7233652755    1.3383403440
 H    0.2573398569    0.0693742290    2.1480950926
 H   -2.8089722811   -3.0925838543   -0.0816654541
 H   -1.6032093012   -3.9286713420    1.0094644869
 H   -2.1931726896   -2.3862767275    2.9021118245
 H   -3.4122829182   -1.5181651528    1.8469639002
 H   -2.0862709017    0.2528372745    0.3896552446
 H   -1.7812818554   -0.8004013331   -1.0002667459