20

 C   -0.5854190720    1.5240623362    0.1038954980
 C    0.0431145103    0.1170354299   -0.0118204563
 C    0.5999388589   -0.0756411710   -1.4026689720
 C    1.8720504410   -0.0335622653   -1.7825415551
 C    3.0261361930    0.2056253036   -0.8522373445
 O    3.0459630226   -0.5951098026    0.3318401221
 C    2.0648764853   -0.4557144888    1.2752530486
 C    2.6408759313   -0.8060510767    2.6234878219
 N    0.8504663492   -0.1281641942    1.1674094907
 H    0.1847346047    2.2949399731    0.0030798529
 H   -1.3342434918    1.6831918555   -0.6779172008
 H   -1.0617602947    1.6348001520    1.0810893597
 H   -0.7921161830   -0.5938941518    0.0841838539
 H   -0.1646879134   -0.2288323895   -2.1633392995
 H    2.1214987316   -0.1538935143   -2.8335262346
 H    3.9708046410   -0.0285824515   -1.3494135843
 H    3.0681557995    1.2643484337   -0.5566455324
 H    3.4355133755   -0.1021702443    2.8926805771
 H    1.8577336215   -0.7879491442    3.3797514860
 H    3.0962747194   -1.8010275496    2.5846634186