19

 O   -0.0682599174    1.3951638663   -0.0167021023
 C   -0.0246995604   -0.0188633997    0.0164196162
 C    0.4858534126   -0.6150086667    1.3707529426
 C   -0.7980752324   -1.3321590709    1.8255213319
 C   -1.2328127986   -2.0400206502    0.5122276049
 C   -1.4718883025   -0.5696196548    0.0282486833
 C   -1.8944795990   -0.2773952677    1.5094162111
 C   -2.3114477459   -0.2623555104   -1.1004882914
 C   -3.0209429653   -0.0276996349   -2.0429537315
 H    0.8361050354    1.7228462692   -0.0246406268
 H    0.5290535167   -0.4078748025   -0.8485814970
 H    1.3281985397   -1.3015071255    1.2424182454
 H    0.7874929088    0.1879667729    2.0498730240
 H   -0.7707339186   -1.8601195014    2.7782037307
 H   -0.4939333507   -2.6390339802   -0.0289755902
 H   -2.1721543736   -2.5878308115    0.6041902729
 H   -2.9037401783   -0.6371032939    1.7169285755
 H   -1.7616848684    0.7445438575    1.8680209846
 H   -3.6447327321    0.1882002044   -2.8742697438