15

 O    0.1763138440    1.3123539985   -0.2519939725
 C    0.0762581382   -0.0294819756    0.1970550600
 C   -1.3495813080   -0.4955357489    0.2320226538
 C   -2.4387078923   -0.0982131294    1.2454936681
 C   -2.9386162307   -1.5698722210    1.1374678738
 O   -3.7205757240   -2.2184365165    1.7691221357
 C   -1.8986722116   -1.9101313215    0.0928317394
 N   -1.9707922995   -0.9254165795   -1.0058206591
 H   -0.1353666942    1.3275631826   -1.1637414706
 H    0.6619784367   -0.7148663563   -0.4317585100
 H    0.5017957434   -0.0447460615    1.2053685721
 H   -2.0782802042    0.0962763116    2.2604731892
 H   -3.1083961243    0.7123213223    0.9445464873
 H   -1.4121159131   -2.8595231484   -0.0969578296
 H   -2.9105044303   -0.5526764462   -1.1311129975