25

 C    0.0388838694    1.4553210683   -0.4692644992
 C   -0.0707615761    0.1034420300    0.2504568005
 C   -1.4657424766   -0.5198534960    0.2042989578
 C   -2.4881173339    0.2836808504    0.9975638292
 C   -1.9139925151   -1.1776467373   -1.0843913865
 C   -1.5914012427   -2.0435786356    0.1155982230
 C   -0.3532390164   -2.9287950556    0.0715587223
 C   -2.7426963680   -2.7442606472    0.8112468042
 O   -3.0715745953   -3.9102441586    0.0577658343
 H    1.0715968135    1.8178171802   -0.4516961210
 H   -0.2681276100    1.3668782605   -1.5168100966
 H   -0.5840168078    2.2254652029   -0.0048277260
 H    0.6594702248   -0.5779683407   -0.1919759256
 H    0.2297611921    0.2265025444    1.3003151669
 H   -2.4818833556    1.3318612574    0.6815006204
 H   -3.5097482419   -0.0757878421    0.8623444712
 H   -2.2636898529    0.2656438829    2.0713026580
 H   -2.9540499347   -1.0775482728   -1.3793473398
 H   -1.2218717562   -1.2000358589   -1.9209738304
 H    0.3987935166   -2.5721528492   -0.6346512292
 H    0.1201878346   -3.0056722456    1.0583918441
 H   -0.6464450176   -3.9349243479   -0.2394059211
 H   -2.4392967914   -3.0187279689    1.8355439825
 H   -3.6183274155   -2.0896189013    0.8930895950
 H   -3.7127594533   -4.4179567393    0.5634171064