20

 C   -0.4342874645    1.3667459935   -0.0046100194
 C   -0.1305193294   -0.1057821331   -0.0111977586
 N   -0.1382027990   -0.8534809006    1.0233277723
 O   -0.4603508327   -0.1383144270    2.1884777992
 C    0.2410009202   -0.7493568313   -1.3402716694
 C    0.2618409152   -2.2833447137   -1.3507872367
 C   -1.1833490758   -2.6185972823   -1.7475120933
 C   -1.5087422669   -1.4903599860   -2.7307220766
 O   -0.7294737910   -0.3606687410   -2.3259354999
 H    0.4173872368    1.9276239326    0.3985237844
 H   -0.6457864921    1.7151523226   -1.0154595779
 H   -1.2873730838    1.5773837764    0.6446026955
 H   -0.4498563067   -0.8299174423    2.8584378929
 H    1.2051341147   -0.3264453443   -1.6565921368
 H    0.9612606214   -2.6319583147   -2.1172935573
 H    0.5546183872   -2.6986761788   -0.3878191308
 H   -1.2928353924   -3.6093690335   -2.1946257060
 H   -1.8329217503   -2.5641388203   -0.8690732432
 H   -1.2324453174   -1.7667292106   -3.7589561849
 H   -2.5665787034   -1.2058641357   -2.7303846035