14

 C   -0.0111985934    1.4127927844   -0.0119457207
 N   -0.0727074864   -0.0458062541    0.0061138454
 N   -0.3434291381   -0.6252892205   -1.2118662683
 N   -0.4166546065   -1.8713302532   -1.2993710942
 N   -0.2261073950   -2.6252592103   -0.1837107861
 C    0.0552515490   -2.1954478824    1.1113552233
 N    0.2297419879   -2.9251859504    2.1361141601
 C    0.1426084168   -0.6998972351    1.2126853575
 O    0.3756286502   -0.0923259725    2.2294088621
 H    0.9740505865    1.7508247864    0.3174046375
 H   -0.2024706582    1.7329120349   -1.0345271913
 H   -0.7603511625    1.8282526220    0.6660090017
 H   -0.3075109597   -3.6145631378   -0.3711042947
 H    0.1413395594   -3.9202137913    1.9193962476