20

 C   -0.0895312326    1.3609389807   -0.0754439272
 O   -0.0216185882   -0.0417653632    0.0752560226
 C    0.6280065436   -0.4967386157    1.2096784850
 C    2.1094091981   -0.1251517553    1.6317263033
 C    1.6232352425   -0.8075473421    2.9422435288
 C    0.2470434681   -0.1338373496    2.6753527664
 N    1.5581714804   -2.2350487003    2.4782444952
 C    0.2061990869   -2.8135899633    2.3655624886
 C    0.7638083314   -2.0264665519    1.2384555095
 H    0.9089986121    1.8151354951   -0.1383209538
 H   -0.6215468019    1.5515794451   -1.0100563857
 H   -0.6405886159    1.8373847971    0.7472044756
 H    2.9267892489   -0.6159589541    1.0993741834
 H    2.2883043637    0.9467921830    1.7370181428
 H    2.1461329887   -0.6939803154    3.8895353263
 H    0.3071716270    0.9393525420    2.8618347252
 H   -0.6682769499   -0.5259535943    3.1184478072
 H    0.2222322922   -3.8967209872    2.2794118285
 H   -0.6127473878   -2.4359338628    2.9661013578
 H    1.0983024125   -2.5093910079    0.3243295406