17

 O   -0.1689058452    1.3115130517    0.8261341151
 C    0.0163972117    0.0948522941    0.1219015370
 C    0.8178663586   -0.8594485869    1.0254679938
 C   -0.2274889269   -1.8173997759    1.5762090569
 C   -1.4043680356   -1.6794727340    0.9475008172
 C   -1.3683865109   -0.6109346694   -0.1108808358
 O   -2.4585756951    0.3017770845   -0.0532681878
 C    0.0788854071   -2.7414430787    2.6034431990
 C    0.3872335604   -3.5088851321    3.4798812846
 H   -0.8111342569    1.8208343402    0.3164706722
 H    0.5293681200    0.2809101087   -0.8310504794
 H    1.5793911902   -1.4083431388    0.4599423784
 H    1.3353241056   -0.3046152391    1.8133185248
 H   -2.2933701531   -2.2651581960    1.1490059293
 H   -1.4209567310   -1.0418650887   -1.1181666331
 H   -2.5203377178    0.5900268096    0.8656609174
 H    0.6437139288   -4.1903785190    4.2527418204