21

 C   -0.2122004705    1.4569691268   -0.0166844277
 C   -0.0282055023   -0.0626281019    0.0756124164
 C    0.5716409996   -0.6093346698   -1.2275884845
 C    0.8314647530   -0.4485146322    1.3217037296
 C    0.2232775768    0.0442278046    2.5566805409
 C   -0.2828920322    0.4515929464    3.5684965304
 C    1.1004696123   -1.9525096673    1.3727855368
 C    0.9982314281   -2.7759101634    2.5819428836
 O   -0.0227821738   -2.8059871948    1.5778406594
 H    0.7495948781    1.9583787101   -0.1816340470
 H   -0.8662654544    1.7132615087   -0.8560558598
 H   -0.6524315528    1.8648930566    0.8961464381
 H   -1.0099281861   -0.5271371293    0.2252057563
 H    1.6020358302   -0.2598061328   -1.3693298651
 H    0.5738222999   -1.7016486896   -1.2604927935
 H   -0.0124253955   -0.2581182052   -2.0839399447
 H    1.8134991542    0.0369963723    1.2075719309
 H   -0.7282695704    0.8153631794    4.4613146420
 H    1.7806527948   -2.2967299044    0.5935697283
 H    1.5982102333   -3.6816391710    2.6617233704
 H    0.7080198077   -2.3116107333    3.5206916192