23

 C   -0.3671113037    1.4847934731    0.1067866104
 C   -0.1088059360    0.0032849076   -0.0463488735
 C    0.5726266647   -0.6315109680   -1.2602924586
 C   -0.0102759288   -1.8818613702   -1.8779017411
 C    1.3708780367    0.3120162557   -2.1694874571
 C    2.6614337990    0.5608534163   -1.3657280246
 O    2.3324024380    0.3408467322    0.0067307329
 C    1.2767942230   -0.5992478869    0.0772259444
 C    1.5896193139   -1.7809839552    0.9550611248
 H   -1.1571715810    1.8309797068   -0.5693646923
 H   -0.6860657824    1.7112984719    1.1298355836
 H    0.5347522779    2.0700122848   -0.0858524739
 H   -0.8983296658   -0.6251930384    0.3638563854
 H   -0.7840672918   -1.6324067049   -2.6137199280
 H    0.7578780437   -2.4705617103   -2.3936246806
 H   -0.4739972354   -2.5261426527   -1.1247031207
 H    1.5835306881   -0.1598454587   -3.1333863141
 H    0.8347120137    1.2442774399   -2.3742581866
 H    3.4527454988   -0.1382487939   -1.6786496154
 H    3.0515829610    1.5789790386   -1.4574199184
 H    1.7925313701   -1.4523437983    1.9798900615
 H    0.7499359668   -2.4809214364    0.9869774435
 H    2.4736907695   -2.3175222229    0.5936819186