21

 C    0.0195656796    1.3605561982   -0.1202597258
 O   -0.0025245023   -0.0143608539    0.1878062909
 C   -1.2896142446   -0.6025653895    0.1072017050
 C   -1.8197758216   -0.8323283424   -1.3275043310
 C   -2.7295945784   -2.0796322779   -1.2185528724
 C   -2.1448097839   -2.8849771394   -0.0640515973
 C   -0.6413344224   -3.0989940993   -0.0602960111
 C   -1.2592780492   -1.9791436421    0.7409231712
 O   -1.2557332535   -2.0388476439    2.1332268646
 H    1.0395860528    1.7156938643    0.0473911707
 H   -0.2517333739    1.5579421634   -1.1679144616
 H   -0.6658640194    1.9327062869    0.5251782184
 H   -2.0024363468    0.0106613223    0.6847434275
 H   -2.3500038845    0.0340870301   -1.7301020196
 H   -0.9647115651   -1.0230062864   -1.9842483297
 H   -3.7556441356   -1.7832017368   -0.9711691687
 H   -2.7751392853   -2.6410206940   -2.1580120474
 H   -2.7590649331   -3.6256796536    0.4350716492
 H   -0.2870821327   -3.9374057056    0.5287763059
 H   -0.0536906258   -2.8850658271   -0.9467846908
 H   -0.4033364941   -1.6942091832    2.4239434220