12

 O   -0.0773162238   -0.0568173990    0.0039580309
 C    0.0201824220    1.1345110836    0.0089094536
 O   -1.1870889819    1.8947361263    0.0295138365
 C   -1.1472330567    3.2286287521    0.0358999093
 N   -0.1091227082    3.9779995106    0.0254490528
 C    1.1141520123    3.3145271078    0.0050748236
 C    1.2064658024    1.9546605834   -0.0033337013
 C    2.2762630469    4.1378846696   -0.0068305840
 C    3.2648330440    4.8234247017   -0.0170374553
 H   -2.1446717542    3.6595970125    0.0519163333
 H    2.1594526187    1.4439444788   -0.0192786610
 H    4.1343704484    5.4343585826   -0.0259959485