13

 N   -0.0483795817    1.2585065886    0.4938318095
 C    0.0255026424    0.0420186498    0.1525286965
 N   -1.1710273769   -0.6958484779    0.1007229014
 C   -1.3878726630   -1.9921690298   -0.2437877714
 N   -0.5831872608   -2.9983834879   -0.2322626412
 C    0.7190477573   -2.8886783557    0.1972639052
 N    1.5670460257   -1.9286984875    0.1177247056
 C    1.3031679800   -0.6509677059   -0.3324883018
 O    2.0848715668    0.0030492697   -0.9820368140
 H    0.8667493343    1.6961045698    0.3782376168
 H   -1.9871308703   -0.1002362745    0.1777350505
 H   -2.4225924511   -2.1817785081   -0.5287625643
 H    1.0865248073   -3.8160633405    0.6392936072