17

 C    0.7092551860    1.2927777173   -0.6818735623
 C   -0.0729055970   -0.0020316962   -0.4374651004
 N    0.5857627452   -1.2759667273   -0.6731998750
 C    1.7754810799   -1.3211066061   -1.0666070038
 O    2.3702075592   -2.5283593627   -1.2598580071
 C    3.7132783889   -2.4816611133   -1.7400218749
 C    3.8167568722   -2.0702486418   -3.1381342213
 C    3.8951782876   -1.7239148703   -4.2857702523
 H    1.5936092474    1.3637128186   -0.0393484143
 H    1.0363117978    1.3819775601   -1.7233433463
 H    0.0701195741    2.1527648671   -0.4603918455
 H   -0.4320046833   -0.0174454716    0.6002152164
 H   -0.9819603641    0.0032286331   -1.0534163117
 H    2.4291573070   -0.4670617072   -1.2793436224
 H    4.3236740073   -1.8211568610   -1.1079477302
 H    4.0956847363   -3.4983729109   -1.6143517545
 H    3.9652725556   -1.4241192275   -5.3024385043