21

 C   -0.1090189825    1.5439606391   -0.0105069568
 C    0.0614981755    0.0523490088   -0.0543384612
 C    0.3247280516   -0.6624596099   -1.3871788499
 C    0.1374529243   -2.1134471923   -0.8716188129
 C   -0.1253819804   -1.7860110329    0.6185277042
 C    0.4637009482   -2.7933159467    1.6409005590
 C    1.8241112803   -1.9692858328    1.4066710950
 C    0.8673237212   -0.7712468213    1.0364189355
 O   -1.1452549281   -0.7085883989    0.4501829567
 H    0.8009489782    2.0354401105   -0.3703389851
 H   -0.9409809943    1.8540598541   -0.6514088438
 H   -0.3135315739    1.8864666538    1.0071732885
 H   -0.4096775088   -0.3733511247   -2.1428444611
 H    1.3259157917   -0.4595761715   -1.7794714188
 H   -0.7427415736   -2.6032746469   -1.2950357370
 H    1.0012473944   -2.7593598215   -1.0459238634
 H    0.1033101374   -2.6481177374    2.6610557783
 H    0.4504439369   -3.8573794904    1.3886596024
 H    2.4612868993   -1.8226410688    2.2806821356
 H    2.4191228204   -2.3813136775    0.5912165266
 H    0.5299650022   -0.3566790930    1.9909281283