20

 C   -0.1218412810    1.3294542269   -0.0457462393
 C    1.1667201066    0.6242292935    0.0989586891
 N   -0.1415535771   -0.1428505044   -0.0214238772
 C    0.2976946070   -0.5638174733   -1.4003381545
 C    1.6976084150    0.0984982759   -1.2316950076
 C    2.2262439623    1.0685316844   -2.3173438166
 C    3.4713255825    0.3489360447   -2.8915490291
 O    3.4097160859   -0.9891324504   -2.4129114888
 C    2.8551983687   -0.9063241346   -1.1144267406
 H   -0.5508963880    1.7732802013    0.8476058183
 H   -0.3645628638    1.8479294358   -0.9713945235
 H    1.7334574921    0.6384407457    1.0266024015
 H    0.3267867825   -1.6528794056   -1.4789455373
 H   -0.3420542315   -0.1650837306   -2.1959407315
 H    1.4710261232    1.2420605170   -3.0880709880
 H    2.4850968735    2.0410992893   -1.8888612852
 H    3.4976780240    0.3121452118   -3.9834137799
 H    4.3956971795    0.8352265818   -2.5417097507
 H    3.6035018514   -0.5338256860   -0.3908226031
 H    2.5473542872   -1.9083885031   -0.8057314462