18

 C    0.0078928988    1.5063994436    0.0432121223
 O    1.4632418085    1.5066384598    0.0021578180
 C    1.5079145235    0.0767101451    0.0109827012
 C    2.4955743206   -0.6639036052   -0.8103367106
 C    2.8894672645   -1.7776277600   -0.1866344792
 C    2.2503895072   -1.9636370472    1.1771617227
 C    1.4537658989   -0.6526362516    1.3918006515
 N   -0.0409156212   -0.6753209823    1.3329177135
 C   -0.0442331716   -0.0369237892   -0.0016382316
 H   -0.3850036258    1.9488687093    0.9644427395
 H   -0.4047701073    2.0219917524   -0.8317503097
 H    2.8026910231   -0.3424100551   -1.7982776581
 H    3.5771202287   -2.5080953245   -0.5998193383
 H    1.5844437706   -2.8375631660    1.1857914921
 H    2.9979016780   -2.1457974799    1.9589367271
 H    1.8248737510   -0.0822845639    2.2478035777
 H   -0.4306597923   -1.6114922912    1.3292725958
 H   -0.6420281454   -0.5080295342   -0.7832341938