17

 C    0.0108479365    1.6160285166    0.0122644862
 C    0.0066306867    0.0880672004    0.0118028575
 O    0.6802637482   -0.3039168342    1.1904828496
 C   -1.4440352969   -0.4747834657   -0.0008394007
 C   -2.2218580422   -0.0635045317    1.1642654791
 N   -2.8473789731    0.2614755507    2.0792520285
 C    0.7281504761   -0.4803813507   -1.2442470273
 C    2.1285008194   -0.0753440411   -1.3254385653
 N    3.2356826510    0.2446538791   -1.4018520599
 H    1.0391382429    1.9834653066    0.0222440710
 H   -0.4960850246    2.0101040268   -0.8733556873
 H   -0.4984298733    1.9873064700    0.9040460858
 H    0.7101352602   -1.2659262876    1.2454449369
 H   -1.9684859661   -0.1515186423   -0.9071427008
 H   -1.4139004625   -1.5715665833   -0.0276737936
 H    0.6849714321   -1.5769642659   -1.2298024458
 H    0.2138158956   -0.1566078577   -2.1561478340