16

 C   -0.0193362680    1.5112046118    0.0392188298
 C   -0.0072338334    0.0189896662    0.0180332671
 C   -0.0261586287   -0.8193879849   -1.0378337226
 C   -0.0025985978   -2.2744496781   -0.6031795586
 N    0.0314848120   -2.1117447158    0.8345336130
 N    0.0654685394   -2.9335208103    1.9013927960
 C    0.0811128165   -2.0484525030    2.8986374006
 N    0.0618934253   -0.7295104249    2.5378230065
 C    0.0297199602   -0.8193151827    1.2178077458
 H    0.8706977210    1.8987601442    0.5468770627
 H   -0.0520125479    1.9229993383   -0.9720484667
 H   -0.8848981117    1.8837882361    0.5977633928
 H   -0.0545687687   -0.5336737155   -2.0805415055
 H   -0.8926707286   -2.8285142518   -0.9228805610
 H    0.8802681525   -2.8128468363   -0.9666369098
 H    0.1093849578   -2.3716424735    3.9287424398