16

 C   -0.1843574688    1.0600377522   -0.2398700278
 C   -0.3377038117   -0.4616819375   -0.0208577384
 N    0.3191598206   -0.8858183718    1.2064805468
 C    1.5604895399   -1.2061716011    1.1585697108
 N    2.4330293233   -1.2539786113    0.1172161128
 C    2.1678261549   -1.6337687241    2.4679086992
 O    3.3301505154   -1.9374202329    2.5769849698
 C   -1.7674834322   -0.8138055599    0.0559224536
 N   -2.8920031550   -1.0755136782    0.0797820384
 H    0.8726887023    1.3142651976   -0.3566499658
 H   -0.7263259219    1.3778264481   -1.1339772628
 H   -0.5770925360    1.5986462142    0.6248082196
 H    0.0556041865   -0.9892416002   -0.9061186399
 H    2.2467195608   -0.8217343763   -0.7687404190
 H    3.3886066967   -1.4788114133    0.3510594320
 H    1.4462872853   -1.6377968856    3.3041356508