13

 N    0.0979330252    0.9898113715    0.7121832552
 C   -0.0051346017   -0.0878808183    0.0904961674
 C   -1.1570760256   -0.9834828913   -0.3121717919
 C   -0.0419088685   -1.8400868070   -0.9756427788
 O    0.9663761579   -0.8905845099   -0.4946862422
 C    0.1655891714   -3.1804081962   -0.4704092113
 C    0.3264319716   -4.3045987044   -0.0594792964
 C    0.5066737248   -5.5755724476    0.4060138000
 N    0.6578413179   -6.6575852025    0.7999074280
 H    1.0674291917    1.3002357188    0.7892987616
 H   -1.6812272724   -1.4595839625    0.5164553548
 H   -1.8738689357   -0.5386848602   -1.0027141985
 H   -0.0602957668   -1.8422924704   -2.0697840979