19

 C    0.0507807057    1.4777747767    0.4636007567
 N    0.0991958476    0.0595439847    0.1813018148
 C   -1.0072491524   -0.5588128432    0.0906419016
 N   -1.0715879856   -1.9042744479   -0.1628586311
 C   -2.1995386812   -2.8139977872   -0.4068960856
 C   -1.1529312807   -3.9598421931   -0.6023476030
 N   -1.2450025931   -4.7062348370   -1.8392648463
 C   -0.0801506987   -2.8695626056   -0.4201612692
 N    1.1760660201   -2.8557334187   -0.5159081380
 H    0.5930784332    1.6906514125    1.3925847088
 H    0.5591141997    2.0328001916   -0.3337560965
 H   -0.9730348906    1.8747737306    0.5626987841
 H   -1.9935282636   -0.0856897326    0.2082762356
 H   -2.8864138276   -2.9230595288    0.4374403089
 H   -2.7647441622   -2.5848031356   -1.3166324919
 H   -1.1581426859   -4.6643617066    0.2338194848
 H   -1.0452490172   -4.0955169824   -2.6277421132
 H   -0.5219387719   -5.4196029786   -1.8544428726
 H    1.5303143943   -1.9111133787   -0.3512162178