18

 O    0.0045705648    1.4201337627    0.0819371457
 C   -0.0041327240    0.0073200297    0.0223974735
 C   -1.4369657901   -0.5046661144   -0.1093635920
 C   -2.3955794228    0.3309213648   -0.9178955381
 C   -1.7010043153   -0.8333327654   -1.5694495217
 C   -0.4259014923   -0.5397980494   -2.3615908406
 C    0.6862801124   -0.5390349585   -1.2750683476
 C    1.8905003601    0.2086334342   -1.6167713363
 N    2.8318594799    0.8419179266   -1.8422970180
 H    0.9213830119    1.7204571664    0.0739569137
 H    0.4838140660   -0.4180034290    0.9095567204
 H   -1.8255661377   -1.1255928982    0.6884902947
 H   -3.4504340605    0.2258748966   -0.6889567708
 H   -2.0853242479    1.3348666266   -1.1821763847
 H   -2.2842936294   -1.7058704617   -1.8397086580
 H   -0.2272212871   -1.2934978738   -3.1264474964
 H   -0.4700326667    0.4311414002   -2.8629501943
 H    0.9734684388   -1.5781465574   -1.0766888194