14

 O    0.0265288681    1.3370705432    0.0094440317
 C   -0.0217823977   -0.0650944306    0.0032453742
 C   -1.4885369044   -0.4688327214    0.0128094094
 O   -2.4209822723    0.2737034465    0.0235577400
 N   -1.6788352101   -1.8939790336    0.0081988268
 N   -0.6441887511   -2.7516408176   -0.0041261729
 C   -1.2249830408   -3.9394916237   -0.0045111434
 C   -2.6270052125   -3.7562618513    0.0077612237
 N   -2.8918530628   -2.4605793538    0.0156937688
 H    0.9518990079    1.5983031414   -0.0009338231
 H    0.4511662100   -0.5140149295   -0.8830534451
 H    0.4649090475   -0.5221776797    0.8778968481
 H   -0.6416435086   -4.8468663942   -0.0132997899
 H   -3.4212298332   -4.4861571355    0.0110700215