21

 C   -0.5511345718    1.2323771962   -0.0653210300
 C    0.1306303084   -0.1343288819   -0.0407316621
 C    1.0955045273   -0.3992913517   -1.2153232251
 C    1.9168614689   -1.6346604301   -0.7865384739
 C    2.0066333354   -1.4995396635    0.7511087866
 C    1.0034866879   -0.3897082531    1.2087440876
 C    0.4108793516   -1.3416536242    2.2907080863
 C    1.1977753956   -2.4849190284    1.6203782486
 O    1.1375449316   -3.6788970332    1.6713992210
 H    0.1904798443    2.0394557264   -0.0392078059
 H   -1.1529409830    1.3623114680   -0.9708136655
 H   -1.2150852335    1.3628040797    0.7959239649
 H   -0.6486056563   -0.9105355533   -0.0742550919
 H    0.5738810520   -0.5423477370   -2.1670310783
 H    1.7604670597    0.4659990387   -1.3382571999
 H    1.3996140080   -2.5623768486   -1.0543767005
 H    2.8993313178   -1.6701938033   -1.2632349551
 H    3.0285783309   -1.3867896245    1.1243680172
 H    1.4404852729    0.5367991859    1.5878642244
 H    0.7893072645   -1.1466346931    3.3000501733
 H   -0.6756064521   -1.4560927790    2.3445428783