16

 O    0.0953362953    1.1801333041   -0.5571060490
 C   -0.0521944178    0.0699261040    0.3132661972
 C   -1.4563609408   -0.4381833934    0.3178603607
 C   -1.9218078567   -1.8454483019    0.4384536435
 C   -3.3903273927   -1.5781973536    0.8624111288
 O   -3.3854873771   -0.4599952889    1.7761179817
 C   -2.7815434601    0.2828074442    0.6920968174
 C   -3.3978164690   -0.6503508378   -0.3817087676
 N   -2.0354241487   -1.1432743918   -0.8873381971
 H   -0.1947604378    0.8833163614   -1.4276186942
 H    0.6326035855   -0.7500557425    0.0464085408
 H    0.2253261857    0.4222543350    1.3128693880
 H   -1.2839779233   -2.7076795221    0.5859503762
 H   -4.0738836542   -2.3828255582    1.1226433514
 H   -2.8396340730    1.3647466811    0.7803692119
 H   -4.2178309753   -0.4456028096   -1.0655033798