17

 C   -0.4512048738    1.5531258929    0.0909929024
 C   -0.0371204631    0.0924036910    0.0176646134
 O   -1.1388979499   -0.7439108283   -0.2940043865
 C    1.2383276740   -0.2667512654   -0.8304521249
 C    1.8822668528   -0.8944377384    0.4189622453
 O    2.6759275276    0.0794285505    1.1764556950
 C    1.6105870001    0.3809285310    1.9984888001
 O    1.5968014201    1.1387524628    2.9138864433
 C    0.6440446035   -0.5505359181    1.2766957848
 H    0.3804074914    2.1970351288    0.3890783558
 H   -0.7996268234    1.8944645191   -0.8918828501
 H   -1.2656147431    1.6823403857    0.8094764634
 H   -1.5317665272   -0.4235461208   -1.1140435474
 H    1.0002190589   -0.9980357637   -1.6056234687
 H    1.8040982188    0.5627439246   -1.2596328156
 H    2.3814513315   -1.8598214301    0.3764600706
 H    0.0361720017   -1.2392914715    1.8574007190