25

 C   -1.3822606793    0.9341187978    0.8601429726
 O   -1.0019293477   -0.3706486724    0.5012752536
 C    0.1500383836   -0.3969067836   -0.3234072290
 C    0.5060524981   -1.8349462438   -0.5903192598
 C   -0.2012000103   -2.6652376580   -1.6453836690
 C   -1.3245921301   -2.1198550985   -2.5015704061
 C    1.2624521127   -2.3034527703   -1.8231613688
 C    1.6975877477   -1.3210315172   -2.8973540761
 C    2.2757512575   -3.4152264248   -1.6082362401
 H   -0.5900279091    1.4536052694    1.4238196776
 H   -1.6283834304    1.5485637021   -0.0215102256
 H   -2.2702727796    0.8563236380    1.4926104029
 H   -0.0422510938    0.1638725354   -1.2506930508
 H    0.9867972527    0.1138641633    0.1853440312
 H    0.7493047989   -2.3639239846    0.3283491009
 H   -0.3690379071   -3.6995093753   -1.3515863588
 H   -1.1520856310   -1.0917249581   -2.8279748388
 H   -1.4590241294   -2.7286399348   -3.4027019089
 H   -2.2680061561   -2.1291182013   -1.9457582742
 H    0.9692302604   -0.5306249152   -3.0863949446
 H    2.6434480011   -0.8390964529   -2.6221474909
 H    1.8648173952   -1.8446499432   -3.8462749736
 H    2.4341983595   -3.9866555977   -2.5310355053
 H    3.2479566444   -3.0120453073   -1.2990342266
 H    1.9447180820   -4.1154834472   -0.8351862918