20

 C   -0.3907436294    1.4573814524    0.1846117535
 C   -0.0973005840   -0.0153619621   -0.0866075904
 C    0.7473722613   -0.2587198748   -1.3295477476
 O    1.2189170370    0.6536043531   -1.9735241896
 C    0.9336377088   -1.7037081798   -1.7474996134
 C   -0.0298971669   -2.2060376267   -2.8823114920
 C    1.1771737253   -2.9305799265   -3.5331289417
 C    2.1242455813   -2.0462339659   -2.6806998778
 H    0.5377413553    2.0247711919    0.2842773728
 H   -0.9536811424    1.9020286747   -0.6404578965
 H   -0.9725305233    1.5757509613    1.1030663493
 H    0.4344379204   -0.4758217151    0.7590204092
 H   -1.0222539236   -0.6008965722   -0.1861628128
 H    0.8751892956   -2.3671406014   -0.8793022403
 H   -0.8893566084   -2.8069959090   -2.5770222261
 H   -0.3787337392   -1.3689935960   -3.4932985745
 H    1.2229468746   -3.9828112054   -3.2382677796
 H    1.2702291922   -2.8710549987   -4.6198249061
 H    2.4431358404   -1.1464853453   -3.2117796132
 H    2.9945591351   -2.5222660144   -2.2237180832