18

 C    0.1413266712    1.5743974417    0.0085785762
 C    0.0212449517    0.0520153241   -0.0019637827
 C    0.5151889207   -0.5533723213   -1.3231451952
 C    0.7006607015   -2.0609425500   -1.2411375968
 O    2.0055615343   -2.4945806324   -0.8604016055
 C    0.9327403745   -2.6895485362    0.0718256255
 C    1.0134824294   -1.8388544092    1.3183578285
 O    1.3044511596   -2.3150281805    2.3983925046
 N    0.7779770445   -0.5040159672    1.1245972208
 H    1.1873896542    1.8794346927   -0.0953897430
 H   -0.4307044732    2.0073118950   -0.8171148337
 H   -0.2494408752    1.9957094779    0.9410100513
 H   -1.0436128427   -0.2088242199    0.1126692416
 H   -0.2003514839   -0.3036512033   -2.1126936883
 H    1.4786927288   -0.1091995976   -1.5966195330
 H    0.2461848056   -2.6635852372   -2.0265052322
 H    0.6704841294   -3.7271979562    0.2636680761
 H    0.7830959196    0.0300073795    1.9835794760