19

 C    0.0578638414    1.6737961542   -0.0149809796
 C   -0.1675930672    0.1603076505   -0.0868675488
 C    0.6913715153   -0.5086609480   -1.1478367390
 O    2.0879915987   -0.3572547617   -0.8271867465
 C    2.7736366846   -1.4420925096   -1.2686620642
 O    3.9590058412   -1.5383355430   -1.2854945044
 O    1.9109923264   -2.4035752811   -1.6873992852
 C    0.5626990972   -2.0380447126   -1.3309707369
 C    0.1270584446   -2.8442432468   -0.1150911633
 H    1.0998634446    1.8995368608    0.2255579030
 H   -0.1795317207    2.1555071247   -0.9696159444
 H   -0.5760144583    2.1235754454    0.7541252034
 H    0.0399811542   -0.2959860103    0.8864011661
 H   -1.2183174173   -0.0520605968   -0.3218111569
 H    0.5267450511   -0.0149097578   -2.1156362056
 H   -0.0711726847   -2.2739793647   -2.1896346292
 H    0.7541542392   -2.6236849646    0.7534419260
 H   -0.9142918636   -2.6296170999    0.1414443973
 H    0.2140186534   -3.9107628789   -0.3368175017