16

 C   -0.0498186151    1.5098532321    0.0489387705
 C   -0.0804198665    0.0194111366   -0.0215378804
 C   -0.0691769828   -0.7656847416   -1.1044898885
 C    0.0155347019   -2.2045895517   -0.7115284352
 O    1.2282214879   -2.5273057753    0.0327758224
 C    0.0173439569   -2.2540047156    0.7511796640
 C   -0.0132983001   -0.8119584985    1.2661637599
 O    1.1247089102   -0.4925812488    2.0519399413
 H    0.8114476082    1.8387621016    0.6411380535
 H    0.0077759595    1.9658681159   -0.9425764818
 H   -0.9421152345    1.8981970730    0.5568366545
 H   -0.0693544740   -0.4273224811   -2.1341243515
 H   -0.3537243239   -3.0083079575   -1.3400297705
 H   -0.3779844028   -3.0742847384    1.3429431412
 H   -0.8828909575   -0.6318699173    1.9096924323
 H    1.8784324725   -0.8478124933    1.5609892384