17

 C   -0.0766501860    1.4304324744   -0.3236541781
 N   -0.2626728603   -0.0057706932   -0.4030084303
 C   -1.2942197731   -0.6409633801    0.2128972028
 O   -2.1484654005   -0.1035997035    0.8885474941
 C   -1.2606514602   -2.1638610929    0.0276623244
 N   -2.5658954947   -2.8245983131   -0.2066462487
 C   -2.0387968200   -3.6456710635   -1.3277239409
 C   -0.7876010090   -2.7622750053   -1.3041093230
 O    0.1374093026   -2.5469527204   -2.0339153199
 H    0.9310821193    1.6765863877    0.0271567538
 H   -0.2351202136    1.9097987409   -1.2963577221
 H   -0.8098927256    1.8188198759    0.3840649485
 H    0.3318596306   -0.5495029660   -1.0133413907
 H   -0.6702214248   -2.5817527352    0.8592656409
 H   -2.9240564536   -3.3473344404    0.5819791998
 H   -1.7983680485   -4.6924614666   -1.0911868148
 H   -2.6408136626   -3.6196190886   -2.2423108957