22

 C   -0.3137150434    1.4095962845    0.1489246814
 C   -0.3609732841   -0.0902616949   -0.1527607789
 C    0.7862923288   -0.5533554021   -1.0571909502
 C    0.7354131911   -2.0444258449   -1.4046479449
 O   -0.5095391347   -2.3829077985   -2.0411206533
 C    1.9405546228   -2.4821498052   -2.2525500950
 C    2.1297388010   -3.9919260684   -2.4489002734
 N    0.9861855676   -4.6927781796   -2.6819972664
 O    3.2338466472   -4.5026841359   -2.4285823981
 H    0.6196499180    1.6862268632    0.6518836135
 H   -0.3795691178    2.0021591301   -0.7706498988
 H   -1.1423704381    1.7104547364    0.7971685685
 H   -0.3254528178   -0.6566350052    0.7870891366
 H   -1.3149068613   -0.3489109996   -0.6248048165
 H    0.7824873097    0.0282826754   -1.9924853739
 H    1.7492211287   -0.3405262677   -0.5757342816
 H    0.7199203255   -2.6264994619   -0.4750443431
 H   -0.5816312093   -1.8455355270   -2.8393305943
 H    1.8676024980   -2.0124764257   -3.2442207091
 H    2.8683091565   -2.1213781619   -1.8024870745
 H    0.0874049791   -4.2432832982   -2.5832890476
 H    1.0566645523   -5.6940815331   -2.7591763804