16

 O    0.1316960860    1.2779896790    0.1461773520
 C    0.0812952554   -0.0588849054    0.0156165353
 N    0.0872514698   -0.7372326881   -1.1048598325
 C    0.0678436026   -2.0524399405   -0.6721481085
 C    0.0498717719   -2.1436781115    0.6773644165
 C   -0.1411897358   -3.5421992875    1.1633019509
 N   -0.0400212916   -4.3258113281   -0.1061484930
 C   -0.0770637710   -3.4093299756   -1.2898746339
 N    0.0353852183   -0.8349719582    1.1413776946
 H    0.1680425591    1.6327230735   -0.7511340016
 H    0.6094468870   -3.8923763321    1.8837917416
 H   -1.1249429662   -3.6934406303    1.6341144196
 H    0.8540304562   -4.7989142472   -0.1062308240
 H   -1.0295438967   -3.5157646976   -1.8285161625
 H    0.7175839660   -3.6735780410   -1.9977124287
 H    0.0744867391   -0.4931757294    2.0860516642