14

 N   -0.2177139892    1.2667393317   -0.1679344613
 C    0.0154675661   -0.0761498670   -0.0640907186
 O    1.1014906693   -0.6027578173   -0.0663814155
 O   -1.1657265913   -0.7452972119    0.0100077356
 C   -1.0575353953   -2.1799345022    0.0621321084
 C   -2.4780436917   -2.7119623253    0.0177652879
 O   -3.1399358530   -2.3681619636   -1.1834236790
 H    0.5771764502    1.8644056872   -0.0194778485
 H   -1.1253623337    1.6229034751    0.0788769172
 H   -0.4761987538   -2.5294525150   -0.7953852557
 H   -0.5414794047   -2.4798462005    0.9802524189
 H   -2.4503512992   -3.8054331144    0.0651679126
 H   -3.0295568354   -2.3524794428    0.9012346839
 H   -3.0592704083   -1.4124617440   -1.2754684958