17

 O   -0.8282074108    0.9556704393    0.5067698928
 C    0.2120671435    0.6585486098   -0.0204564505
 C    1.4242713887    1.5674203301   -0.0370155303
 N    2.6493782579    0.9215833058   -0.6982917530
 C    2.4227803749    1.9165465471   -1.8080380202
 C    2.6954407595    3.1463822142   -2.7423208756
 N    1.1396763192    3.1650036297   -2.5272438321
 C    1.2334841699    1.6549309185   -2.7518302473
 C    1.5437126170    2.8178315464   -1.0289141038
 H    0.3709569336   -0.3213151938   -0.5214009798
 H    1.6025147818    1.9042941430    0.9879171120
 H    3.4791957142    1.1414609538   -0.1502185549
 H    3.2124286156    4.0033388430   -2.3062361686
 H    2.9594107703    2.9906127327   -3.7918125328
 H    1.4492284461    1.3758847977   -3.7856574040
 H    0.3651052863    1.1091465962   -2.3784944294
 H    1.9401171322    3.6970834165   -0.5199987027