21

 C    0.0424542504    1.5028900397    0.0563329561
 C   -0.0453591260   -0.0149518351   -0.1182008281
 C   -1.4490490848   -0.5516184518    0.1336921428
 O   -1.4325354859   -1.9511026549   -0.0498285673
 C   -2.7027040221   -2.5900997337   -0.0106548936
 C   -2.5149076479   -3.9605335627   -0.6531950346
 C   -3.2499027636   -2.6968972471    1.4167658622
 H    1.0587172228    1.8623423118   -0.1294080116
 H   -0.6255579498    2.0246936843   -0.6381119525
 H   -0.2354465942    1.8056136793    1.0721008383
 H    0.2590650417   -0.3012645198   -1.1314071251
 H    0.6461966116   -0.5172825580    0.5680200641
 H   -1.7727762877   -0.2831779300    1.1528490469
 H   -2.1667424448   -0.0837059085   -0.5634500438
 H   -3.4130865368   -2.0035510680   -0.6192601317
 H   -1.8002563509   -4.5548356452   -0.0747808382
 H   -3.4636982927   -4.5039121592   -0.6937070670
 H   -2.1268468666   -3.8552148486   -1.6696709541
 H   -2.5557504316   -3.2641448233    2.0455033650
 H   -3.3986023623   -1.7131743489    1.8708760798
 H   -4.2164439488   -3.2110131904    1.4177949324