15

 N    0.0368623820   -1.0938891271   -0.0408578689
 C   -0.0058878893    0.0612820984   -0.0181881446
 C   -0.0488083805    1.5029872740    0.0388046216
 C   -1.0839993030    2.2734665598    0.8860069584
 C   -0.8081055811    3.3773820780   -0.1465084053
 C    0.6863039467    3.7241746519   -0.1213028954
 C    0.9361252244    2.8728263346   -1.3293683775
 C    1.2693104566    2.3044185500    0.0140191171
 N   -0.4764586332    2.3098016074   -1.2183737023
 H   -2.0823309194    1.8472705000    0.7648409938
 H   -0.8573328961    2.4542601759    1.9380117246
 H   -1.5404530278    4.1419696650   -0.3996972624
 H    1.2034773768    4.6042519710    0.2364324966
 H    1.4947574082    3.0033885415   -2.2461217518
 H    2.2216402457    2.0804585996    0.4735340961