19

 C   -1.7790218366   -0.1753120982    0.3729925659
 C   -0.3730952588   -0.7127282200    0.1891526257
 O    0.3191005551   -1.0001906361    1.1439677912
 C    0.1406150224   -0.9167155616   -1.2144802514
 C   -0.6827417201   -0.4185255255   -2.4020200612
 C   -0.7336951338    1.0375336430   -2.5200171599
 C   -0.7646146070    2.2361343179   -2.6070803351
 C    1.6532696197   -0.9126706468   -1.3536716575
 C    0.9272674249   -2.2143274839   -1.4011161853
 H   -1.8951849010    0.7906579527   -0.1280576705
 H   -2.5109259645   -0.8587881637   -0.0737937660
 H   -1.9842004234   -0.0741225487    1.4388696879
 H   -0.2492479921   -0.8302421692   -3.3214155743
 H   -1.7037871173   -0.8174189564   -2.3539282259
 H   -0.7913220939    3.2943831252   -2.6913071212
 H    2.0559548475   -0.5025439670   -2.2732491026
 H    2.2074198541   -0.6841181676   -0.4515934625
 H    0.9947990785   -2.8569371845   -0.5314234546
 H    0.8176791062   -2.7235039094   -2.3526787729