19

 C    0.1425211139    1.3510615659   -0.3611816009
 C    0.0185277265   -0.1390731512   -0.0519685065
 O    0.6916518177   -0.4991321572    1.1439888662
 C   -1.4426794005   -0.5812752720    0.0149757390
 O   -2.1231805810   -0.2212715059   -1.1816672535
 C   -3.1154485283   -1.2020502172   -1.3813349948
 C   -2.6493948799   -2.4869700291   -2.0287984793
 C   -2.7303677592   -2.3609762778   -0.5230909563
 O   -1.5356075586   -1.9925458575    0.1239972856
 H    1.1975616047    1.6356692322   -0.3841325851
 H   -0.3171075460    1.5902739591   -1.3227515939
 H   -0.3573567391    1.9520362735    0.4095530759
 H    0.4937606164   -0.7306763213   -0.8413912946
 H    0.3676121975    0.0712634677    1.8501555176
 H   -1.9458193395   -0.1106697990    0.8832405313
 H   -4.1231008008   -0.8205014553   -1.5020461366
 H   -3.3964719927   -3.0995029072   -2.5238979778
 H   -1.6611233277   -2.4900841002   -2.4735222317
 H   -3.4178516333   -2.9509594375    0.0727571952