17

 O   -0.2024594883    1.3100972525   -0.1271874703
 C   -0.0220490343   -0.0735717020   -0.0858967296
 C    0.9653759454   -0.7641838539   -0.9628543368
 C    0.5463946376   -2.0189908548   -1.1715233406
 C   -0.6881371803   -2.2803950849   -0.3363581508
 C   -0.2347745227   -2.2746061970    1.1855537801
 C   -0.5110678552   -0.7825495584    1.2339234410
 C   -1.2894498752   -0.8630425870   -0.0677912382
 O   -2.5190983818   -0.4054191952   -0.4685328687
 H    0.3449638523    1.7218519842    0.5488372186
 H    1.8740327931   -0.3026971941   -1.3290261402
 H    1.0788844829   -2.7925313233   -1.7110457742
 H   -1.3444354426   -3.0918128417   -0.6446546554
 H   -0.9532902864   -2.8167216631    1.8057270677
 H    0.7791622449   -2.6352402041    1.3858350625
 H   -0.6668264355   -0.1693038795    2.1147059514
 H   -2.4250483238    0.5429772323   -0.6305079065