20

 C   -0.2524436403    1.5153394297    0.0364559767
 C    0.0606285650    0.0174470283   -0.0090817711
 C    0.9658881114   -0.4223078259   -1.1720805374
 C    1.9209292076   -1.4735907860   -0.5878055893
 O    2.6524131189   -2.1901189427   -1.2091216769
 N    1.8236795085   -1.4963469677    0.8477381155
 C    2.2023739270   -0.1675695222    1.4180727217
 C    0.7772853728   -0.5198722315    1.2409722310
 C   -0.0711308606   -0.8922051874    2.4323224546
 H    0.6658374829    2.1084909366    0.1045487802
 H   -0.7888996910    1.8311033527   -0.8638583153
 H   -0.8775478744    1.7662249320    0.8994603473
 H   -0.8878369182   -0.5294914539   -0.0808689781
 H    0.4261939025   -0.8389328724   -2.0247876042
 H    1.5742088640    0.4024721888   -1.5628009924
 H    2.6624421660   -0.2271153258    2.3995497372
 H    2.6639601776    0.5544077343    0.7487282182
 H   -0.5796874701   -0.0104321306    2.8375029157
 H   -0.8357170201   -1.6239042803    2.1502589864
 H    0.5398464605   -1.3288665360    3.2260798201