18

 C   -0.0197871426    1.5447604583    0.0877110582
 C    0.0408153422    0.0106362879    0.0649072097
 C    0.8444939939   -0.5097305076    1.1872988019
 C    1.4558318455   -0.9571088188    2.1223087687
 N   -1.3120482886   -0.5452524607    0.0164791361
 C   -2.1824881420   -0.4358956490    1.2164530787
 C   -2.6041235553   -1.8898408914    0.9623233161
 O   -3.4655151084   -2.6068741404    1.3705551370
 C   -1.4692029163   -2.0187939184   -0.0626446603
 H    0.9866282162    1.9685509508    0.0486524503
 H   -0.5963799923    1.8992258651   -0.7701342525
 H   -0.5000792941    1.8992715606    1.0044528762
 H    0.5293761450   -0.2967679067   -0.8689880286
 H    2.0129678560   -1.3467179026    2.9387003713
 H   -1.6366327209   -0.3452429215    2.1686286006
 H   -2.9601787477    0.3322224154    1.1655358882
 H   -1.7210567702   -2.4097744020   -1.0537254182
 H   -0.6244183504   -2.5888552889    0.3548749067