17

 O   -0.0187639488    0.0467536345   -0.2303412291
 C    0.0037445650    1.2118284301    0.0538152163
 C   -1.1373734977    2.2705533580    0.1806260603
 C   -0.0323274385    3.3114471558   -0.0341694834
 C    0.9604826477    3.3186277133    1.0616840935
 C    1.0954228664    2.2401922732   -0.0201627818
 C    1.9581232954    2.5472164276   -1.2225388441
 C    1.4269409965    3.9546438656   -1.6663059021
 O    0.0879366432    4.1134359641   -1.1529619798
 H   -1.8148715388    2.1724133352   -0.6710630313
 H   -1.7140707606    2.3422435966    1.1055539029
 H    1.7369358382    4.0748380988    1.0268228155
 H    0.6660777676    3.0333122888    2.0662983685
 H    3.0337184827    2.5860301110   -1.0303102208
 H    1.7822229863    1.7947934055   -1.9963625232
 H    2.0677496353    4.7494941210   -1.2640542955
 H    1.3768292501    4.0771073309   -2.7510323259