16

 O   -0.4690617508    1.2368947532    0.0883945809
 C   -0.0757558560   -0.1452882621    0.0347959052
 C    0.7414481760   -0.4076076935   -1.1506958457
 C    1.4372505415   -0.5981706007   -2.1120605749
 C    0.6247787777   -0.6070394039    1.3120342606
 C    1.4831126952    0.3482102160    2.1241465269
 C    0.1520441197   -0.1224040325    2.6599033163
 O   -0.9371093425    0.7321993027    2.8027192470
 H    0.2983718950    1.7674363942   -0.1533402342
 H   -1.0230624142   -0.6911291828   -0.0572823826
 H    2.0413260339   -0.7744959875   -2.9680212806
 H    0.9627112243   -1.6372595420    1.2452701259
 H    2.4052330153   -0.0215206626    2.5591554203
 H    1.5277887145    1.3834203016    1.8003503755
 H    0.1688598379   -0.8394836140    3.4748092897
 H   -1.0111436775    1.2433230439    1.9838189098