22

 C   -0.2239332585    1.4758313663   -0.0063999768
 C    0.1811350952    0.0022102944    0.1198232274
 C    0.7588815300   -0.5296891765   -1.1935954892
 O   -0.2685356836   -0.4693701083   -2.1731991756
 C    1.1260974118   -0.2935533802    1.3129519699
 C    2.4699682962    0.4408511911    1.2762928505
 N    0.4622723113   -0.0214304506    2.5874681905
 C   -0.2595950458   -0.9551205321    3.2600792368
 O   -0.4252296303   -2.1024399040    2.9005903588
 H    0.6373123023    2.1184752529   -0.2222966077
 H   -0.9365301971    1.5941241882   -0.8251456309
 H   -0.6982554131    1.8382652359    0.9110458288
 H   -0.7245348760   -0.5869435784    0.3085671065
 H    1.6275686229    0.0738059888   -1.5034430677
 H    1.1081913594   -1.5652610364   -1.0514141072
 H    0.0950031410   -0.7705630711   -3.0106449742
 H    1.3105122311   -1.3725428059    1.3168111147
 H    2.3412612224    1.5277861883    1.3258987444
 H    3.0910425872    0.1349172802    2.1228162363
 H    3.0172424688    0.2156005052    0.3572421690
 H    0.5077238926    0.9101879343    2.9692749185
 H   -0.6837125678   -0.5495346120    4.2008820173