20

 C   -0.3811716722    1.3063202130    0.1348443282
 N    0.0491714517   -0.0840224286    0.1209762995
 C    1.4331955061   -0.3469741302   -0.2558047212
 C    0.9875266015   -0.5485892196    1.1535423589
 C    1.4973508724    0.3326518030    2.2519316373
 C    0.7353169909    0.6274373118    3.5423034998
 C    0.0262272441   -0.6332445786    4.0253785309
 O    1.2540434178   -1.4092016390    3.9204442860
 C    1.9776797721   -0.2297340303    3.5602743471
 H    0.4015265273    2.0277095018    0.4187292803
 H   -0.7354240355    1.5723856490   -0.8663246948
 H   -1.2179147799    1.4214718505    0.8312815234
 H    1.6011721828   -1.1938514513   -0.9164900607
 H    2.0783540843    0.5108612029   -0.4491532439
 H    0.7864806692   -1.5650160053    1.4810561395
 H    2.0841299685    1.1936146055    1.9420516096
 H    0.5619580817    1.6319391622    3.9037377638
 H   -0.2955717772   -0.5772675050    5.0708100821
 H   -0.7813200709   -1.0409141375    3.4073508690
 H    2.9690890850   -0.0992350844    3.9794397353