21

 C    0.0167588849    1.5898545491    0.0031520412
 C    0.0636348917    0.0800646463    0.1309267487
 C    1.2422892289   -0.7951537414   -0.1843074046
 C    2.5586960009   -0.1279817526    0.2310035019
 C    2.0340663855   -0.0772930003    1.6993646889
 C    2.8535824945   -0.7418010688    2.8266499923
 C    2.8637038445    0.6614706536    3.4608240844
 O    2.0354953203    1.1861689078    2.4052055710
 C    0.7098567621   -0.6856219824    1.2603434928
 H    0.9232687446    2.0688569948    0.3758809152
 H   -0.1287406335    1.8850534454   -1.0423662938
 H   -0.8199694391    1.9931231838    0.5834182937
 H   -0.8697336377   -0.3976537777   -0.1650126918
 H    1.1671496800   -1.6418240299   -0.8555211316
 H    3.4304727736   -0.7800123099    0.1315826997
 H    2.7864031512    0.8378153876   -0.2286153835
 H    2.3072182158   -1.4981023812    3.3943771486
 H    3.8237232188   -1.1458380889    2.5312415565
 H    2.3832850741    0.7522669058    4.4420319012
 H    3.8424430556    1.1559192600    3.4991555942
 H    0.1527533434   -1.4091028010    1.8464799549