19

 C   -0.0102823956    1.5140369585    0.0773652520
 C    1.3049748934    0.7904200418   -0.0019394434
 C   -0.0011054397    0.0124836881    0.0061985119
 C   -0.0737471137   -0.6628153973   -1.3811448743
 C    1.4184623370   -0.9030970635   -1.6826338723
 C    1.9205838506    0.5250612950   -1.3935702643
 O    1.3994173629    1.4260063621   -2.3858360489
 C    0.3469972478    0.8804596209   -3.1481467893
 O   -0.6268626391    0.2191008047   -2.3732111091
 H   -0.2671121962    1.9552478984    1.0348938780
 H   -0.3482308511    2.0723870658   -0.7860042315
 H    1.9762579450    0.7981300547    0.8492554901
 H   -0.3197355470   -0.5694273089    0.8635594058
 H   -0.6923754385   -1.5632558861   -1.3741981051
 H    1.8371179071   -1.5983243663   -0.9508122912
 H    1.6378785783   -1.2819532792   -2.6843593572
 H    3.0069888931    0.6401833389   -1.3972456498
 H   -0.1548581712    1.7178858348   -3.6396928374
 H    0.7475331570    0.1999578978   -3.9168052640