18

 C    0.0724904452   -1.1979557866    0.0446018439
 C    0.0708008990    0.0028975017    0.0176103357
 C    0.0155833663    1.4585463166    0.0160809106
 C   -0.8093728494    1.9916320674    1.2076695993
 N   -0.6373644439    3.4317536986    1.4511759067
 C    0.5551450372    3.8354860089    2.2020549723
 C    0.4502127652    4.1359324110    0.7537650545
 C    1.3148283279    3.3735600967   -0.2312580154
 O    1.3399938926    1.9871106696    0.0572827716
 H    0.0851135077   -2.2599165392    0.0575120711
 H   -0.4618648942    1.7938815675   -0.9211381650
 H   -1.8695701623    1.7958983269    1.0120541152
 H   -0.5341304210    1.4342790105    2.1082950341
 H    0.3984588592    4.6144526322    2.9437305197
 H    1.2558969201    3.0543364224    2.4897128025
 H    0.1922829454    5.1454319207    0.4364739671
 H    0.9430284953    3.5361868793   -1.2571881471
 H    2.3521915596    3.7206738955   -0.1911153566