18

 C   -0.1632133269    1.4995256630    0.0542161945
 C    0.0594305255   -0.0116238204   -0.0235828534
 C    0.5945481069   -0.4147509228   -1.4074947417
 N    0.6228411615   -1.8290359594   -1.7170392318
 C    0.8398981686   -2.7295480503   -0.8548808447
 N    1.0934390698   -2.6896109858    0.5139552690
 C    1.3219865124   -1.6535412701    1.4310559009
 O    1.8055794177   -1.9117888038    2.5178369370
 N    0.9837814080   -0.3910795627    1.0420975443
 H    0.7757479809    2.0390025976   -0.1109197953
 H   -0.8799129526    1.8191523070   -0.7059673918
 H   -0.5598857713    1.7900966917    1.0324393091
 H   -0.9062938946   -0.5177033282    0.1230881081
 H   -0.0326825171    0.0661090873   -2.1678573395
 H    1.6033055097    0.0048627393   -1.5265431867
 H    0.8382829106   -3.7653591789   -1.2014847392
 H    1.3204402166   -3.5772702361    0.9382813629
 H    1.1220164042    0.2722699426    1.7893385585