19

 C    0.2797509129    1.6724251794    0.1449843171
 C   -0.1103226983    0.2057740990   -0.0968456404
 C    0.5650523347   -0.3890504999   -1.2913046235
 C    0.0309994795   -0.9751983153   -2.4010467757
 N   -1.2437122356   -1.3250228288   -2.8049536783
 C   -1.6399811513   -1.0141816929   -4.1795366291
 O    1.0557002955   -1.3567938113   -3.2232270344
 C    2.1800663607   -0.9758874902   -2.5540394166
 N    1.9581382174   -0.4169561422   -1.4169946619
 H    1.3640552764    1.7614831350    0.2498790266
 H   -0.0281609702    2.3040612052   -0.6944390460
 H   -0.1896957318    2.0583027979    1.0552293084
 H    0.1372134819   -0.3823021010    0.7968063081
 H   -1.1984529624    0.1268618277   -0.2178813063
 H   -1.9297154902   -1.0308839160   -2.1237600978
 H   -1.6339229262    0.0628154532   -4.4054707660
 H   -0.9585659520   -1.5138821117   -4.8706832445
 H   -2.6453369743   -1.4056255939   -4.3507794457
 H    3.1195850933   -1.1681246444   -3.0464849042