18

 C    0.0109315089    1.6021509081   -0.1799293107
 C    0.0093113291    0.0736526656    0.0080904149
 C    0.6750156111   -0.6138436423   -1.1635994604
 C    1.7843066523   -1.2853221971   -0.8366393829
 C    2.0260507477   -1.1816074219    0.6201529787
 O    2.9858970746   -1.5856411472    1.2362432410
 C    0.8074035627   -0.4621092996    1.2331525400
 C    1.2042405058    0.5163040494    2.3384958576
 H    1.0289785533    1.9928074165   -0.2706866292
 H   -0.5319588427    1.8747629797   -1.0908808188
 H   -0.4744909920    2.1038489133    0.6617133152
 H   -1.0400145033   -0.2438796450    0.0690413895
 H    0.2780385576   -0.5154734856   -2.1698094976
 H    2.4493698503   -1.8193681471   -1.5032535013
 H    0.2143781634   -1.2656100487    1.6917577134
 H    1.7660509740    1.3683133310    1.9455232585
 H    0.3295163647    0.9018089564    2.8705099480
 H    1.8478541324   -0.0006781355    3.0549838241