14

 O   -0.1220376938    0.0584310894   -0.7068863571
 C   -0.0639389848    1.2082289405   -0.3588105936
 O   -1.1338416532    2.0769259836   -0.3098087688
 C   -0.6778454821    3.3017067361    0.1310568263
 C    0.6379472017    3.2411272272    0.3608467576
 N    1.0320159932    1.9363570101    0.0594782050
 C    2.3668165124    1.3644427764    0.1200142978
 C    3.0190717707    1.5729698707    1.4092781509
 C    3.5668928736    1.7670168500    2.4600341365
 H   -1.4065746558    4.0864130877    0.2263991917
 H    1.3298213605    3.9804655935    0.7248565244
 H    2.2382261469    0.2971982512   -0.0891081550
 H    2.9921686852    1.7788891176   -0.6820639462
 H    4.0493032554    1.9205417660    3.3939477205