21

 C    0.0224238538    1.4782379316    0.0737194690
 C    0.0105216282   -0.0180299239   -0.0148747636
 C   -0.9424806078   -0.8942262490    0.8198693086
 C    0.5577637612   -1.0429415789    0.9519436803
 C    0.4409102936   -2.0694374088   -0.2296318196
 C   -1.0962419503   -2.1954772057    0.0200014882
 C   -1.8183859836   -2.0553572380   -1.3267161419
 C   -0.8603398372   -1.1614232015   -2.1790480250
 C    0.3270075341   -0.8895666754   -1.2439150997
 H    0.9896094876    1.8903369473   -0.2373827947
 H   -0.7492358426    1.9256467971   -0.5648985247
 H   -0.1656137488    1.8146695674    1.0994272069
 H   -1.6387153952   -0.4467497192    1.5194155723
 H    1.2161859050   -0.9518318849    1.8036928837
 H    1.0723748695   -2.9359707642   -0.4151182326
 H   -1.4006939895   -3.0474300340    0.6317470005
 H   -1.9636632564   -3.0339043131   -1.7973997352
 H   -2.8114198261   -1.6097635685   -1.2075663500
 H   -0.5368517605   -1.6843957752   -3.0854969166
 H   -1.3376097509   -0.2316403487   -2.5059446663
 H    1.2599917860   -0.6062285745   -1.7376635597