16

 O   -0.9571041149    1.0769875823    0.4252168071
 C    0.1655546947    0.8641125772    0.0491211386
 C    1.2377727291    1.9345484613   -0.0474889851
 O    2.5484805633    1.3432224196   -0.0183523630
 C    3.1144009722    1.7492622910   -1.2446606025
 C    2.7156742827    3.2121376961   -1.5817911061
 N    2.7706643385    2.8546264948   -3.0439594328
 C    2.0688034823    1.6916833417   -2.3930517678
 C    1.2722850554    2.6255720245   -1.4153678700
 H    0.5058209416   -0.1428215697   -0.2818205572
 H    1.1135818918    2.6426917826    0.7800065622
 H    4.1298234387    1.3835994376   -1.3705231382
 H    3.1179370169    4.1423955882   -1.1798961828
 H    2.0841524287    3.4175303651   -3.5530429792
 H    1.7143147903    0.8278800681   -2.9558756309
 H    0.3986633987    3.1794580396   -1.7575558920