17

 N    0.1966445220    1.3332906909   -0.5112920891
 C   -0.0089601334    0.0202211634   -0.1076407095
 C   -1.0966070469   -0.7505947738    0.1746354792
 N   -0.6493279754   -2.0547242017    0.4098930523
 C    0.6293655892   -1.9993216929    0.2756615000
 O    1.1068298748   -0.7666088113   -0.0487505268
 C   -2.5221667655   -0.3850362683    0.2427610563
 C   -3.5813208871   -1.3396242270   -0.2715848066
 C   -3.4453878200   -1.1013342764    1.2063436749
 H    0.9401595965    1.7926568844    0.0030456301
 H   -0.6509653677    1.8816279630   -0.4526912366
 H    1.3597164465   -2.7831993778    0.3940889337
 H   -2.7211058947    0.6719977534    0.0887443597
 H   -4.4361496967   -0.9207548867   -0.7912334547
 H   -3.2286175922   -2.2886798372   -0.6584865855
 H   -3.0019199617   -1.8920688020    1.8001493182
 H   -4.2064132078   -0.5168669499    1.7117163744