19

 C   -0.0907879984    1.5101339259    0.0834495190
 C   -0.0040895096    0.0123476777   -0.0011153713
 C   -0.0290479395   -0.6688965502   -1.1500330817
 C    0.0912630350   -2.1725456827   -1.2288950618
 C    0.9438246107   -2.7509878360   -0.0821389101
 C    0.5785360424   -2.1370095396    1.2642705382
 N    1.4743450040   -1.0681935097    1.7606504035
 C    0.1061224616   -0.7320686233    1.2866834173
 H    0.8032682414    1.9229458521    0.5673871799
 H   -0.1860372821    1.9656749522   -0.9060781344
 H   -0.9500649592    1.8282294655    0.6885744728
 H   -0.1361143776   -0.1279814247   -2.0881732144
 H   -0.9122318455   -2.6240866860   -1.2163868871
 H    0.5287242296   -2.4597947160   -2.1915724003
 H    0.8356488804   -3.8402097690   -0.0451394096
 H    1.9987551272   -2.5354582551   -0.2776531678
 H    0.1605432477   -2.8120549909    2.0070790065
 H    1.4824217408   -1.0769449317    2.7787501828
 H   -0.6160539891   -0.4469333486    2.0510685486