22

 C   -0.0044256254    1.5894539443    0.0109429165
 C    0.0053318487    0.0499240261    0.0530450499
 C    0.8052132502   -0.4560924481    1.2680303952
 C   -1.3924755271   -0.5164178400    0.0318061057
 C   -1.9509476499   -1.3320257853   -0.9358584392
 C   -1.4019139363   -1.8958179653   -2.2063761133
 N   -3.2447906659   -1.6048821055   -0.5471968082
 C   -3.5248974536   -0.9840850926    0.6438273222
 C   -2.3984750902   -0.3025335048    1.0276793310
 H    1.0158900787    1.9885288256   -0.0097818653
 H   -0.5350283408    1.9561524853   -0.8727987188
 H   -0.5063986733    2.0012838225    0.8932984594
 H    0.5259915869   -0.2979105412   -0.8483250520
 H    0.3384170785   -0.1333074644    2.2050745920
 H    0.8524024064   -1.5490717919    1.2812740098
 H    1.8296211317   -0.0673519992    1.2537174393
 H   -1.4078375299   -2.9935726902   -2.2082771919
 H   -1.9712824588   -1.5663192737   -3.0852044379
 H   -0.3678891044   -1.5770945453   -2.3519848605
 H   -3.8868032962   -2.1788542237   -1.0651962158
 H   -4.4927639743   -1.0809164302    1.1089734816
 H   -2.2978666449    0.2890781977    1.9252799202