17

 C   -0.0206338519    1.5053327188   -0.0255205545
 C   -0.0291277725    0.0046427380   -0.0082202358
 C   -1.2718847374   -0.8795281310   -0.1147860241
 C   -0.4709312457   -2.0400457234    0.5851351728
 C    0.6002029907   -0.9949665893    0.9833351018
 C    1.1896236651   -0.8245804202   -0.3737732882
 O    1.0595277753   -1.9972661378   -1.1637948495
 C    0.1677554297   -2.8385562099   -0.5406408890
 O   -0.0581946440   -3.9447589648   -0.9305215369
 H    0.9730226671    1.9023787876    0.2069072396
 H   -0.3076938528    1.8864045471   -1.0124811454
 H   -0.7232641094    1.9147660203    0.7086800607
 H   -2.0622074547   -0.5202792658    0.5482845874
 H   -1.6917057669   -1.0761857320   -1.1071370938
 H   -0.9850547688   -2.6448751352    1.3253513966
 H    1.1030944883   -0.8694262109    1.9332995615
 H    2.1353427178   -0.3246292915   -0.5351343732