18

 C    1.0956608775    1.5989215375   -1.9422217729
 N    1.1217137899    0.1553454638   -2.0203274880
 C    0.5725294592   -0.6005763140   -1.0412442374
 N    0.0111553394   -0.0819658629   -0.0125967131
 N    0.6679572034   -2.0048398071   -1.2444334148
 C    1.2354450652   -2.6850754549   -2.2879483191
 O    1.7782166920   -2.2030191665   -3.2614232880
 O    1.1028763487   -4.0117718291   -2.0764235218
 C    1.6578615321   -4.8458549166   -3.1004137848
 H    0.0685512418    1.9776597262   -1.9005087667
 H    1.6146533620    1.9593820727   -1.0473213153
 H    1.5895589767    2.0023115289   -2.8285879741
 H    1.5461988637   -0.3230509135   -2.8001386264
 H   -0.3479302464   -0.7893542679    0.6229584402
 H    0.2619587171   -2.5761301477   -0.5207544493
 H    2.7316416189   -4.6711549457   -3.2017036808
 H    1.4672868105   -5.8692131736   -2.7775640105
 H    1.1745681283   -4.6522649698   -4.0610003372