20

 C   -0.0138127216    1.4582650832   -0.1364231719
 C    0.0416753441   -0.0301616546    0.0919508952
 N    0.2215481954   -0.6657088531    1.1743263479
 O   -0.1461667280   -0.6807756595   -1.0844985124
 C   -0.1094113410   -2.0783771609   -1.0477108442
 C    1.1728105232   -2.8320667566   -1.1758146498
 C    0.1025091573   -2.9960558656   -2.2378220296
 C   -0.9992761834   -3.9291057498   -1.7151846044
 C   -1.2370326656   -2.9545192111   -0.5094111809
 H    0.7571983202    1.7588587204   -0.8525246876
 H   -0.9801444772    1.7367593599   -0.5678969408
 H    0.1317778294    2.0035063660    0.7972898242
 H    0.3400632008   -0.0177645200    1.9500951547
 H    2.0169693517   -2.2216373381   -1.4794508628
 H    1.4183207019   -3.6426793208   -0.4932443510
 H    0.2926116085   -2.7509732537   -3.2753818636
 H   -1.8654997881   -3.9937473617   -2.3768500681
 H   -0.6741969409   -4.9429356755   -1.4608404633
 H   -1.0983345062   -3.3409421538    0.5026093122
 H   -2.2089202004   -2.4602746747   -0.5752365238