20

 C    0.1986960072    1.5611237065   -0.2269019120
 C   -0.0276505698    0.0709834116    0.0448976421
 N    0.5123780866   -0.7470939922   -1.0676811028
 C    1.7139710988   -1.2749072951   -0.6929597909
 C    1.9403888036   -1.1862049636    0.6413925737
 C    3.0773373367   -1.7657662398    1.3055461980
 O    3.2803924947   -1.7724685285    2.5087909395
 C    0.7339466267   -0.5144185505    1.2876998423
 C    1.0538100164    0.4772562759    2.4100857083
 H    1.2641759434    1.7884766872   -0.3302179903
 H   -0.3064831971    1.8594227762   -1.1524896807
 H   -0.2069918861    2.1741289552    0.5821751009
 H   -1.1026842690   -0.1129712844    0.1358643606
 H    0.3806761874   -0.4254503897   -2.0153888943
 H    2.3523876821   -1.7411198650   -1.4349677047
 H    3.8094609247   -2.2398674930    0.6090653836
 H    0.1007122229   -1.3034543818    1.7175631321
 H    1.6921614896    1.2946015654    2.0624767647
 H    0.1390591070    0.9106351102    2.8287373865
 H    1.5907670242   -0.0457995946    3.2027777233