19

 O   -0.1144234375    1.5333323776    0.1712997971
 C    0.0154117157    0.1511585436   -0.1172698878
 C   -1.3469391884   -0.4970181131    0.0920485680
 C   -1.3423037150   -1.9966540578   -0.2192875496
 C   -2.6859284957   -2.6525382514    0.0251713301
 C   -2.7566333305   -4.1907972642    0.0449800162
 C   -3.1343343305   -3.9939474262    1.5136565476
 O   -3.4138793188   -4.6663521400    2.4522921197
 O   -3.0617912549   -2.6253264244    1.4533959421
 H    0.7485888653    1.9454986410    0.0722996830
 H    0.3501358678   -0.0106022290   -1.1560123501
 H    0.7590977467   -0.3278581756    0.5407890272
 H   -1.6605670894   -0.3373450281    1.1289392185
 H   -2.0779363221    0.0180763401   -0.5431882616
 H   -1.0706291028   -2.1676733159   -1.2700106600
 H   -0.5859192214   -2.5086556535    0.3900927499
 H   -3.4796311990   -2.1711885206   -0.5539564833
 H   -3.5365549124   -4.6552131059   -0.5602978983
 H   -1.8107315570   -4.7138892369   -0.1092817286