18

 N    0.0664083864   -1.1899313935    0.1297897267
 C    0.0357533818   -0.0365718267    0.0615417352
 C   -0.0098110630    1.4259138067   -0.0110604028
 C   -0.8044548657    2.0063408290    1.1915229009
 C   -0.7355464970    3.5301907516    1.2245753835
 C    0.1650063926    4.2187238066    2.2229799234
 C    0.5454826511    4.1811261419    0.7563805059
 C    1.6228014148    3.2835514825    0.2738321816
 C    1.3896353354    2.0217873384   -0.0845820602
 H   -0.5482206842    1.6762260167   -0.9370676345
 H   -1.8438033091    1.6708057130    1.1364675005
 H   -0.3842431764    1.5797425905    2.1070596490
 H   -1.6581852811    4.0422274990    0.9726305606
 H   -0.1544548675    5.1671187809    2.6409613250
 H    0.7282669346    3.5893056294    2.9041726414
 H    0.4593475853    5.1257386190    0.2257304224
 H    2.6295416289    3.6882855308    0.2040127580
 H    2.1862663432    1.3806213944   -0.4461372264