23

 C   -0.0535659678    1.5765233265   -0.0290699800
 C   -0.0880047208    0.0512659775    0.0991477046
 C    0.8061146225   -0.4817487944    1.2260785777
 C    0.7947433316   -2.0036356351    1.3348795007
 C    1.4835157155   -2.7256969630    2.4936669797
 C    0.4640810701   -2.8698060049    3.6388871309
 C   -0.8494807126   -2.2425499741    3.1792577870
 C   -0.4893262593   -2.7864968887    1.7691593325
 C    0.4627983664   -3.8357430364    2.4783118491
 H    0.9618116951    1.9333018475   -0.2354126560
 H   -0.7005715005    1.9265003910   -0.8397822663
 H   -0.3891182026    2.0585348150    0.8960395197
 H   -1.1214713113   -0.2774658351    0.2704111373
 H    0.2196956503   -0.4042002044   -0.8516823651
 H    1.8406481644   -0.1515969976    1.0544094653
 H    0.5055170190   -0.0294510280    2.1788574237
 H    1.1515982178   -2.4391459405    0.3925749683
 H    2.5456809489   -2.8093612252    2.6898821886
 H    0.7985771531   -3.0568211834    4.6515862366
 H   -1.7041109632   -2.7819565793    3.5978995825
 H   -1.0099951403   -1.1651860988    3.2994777749
 H   -1.2702345431   -3.0129841719    1.0458654632
 H    0.5610101269   -4.9098815165    2.4232262650