19

 C    0.1167461456    1.3636602192    0.1005701003
 O   -0.1596498731    0.0015620050   -0.1298330249
 C    0.5647198791   -0.5531133234   -1.2108565233
 C    2.0509742931   -0.9042406647   -0.8643191923
 C    2.0032205940   -2.4200714046   -0.9976444168
 C    1.1002553886   -2.8046398150   -2.2063803629
 O    0.6326416720   -4.0150710347   -1.5191968926
 C    0.6293596204   -2.9553961517   -0.4967457549
 C    0.0156813888   -1.9388182611   -1.5025728354
 H    1.1692814137    1.5374890442    0.3710588604
 H   -0.1158328509    1.9789568320   -0.7829952645
 H   -0.5145525316    1.6869274089    0.9317906266
 H    0.4952415310    0.1158837180   -2.0828469868
 H    2.7692211414   -0.4468218546   -1.5520874895
 H    2.2977280449   -0.5786156803    0.1507307490
 H    2.8890340794   -3.0243130591   -0.8061075482
 H    1.3473236231   -2.8812696411   -3.2661384399
 H    0.3035846746   -3.2157310681    0.5096491384
 H   -1.0260633542   -2.0524633289   -1.7963040927