13

 C   -0.0129062237    1.5238109568    0.0679039634
 C    0.0363124690    0.0385722188   -0.0553490075
 C   -0.0673894160   -0.7690099122   -1.1497570227
 N    0.0504218133   -2.0447700860   -0.6604966526
 C    0.0095201977   -3.2472910544   -1.3964186238
 O    0.1170626595   -4.3378825612   -0.9239034074
 N    0.2212741787   -2.0122586724    0.6968324322
 N    0.2119940544   -0.7753418361    1.0487256500
 H    0.9143709872    1.9081590783    0.5040065720
 H   -0.1564992919    1.9952072808   -0.9070088436
 H   -0.8324630597    1.8320599487    0.7244667242
 H   -0.2092805288   -0.5657798605   -2.1979549200
 H   -0.1360667195   -3.0369924407   -2.4716057143