16

 C   -0.0511794743   -1.1490196440   -0.2118198350
 C   -0.0424926678    0.0369484789   -0.0149518637
 C    0.0086103255    1.4754459281    0.2162084367
 C    1.4231381215    2.0496043691    0.0691133041
 C    2.0793432204    2.0541064258   -1.3621679343
 C    2.1557798321    3.5825870323   -1.2675720599
 O    0.8180142955    4.0627352271   -1.0756693201
 C    1.5372890648    3.5858497493    0.0675746307
 H   -0.0763259492   -2.1963825690   -0.3835173348
 H   -0.6487764733    1.9930022248   -0.4919193544
 H   -0.3741737735    1.7003865116    1.2207378601
 H    2.0975693938    1.5976576271    0.8011867870
 H    3.0557027591    1.5653211490   -1.3747801351
 H    1.4672849643    1.6689639060   -2.1809811358
 H    2.8643179026    4.2676703721   -1.7179649576
 H    1.6433036385    4.2668347721    0.9046788420