22

 C    0.1055761514    1.3051659180    0.1660862774
 O   -0.2511404450   -0.0141361354   -0.1787858795
 C    0.5145465133   -0.5416584821   -1.2334360923
 C    1.9156553520   -1.0923474188   -0.8054104983
 C    1.4157584597   -2.5255687459   -1.1029243715
 C    1.8009096384   -3.7509659849   -0.3278984594
 C    0.0651660596   -1.9823742647   -1.5220146408
 N    0.9287963856   -2.6620456810   -2.4616155678
 C    1.5262438467   -2.0124853678   -3.6186085984
 H    1.1419833394    1.3736266903    0.5298603135
 H   -0.0034158397    1.9902089735   -0.6895168299
 H   -0.5680476652    1.6257813049    0.9644438123
 H    0.5075152576    0.1536848758   -2.0875567472
 H    2.8029333104   -0.7488024047   -1.3469135963
 H    2.0647744477   -0.9320855967    0.2651843740
 H    1.6937912964   -3.5851372613    0.7493575443
 H    1.1722083237   -4.5962746282   -0.6193516306
 H    2.8453204079   -4.0258516430   -0.5204750890
 H   -0.9396715302   -2.3543577366   -1.3475919348
 H    1.9266220405   -1.0036316310   -3.4440747065
 H    2.3446430560   -2.6389763496   -3.9871660604
 H    0.7728633340   -1.9445742308   -4.4096830890