20

 O    0.4539600724    0.9173822427   -0.4941428383
 C    0.1378122035   -0.2260550745    0.2710014920
 C   -0.0506479360   -0.0240265303    1.8070928260
 C   -1.4760893463   -0.6292744010    1.6986226728
 C   -1.3617803219   -0.6009479056    0.1406511606
 C   -1.7854684845   -1.9932875306   -0.3552922300
 C   -1.8589012357   -2.8530594711    0.9065651058
 C   -0.6341501347   -2.9901499658    1.7300779589
 N   -1.6743019168   -2.0276485839    2.1225462982
 H    1.3684345575    1.1581263483   -0.3131013300
 H    0.8141326097   -1.0572565820    0.0203370649
 H    0.6475745909   -0.5296697326    2.4784140096
 H   -0.0768460446    1.0408956015    2.0520353592
 H   -2.2730849195   -0.0350006892    2.1498115729
 H   -1.8998198276    0.2127672194   -0.3488607990
 H   -2.7721250163   -1.9496764011   -0.8271955448
 H   -1.0920675386   -2.4029178850   -1.0981296493
 H   -2.6302491229   -3.6170388815    0.9570535856
 H   -0.5215420946   -3.8279987078    2.4131376232
 H    0.3052796561   -2.6347879998    1.3149101415