17

 C    0.0247581462    1.3994349010    0.0915632089
 O   -0.0220002651   -0.0130100680   -0.1090763898
 C   -1.2321671457   -0.5955074355   -0.0575720741
 C   -1.2909339858   -1.9894098742   -0.2541587987
 N   -2.4381804578   -2.6404839291   -0.2197446973
 C   -3.5600374753   -1.9276398014    0.0106526665
 C   -4.8641270364   -2.6750357835    0.0487005598
 C   -3.4780964718   -0.5543547594    0.2016159854
 N   -2.3192884902    0.1197493251    0.1692549862
 H    1.0781316825    1.6704781511    0.0123328237
 H   -0.5613112889    1.9244389553   -0.6683799886
 H   -0.3645120476    1.6699306243    1.0774237062
 H   -0.3798434844   -2.5519580904   -0.4388822591
 H   -5.7038000938   -2.0023139302    0.2413679644
 H   -5.0431158636   -3.1894882101   -0.9010545771
 H   -4.8480350103   -3.4417714491    0.8301013741
 H   -4.3727319820    0.0347931442    0.3883567797