13

 O    0.2216562147    1.4760335791   -0.1262075543
 C    0.0521443908    0.0935730458    0.0160465920
 C    0.5294015006   -0.6479197086   -1.1809434597
 N    0.8958834405   -1.2228205617   -2.1131147009
 C    0.7728551266   -0.4004963474    1.2434688772
 N    1.6793804465    0.2585883991    1.8853189587
 C    2.0609772249   -0.5985147820    2.9128152097
 C    1.3443306420   -1.7413425925    2.8160249766
 O    0.5052710469   -1.6232465067    1.7380144760
 H    1.0619155539    1.7014024879    0.3002818610
 H   -1.0208264257   -0.1142160697    0.1170048376
 H    2.8133771352   -0.3245905652    3.6340926247
 H    1.2891426430   -2.6627830582    3.3685951614