18

 C   -0.1841006621    1.5355345169   -0.0002440656
 C    0.0238392214    0.0272835885    0.0133596955
 C    1.1606884600   -0.5962487460   -0.8440328220
 C    2.1561886907   -0.2130311628    0.2715806678
 C    0.9206179009   -0.5758949728    1.1550593840
 C    0.7760339969   -2.0711716785    0.7995947067
 O    0.9621560183   -2.0146985986   -0.6315927630
 C    1.7757987373   -2.9461439841    1.4266555673
 N    2.5508831342   -3.6291281538    1.9441560498
 H    0.7387024508    2.1028264235    0.1442237000
 H   -0.6210963910    1.8503161120   -0.9537679345
 H   -0.8796973376    1.8303209909    0.7923992685
 H   -0.9380048491   -0.4778493469   -0.1268726805
 H    1.3108646348   -0.4138583990   -1.9065512426
 H    3.0567614217   -0.8220286756    0.3678565841
 H    2.4048565957    0.8457306991    0.3040758165
 H    0.8266589797   -0.3017715483    2.2046001026
 H   -0.2206306224   -2.4646092346    1.0315104453