14

 O   -0.0265244964   -0.0563083086    0.0528130327
 C   -0.0213746423    1.1559734144    0.0294307169
 N   -1.1304561377    1.9382525244    0.1782157221
 C   -1.2323986017    3.3781618870   -0.0395841908
 C    0.1405604639    4.0118142877    0.0345435562
 C    1.2446823998    3.2418792148   -0.0238578594
 N    1.1715485262    1.8768601145   -0.1188449999
 C    0.2318948182    5.4215353801    0.1269091503
 N    0.2661413771    6.5787653789    0.2007409116
 H   -1.9844196273    1.4070609058    0.2441523619
 H   -1.6978680119    3.6003965878   -1.0129371574
 H   -1.8865040184    3.8096213259    0.7272908921
 H    2.2404854317    3.6672208505   -0.0015984605
 H    2.0036316987    1.3102157969   -0.1310979857