14

 O    0.0075201698    1.3342808129    0.3347834695
 C   -0.0053390174   -0.0348619963   -0.0300858387
 C   -1.4311211292   -0.4870284768   -0.0137079619
 N   -1.7819383943   -1.7555902548    0.0799019273
 N   -3.1293243424   -1.7173140941    0.0317224808
 C   -3.8716120158   -2.9170873857    0.1078052458
 O   -5.0636762779   -2.9731221505    0.0744446096
 N   -3.6659493893   -0.4933440853   -0.0794405811
 C   -2.6115413709    0.2998690030   -0.1110820431
 H    0.9009912349    1.6692048772    0.2177936087
 H    0.4123144948   -0.1858016066   -1.0383374772
 H    0.5810493258   -0.6582561940    0.6602648053
 H   -3.1767233046   -3.7667123030    0.1997219115
 H   -2.7090995433    1.3701904540   -0.1898935165