19

 C   -0.0101783401    1.5345004692    0.0643986123
 C    0.0048998080    0.0335431086   -0.0220415954
 C   -0.0140750587   -0.6299738603   -1.1799397485
 C   -0.0319514035   -2.1355329125   -1.2814650269
 N   -0.2812291011   -2.8325386871   -0.0153232784
 C    0.4358916687   -2.1881942470    1.0869684722
 C    0.0422542191   -0.7077911443    1.2972526648
 C    0.2517584575   -2.9604226937    2.3230017002
 N    0.0893758364   -3.5376954323    3.3103735571
 H    0.8886018045    1.9123651145    0.5683897121
 H   -0.0666714963    1.9944249517   -0.9255892372
 H   -0.8668302287    1.8871343755    0.6534829132
 H   -0.0075519288   -0.0796966685   -2.1187296346
 H   -0.7990273829   -2.4590279799   -1.9945220430
 H    0.9238646119   -2.4924909320   -1.6957182127
 H   -1.2758556981   -2.8110636892    0.1905484080
 H    1.5043025725   -2.2260021623    0.8349999010
 H    0.7544174303   -0.2287636942    1.9812159295
 H   -0.9348837305   -0.6516842864    1.7970162264