16

 C   -0.0340208722    1.5697066787    0.0249810562
 C    0.0282343492    0.0329095411   -0.0394619800
 C    0.7037945579   -0.4686350480   -1.2253729053
 C    1.2695851156   -0.8569445896   -2.2195577753
 C    1.9362343162   -1.3465383236   -3.3900527776
 O    2.0968426930   -2.5259618051   -3.6405377076
 C    2.4625995906   -0.2583680253   -4.3580138524
 N    3.0749861830   -0.8067029768   -5.4301619012
 O    2.3187860009    0.9265075609   -4.1376429584
 H    0.9708979684    1.9987060129    0.0283054315
 H   -0.5694164125    1.9726409129   -0.8380998802
 H   -0.5511865389    1.8866995564    0.9348718713
 H    0.5396948555   -0.3632769656    0.8475674271
 H   -0.9848961700   -0.3890805739   -0.0100101303
 H    3.1298917126   -1.8101511295   -5.4981223834
 H    3.4657497306   -0.2145717554   -6.1425624643