14

 O   -0.0041982573    0.0615942310    0.0438255475
 C   -0.0250439288    1.2524441187    0.0845686140
 C   -1.0766606831    2.3087894603    0.0243723906
 C   -0.4689188587    3.5718183448    0.6604914547
 C    0.9062966040    3.2038038502    1.2220688150
 C    1.0831337950    2.3525849353   -0.0774222436
 C    2.3675510672    2.0590849829   -0.6381785607
 N    3.4042386292    1.8246768077   -1.0941523173
 C   -0.0831161481    3.2136602609   -0.7334562813
 H   -2.1384787499    2.1999946429   -0.1427063403
 H   -1.1295448427    4.3647315439    0.9844956722
 H    1.5783725586    4.0641922129    1.2278587544
 H    0.9689340382    2.6633948077    2.1712708116
 H   -0.1835238737    3.6652087808   -1.7074822068