21

 C    0.0234284121    1.3089634812    0.1799332214
 O   -0.0517289108   -0.0838689757   -0.0101386772
 C    0.6483698238   -0.5841614326   -1.1404479136
 C    2.1562429603   -0.6652912487   -0.8987918685
 C    0.0408636840   -1.9722969600   -1.4187872366
 O    0.2022884955   -2.8330956730   -0.3109134126
 C   -1.4288626965   -1.8787018002   -1.8119737977
 C   -2.3236590663   -3.0315675196   -1.6677795781
 O   -2.3632778527   -1.9427284759   -0.7350399614
 H    1.0421532134    1.6508279623    0.4132172786
 H   -0.3302161887    1.8583812665   -0.7066386494
 H   -0.6253539833    1.5524147347    1.0248382216
 H    0.4478600728    0.0630153108   -2.0126415830
 H    2.5722657979    0.3109797279   -0.6361039202
 H    2.3609240239   -1.3694540321   -0.0890854143
 H    2.6698479835   -1.0124370117   -1.8014111065
 H    0.5944223802   -2.4243801729   -2.2518578046
 H   -0.3815894819   -2.4744231339    0.3716831679
 H   -1.6646188680   -1.1300003258   -2.5702813793
 H   -3.1963761676   -3.1219934542   -2.3122373102
 H   -1.9217272616   -3.9596138771   -1.2690088163