20

 O   -0.1284655601    1.4983595394   -0.1007194180
 C    0.0387844011    0.0909052843   -0.0360848468
 C   -1.3517013828   -0.5284345665    0.0652591627
 C   -1.3720397223   -2.0614352934    0.0667098123
 C   -0.7964596160   -2.6603442259    1.3499862633
 O   -0.8815641021   -4.0929049288    1.3516600263
 C   -1.9915215872   -4.6192946181    0.7786504797
 N   -2.9144510295   -4.0452094843    0.1346987304
 C   -2.7979361742   -2.6092186753   -0.0990054681
 H    0.7415684006    1.9045432715   -0.1525789643
 H    0.5490883498   -0.2936076612   -0.9346820708
 H    0.6542543541   -0.1919295295    0.8327908450
 H   -1.8426684242   -0.1451575675    0.9690056745
 H   -1.9412640605   -0.1613138213   -0.7834247139
 H   -0.7676706396   -2.4317563231   -0.7730567767
 H    0.2635034747   -2.4336104241    1.4834526834
 H   -1.3414102272   -2.2769890198    2.2242014176
 H   -2.0096723779   -5.6958927910    0.9395492180
 H   -3.4839614249   -2.0858508174    0.5826198366
 H   -3.1638448118   -2.4013394081   -1.1111672311