18

 C   -0.0578003216    1.3008690299   -0.2485744956
 C    1.4311453822    1.4857217615    0.1084511455
 C    1.2890924660    0.1005942166    0.7706451020
 O   -0.0734134479   -0.0215258014    0.3298591410
 C    2.3171394329   -0.9792752591    0.4893215476
 C    2.9901939776   -0.6987782958    1.7880592029
 C    1.6219135411   -0.0864736818    2.2707584110
 C    1.1943747757   -1.5409934894    2.5082276962
 N    2.2995853360   -1.9983821116    1.5901423514
 H   -0.7528757866    1.9783425619    0.2615240658
 H   -0.2983206420    1.2810151841   -1.3171937355
 H    2.1067339866    1.5125249957   -0.7486909398
 H    1.6693438978    2.3117667494    0.7807486010
 H    2.7370853044   -1.2896042962   -0.4588452055
 H    4.0289323076   -0.5769150496    2.0605333806
 H    1.4489615140    0.7191653508    2.9822567893
 H    1.4139431565   -1.9065084963    3.5139966066
 H    0.1830279199   -1.8286366587    2.2039638358