25

 C   -1.0541165844    0.9640475518    0.2646339797
 O   -0.5539857984   -0.3471967012    0.1852738437
 C   -0.0529763474   -0.8165680240    1.4227673658
 C    0.4091255180   -2.2375531051    1.2409925990
 C    1.7745184200   -2.5311130964    0.6670169712
 C    1.4759260047   -2.8790227651    2.1035279819
 C    2.1785611944   -2.1834562624    3.2590830632
 C    1.3216005802   -2.2184194417    4.5334379130
 C    3.5562225493   -2.8173628974    3.5049214401
 H   -0.2749105344    1.6845560676    0.5632050098
 H   -1.4221890782    1.2364179975   -0.7277576064
 H   -1.8842197069    1.0454009518    0.9854329801
 H    0.7716884785   -0.1698020411    1.7645985825
 H   -0.8442854414   -0.7594975654    2.1912631753
 H   -0.3927000409   -2.8975008715    0.9210262943
 H    1.8761745995   -3.3248624454   -0.0646512975
 H    2.4222369361   -1.6777931025    0.4867431161
 H    1.3064758066   -3.9373050333    2.2981597982
 H    2.3426677964   -1.1326779760    2.9872408714
 H    0.3520833092   -1.7348867046    4.3787868414
 H    1.1305647090   -3.2524274145    4.8449286165
 H    1.8250770747   -1.7110666712    5.3632951715
 H    4.1807679402   -2.7686094866    2.6076362861
 H    4.0860803544   -2.3091649277    4.3174895992
 H    3.4556551710   -3.8732565357    3.7836549638