17

 C   -0.0441673959    1.5867750632   -0.0433576010
 C    1.5013859252    1.3615901633    0.0088024351
 C    1.1920153439    0.1782289155    0.9814999839
 C   -0.0499074252    0.0102947978    0.0227724230
 C    0.6657689432   -0.3039396384   -1.2722783589
 C    0.8261630907   -1.0085841352   -2.4332133869
 N    1.9347031165   -0.5318039399   -3.1147213949
 C    2.4326794556    0.4418650035   -2.3777610421
 N    1.6942504744    0.6151588483   -1.2498098830
 H   -0.4335307187    2.0534810770    0.8642442403
 H   -0.4496410770    2.0608120329   -0.9391763220
 H    2.2335493463    2.1426223118    0.1990794666
 H    1.9174789236   -0.6363686203    1.0232737562
 H    0.9156660867    0.5161575063    1.9827980147
 H   -0.9311231839   -0.5613180751    0.3000747792
 H    0.2330422559   -1.8176709756   -2.8294108747
 H    3.3034722685    1.0337250651   -2.6146510756