13

 C   -0.0316127150    1.5060983565   -0.0351817453
 O    1.1564530456    0.6955175124    0.0574516031
 C   -0.0982701567    0.0490789660    0.0076214960
 C   -0.5448044122   -0.9532243095    1.1017378810
 C   -0.8956404809   -1.9221918992   -0.0429469792
 O   -1.8491628407   -1.2576348150   -0.8787813402
 C   -0.4573460679   -0.9627555642   -1.0731893381
 H   -0.2670325335    2.0827593969    0.8577777499
 H   -0.1658119933    2.0305869176   -0.9798359125
 H    0.3132742505   -1.2751809167    1.6976664874
 H   -1.3749362754   -0.6690007060    1.7518311792
 H   -0.8934515980   -3.0052345526   -0.0474746961
 H   -0.0332222425   -1.1009904161   -2.0606243452