15

 C   -0.1238630488    1.4394806692   -0.1108316857
 C    1.2790078649    0.9197322146    0.0948087177
 C    0.1181989543   -0.0345888342    0.0569299763
 N   -0.3023622674   -0.6926185851    1.2629016039
 N   -0.2616810275   -0.1109697497    2.4539544954
 C   -0.7310724074   -1.0528143519    3.2787293268
 C   -1.0418521014   -2.1888403341    2.5254851927
 N   -0.7605683620   -1.9383703337    1.2423331747
 H   -0.5855427217    1.9499078291    0.7257845371
 H   -0.4196067719    1.7914884936   -1.0925179882
 H    1.9671919920    0.9072077344   -0.7426439302
 H    1.7289128029    1.0924188881    1.0650545920
 H   -0.0061438783   -0.7027728412   -0.7835494337
 H   -0.8179633436   -0.8686808189    4.3374453916
 H   -1.4400721741   -3.1433894301    2.8292417895