20

 C    0.0290803836    1.3217117641    0.4649842262
 C    0.0976937821   -0.1310601138   -0.0215763911
 C    0.9111615249   -1.0235963081    0.9355129237
 N    2.2925297959   -0.6036959289    1.0973783972
 C    2.7831589236   -0.0848643976    2.2572466764
 O    2.1408474333    0.1000584256    3.2683609585
 C   -1.3108352240   -0.7316020231   -0.2093401113
 C   -2.0675238932   -0.0761281329   -1.3427052798
 O   -3.1694435297    0.3997889512   -1.2611376824
 H    1.0291832747    1.7515567107    0.5617709255
 H   -0.5409398711    1.9470562226   -0.2290964569
 H   -0.4555985021    1.3799112667    1.4452431952
 H    0.6004676007   -0.1483923979   -1.0013547493
 H    0.4694905077   -1.0043828307    1.9355575238
 H    0.8887555187   -2.0608687401    0.5780413488
 H    2.9291578114   -0.7132391227    0.3238014835
 H    3.8620388882    0.1541468506    2.1734788932
 H   -1.2194999528   -1.7985919328   -0.4632268615
 H   -1.9066756077   -0.6516669911    0.7053188168
 H   -1.5102416740   -0.0650679218   -2.3107767967