20

 O   -0.1675471914    1.4849556572   -0.0269371728
 C   -0.0287643465    0.0754835481   -0.1269285083
 C   -1.4070640658   -0.5649004087    0.0576530661
 C   -1.3361898722   -2.0785055344   -0.1530636107
 C   -2.7073729823   -2.7516754950   -0.2776690291
 N   -3.6246716298   -2.7148320619    0.8459336511
 C   -3.8610377164   -1.7233967688    1.5860210876
 O   -3.3342837014   -0.4710679293    1.6654870980
 C   -1.9442915380   -0.2189964637    1.4459104780
 H    0.7064693384    1.8817305356   -0.0806401554
 H    0.3725880054   -0.2152717202   -1.1099446943
 H    0.6660540101   -0.3124844026    0.6370037969
 H   -2.0773030491   -0.1190382364   -0.6898598923
 H   -0.7763377100   -2.3020747715   -1.0707094973
 H   -0.7775619907   -2.5379419133    0.6740977921
 H   -3.2324698241   -2.3144929835   -1.1408970706
 H   -2.5517237320   -3.8072622508   -0.5271533624
 H   -4.6772585496   -1.7958633976    2.3072744491
 H   -1.3655325135   -0.7665226777    2.2049722796
 H   -1.8289371011    0.8496938345    1.6286621047