15

 C   -0.2720240565    1.4145386869   -0.1197307245
 C   -0.0614884700   -0.0739699374    0.0844417664
 C    1.2007196818   -0.7219369492   -0.5552819617
 O    1.6277949650   -1.2558458228    0.7175790251
 C    0.5540002503   -0.5955539049    1.4219430304
 C    1.0435377490    0.4226277072    2.3543746560
 N    1.4128947433    1.2378652292    3.0852271255
 C    0.9733250996   -1.7605995939   -1.5583712079
 N    0.7705207548   -2.5661385729   -2.3613955999
 H    0.6235681708    1.9877224377    0.1362284286
 H   -0.5277996603    1.6190900802   -1.1638598511
 H   -1.0933120998    1.7789105018    0.5042115784
 H   -0.9643755507   -0.6358042265   -0.1590019102
 H    1.9245165980    0.0042976611   -0.9446675782
 H   -0.0630865754   -1.3135857265    1.9716073729