18

 C   -0.0441131932    1.5472398807    0.0148998743
 C    0.0754900915    0.0247926604    0.0060684299
 C    0.9140140605   -0.5495052908   -1.1715315865
 C    1.5446511760   -1.7812625491   -0.5825394184
 C    1.4450848551   -1.8032570535    0.7554422400
 C    0.7273054121   -0.5804069416    1.2795751544
 C    1.9985915755   -2.8574109548    1.6059843806
 O    1.9379905505   -2.8616412882    2.8165374452
 H    0.9425196182    2.0175609003    0.0990455969
 H   -0.5130120261    1.9169776830   -0.9033073669
 H   -0.6498556990    1.8923922643    0.8591721688
 H   -0.9309144414   -0.4036655733   -0.0790824951
 H    0.3132297170   -0.7572409706   -2.0641192809
 H    1.6976193407    0.1557089723   -1.4900469852
 H    2.0493878110   -2.5382580905   -1.1752312979
 H    1.4481048707    0.1142814678    1.7330996535
 H    0.0017893226   -0.8215522310    2.0616271709
 H    2.4942420385   -3.6867401754    1.0519572264