20

 C    0.0510767805    1.5386260203   -0.1624380814
 C    0.0066643537    0.0274720565    0.1058422247
 C   -1.3956012610   -0.5202488077    0.1119657670
 C   -2.4319513835   -0.2439766359    1.2167730057
 C   -2.9443307316   -1.7126268498    1.1041931648
 C   -1.9220159943   -1.9777987334   -0.0057904753
 C   -2.0976703403   -0.9840524383   -1.1209183091
 O   -3.3404221800   -0.4395396390   -1.4721727323
 H    1.0795741690    1.9126587146   -0.1482747038
 H   -0.3842286271    1.7764343415   -1.1383676858
 H   -0.5154113479    2.0904296529    0.5951040616
 H    0.6006309987   -0.4988928398   -0.6521251737
 H    0.4852172257   -0.1867473475    1.0711251893
 H   -1.9600007243   -0.0425590789    2.1819172523
 H   -3.1576364846    0.5433986375    1.0009146105
 H   -2.7483644224   -2.2937645157    2.0075215995
 H   -3.9947441172   -1.8395046969    0.8255903444
 H   -1.3700025602   -2.9008655438   -0.1504617386
 H   -1.4290517783   -1.1495157132   -1.9680099050
 H   -3.8680873949   -1.1385364133   -1.8727012748