15

 O   -0.0833863712    0.0659006964    0.3204750477
 C   -0.1051940910    1.2589431237    0.2151891240
 C   -1.3503546663    2.1507343645    0.0757488636
 N   -0.8843633973    3.5139180451   -0.1837823336
 C    0.4527465953    3.5988597641    0.4217979298
 C    1.1232496567    2.2161976748    0.1945734621
 C    2.1824139139    1.8545108192    1.1116679483
 C    3.0504623580    1.5784393457    1.8955332209
 H   -2.0229437956    1.7783595149   -0.7004853413
 H   -1.8977873659    2.1046053278    1.0283242671
 H   -0.8026011693    3.6532448482   -1.1858096781
 H    1.0219650944    4.4247226114   -0.0073489738
 H    0.3543848249    3.7800989914    1.4982304208
 H    1.4980955450    2.1801949137   -0.8402472461
 H    3.8194130685    1.3231007591    2.5818108987