18

 C   -0.1630336430    1.4607976439    0.0337484898
 C    0.0135049044   -0.0520652374   -0.0550713495
 C    1.1838756045   -0.5218507467   -0.9644790751
 O    1.5701793793    0.4275155098   -1.9257157493
 C    2.0769027373   -0.7037598334    0.2936585664
 C    0.7807321382   -0.6728055880    1.1667499366
 O    0.7677113056    0.1438926944    2.3120822995
 C    0.3074090600   -2.0272108495    1.4923758862
 N   -0.0434450396   -3.0954493952    1.7629723768
 H    0.7750859255    1.9744780057    0.2524584242
 H   -0.5366669668    1.8382734661   -0.9212542722
 H   -0.8792683984    1.7137927120    0.8189034000
 H   -0.9470198497   -0.5278932943   -0.2635906543
 H    0.9549771959   -1.4888554181   -1.4306599025
 H    2.2512656481    0.0398782945   -2.4837981537
 H    2.7213492334   -1.5819309957    0.3632513097
 H    2.6507758713    0.2051797419    0.4887684672
 H    1.2857469241   -0.2835271800    3.0036348601