17

 C    0.2052331451    1.6021425024   -0.0721885344
 C    0.0941408171    0.0958649153   -0.0197347761
 C    1.2942031413   -0.7825835863   -0.1813844479
 C    0.6166133213   -0.6482263464    1.1969885088
 O    1.2343195079    0.1275678642    2.1718605989
 C   -0.1481874403   -1.8426302338    1.6357526750
 O   -0.8943512599   -2.4845292111    0.9230147966
 C    0.0875806079   -2.4032006532    3.0462279021
 O    1.0391607246   -2.1370189139    3.7389879302
 H    1.1257198460    1.9467467552    0.4029813672
 H    0.2005636435    1.9450372303   -1.1120090355
 H   -0.6358713071    2.0759743964    0.4434043190
 H   -0.8308828124   -0.3250357555   -0.4041450438
 H    1.1877709884   -1.7288083581   -0.6996080306
 H    2.2679455987   -0.3079745297   -0.2379266021
 H    1.6858904854   -0.4709325503    2.7828373802
 H   -0.6721605977   -3.1584635956    3.3316685124