17

 C   -0.0356702091    1.5706645562    0.0884152036
 C   -0.0038864573    0.0389136506    0.0314997098
 C    0.7554944177   -0.5406720739    1.2341457654
 O   -1.3320746404   -0.4858674410   -0.0000939743
 C    0.6521507475   -0.4680710476   -1.2760836726
 C    0.0481891132    0.0471360218   -2.4981154797
 C   -0.4291228713    0.4742306847   -3.5150755237
 H    0.9750875258    1.9914575710    0.0737595235
 H   -0.5921404323    1.9709223703   -0.7617254991
 H   -0.5188987142    1.9057896185    1.0138736104
 H    0.2773273208   -0.2300863448    2.1698190924
 H    0.7498868707   -1.6338532569    1.1973173170
 H    1.7942146838   -0.1953663742    1.2616544663
 H   -1.8097716224   -0.1225805693    0.7528825252
 H    1.7178146557   -0.2100070762   -1.2565413614
 H    0.5909531263   -1.5628340166   -1.2735089476
 H   -0.8600130243    0.8437583073   -4.4122368351