20

 C   -0.0760407671    1.4895765494    0.1029051220
 C   -0.0241127240   -0.0439731354    0.0858266932
 C    0.7318199705   -0.6175969656    1.2873236166
 N   -1.3845676316   -0.6155103333   -0.0310152538
 C   -2.2002262464   -0.7038332478    1.1755641204
 C   -1.8101378411   -0.9377251992   -1.2786787785
 O   -1.1418686470   -0.7797613189   -2.2953131652
 C   -3.1974455825   -1.5530240228   -1.5483766275
 O   -4.1632178638   -1.6151141542   -0.8336993549
 H    0.9381999023    1.8992637232    0.1381775519
 H   -0.5641852603    1.8651117888   -0.7999941977
 H   -0.6173011297    1.8691376840    0.9764525651
 H    0.4847125549   -0.3528633087   -0.8288896286
 H    0.3091773699   -0.2911916020    2.2426491544
 H    0.7387603498   -1.7115827679    1.2677322083
 H    1.7695419383   -0.2737092425    1.2541298415
 H   -3.2232469426   -0.9565192449    0.9159312282
 H   -1.8073786811   -1.4627072912    1.8607003961
 H   -2.1982319825    0.2587084926    1.6988564504
 H   -3.2071108860   -1.9119009037   -2.5973276520