20

 C   -0.0133824309    1.5838244679    0.0730106660
 C   -0.0308872882    0.0548712037    0.0165666398
 C    0.7346230251   -0.5032775093   -1.1991950867
 C    0.7221131073   -1.9979503545   -1.2718862889
 N    1.6912865089   -2.7409898227   -0.7303710069
 N    1.3022402583   -3.9837935824   -0.9804413739
 N    0.1631324710   -4.1261460327   -1.6455222304
 C   -0.2366784417   -2.8677604156   -1.8454300902
 C   -1.5008617499   -2.5486545724   -2.5753910551
 H    1.0114996414    1.9657074531    0.1379642077
 H   -0.4715237247    2.0197243442   -0.8220841567
 H   -0.5631527121    1.9559589604    0.9429590547
 H    0.4113557079   -0.3603313430    0.9295853652
 H   -1.0674976609   -0.3038566056   -0.0116087891
 H    0.2998460529   -0.0903146845   -2.1181749710
 H    1.7745274194   -0.1616918322   -1.1592212641
 H    1.8521583360   -4.7779533963   -0.6977188490
 H   -2.2293597562   -2.0521346055   -1.9249872361
 H   -1.3151173404   -1.8797442707   -3.4229058462
 H   -1.9535854433   -3.4665621320   -2.9554940191