16

 C    0.0623572556    1.4664884899   -0.0122722086
 N    0.0125158124    0.0138757491    0.0116147862
 C   -0.0443922733   -0.6715529400    1.2105486290
 N   -0.0556715946   -0.0659203406    2.3326097777
 C    0.0242156055   -0.6517771197   -1.2004268749
 C    0.0777167235   -0.1309693768   -2.4591479809
 O    0.0665489986   -1.1915770036   -3.3392434918
 C    0.0073039995   -2.2777538337   -2.5562596715
 N   -0.0205928914   -2.0374249045   -1.2851563508
 H    0.9794424352    1.8110324147   -0.5047498390
 H   -0.8004971479    1.8713403736   -0.5543647126
 H    0.0454707314    1.8167462313    1.0180784802
 H   -0.0764741385   -1.7508723260    1.0579402375
 H   -0.0998388790   -0.7429375867    3.0901274723
 H    0.1230225995    0.8530853396   -2.8855547816
 H   -0.0114624064   -3.2383646266   -3.0466734109