18

 C   -0.0249909417    1.3853344362    0.1081568611
 O    0.0260626596   -0.0275344900    0.0006917818
 C    0.6282379537   -0.5697691807   -1.0844643899
 C    1.2106382997    0.1592388553   -2.1199479923
 C    1.7938579235   -0.5436121923   -3.1729410462
 N    1.8323758503   -1.8711809639   -3.2568381657
 C    1.2654543487   -2.5458589885   -2.2484842898
 C    0.6506320509   -1.9750232196   -1.1403388469
 C    0.0351056851   -2.8030263231   -0.0466008545
 H    0.9804487152    1.8220345771    0.1450737761
 H   -0.5801521994    1.8318792766   -0.7257335870
 H   -0.5452938129    1.5982492118    1.0430104001
 H    1.2198192719    1.2411901102   -2.1242802816
 H    2.2537875933    0.0068700843   -3.9909564818
 H    1.3006906184   -3.6316609434   -2.3237973312
 H    0.5008536938   -2.5936615644    0.9224528930
 H   -1.0321072050   -2.5840257667    0.0670391970
 H    0.1473865049   -3.8691074289   -0.2598215923