18

 C   -0.0120900937    1.5266445570    0.0062751070
 C    0.0072758210    0.0275724447    0.0212337395
 C   -0.0062030488   -0.8032923037   -1.0758315059
 N   -0.0046865361   -2.1098158778   -0.6418169863
 C    0.0725659546   -3.2808797747   -1.4971634072
 C    1.4362189028   -3.6523616533   -1.8797487623
 C    2.5523978041   -3.9609366426   -2.1978829504
 C    0.0263451220   -2.1219858205    0.7312752291
 C    0.0288055128   -0.8205390551    1.1701320166
 H    0.8633860408    1.9484454635    0.5138663690
 H   -0.0158338838    1.9117204738   -1.0177962807
 H   -0.8980345942    1.9280957412    0.5125689945
 H   -0.0153936409   -0.5751602554   -2.1305855207
 H   -0.4065223003   -4.1163365755   -0.9748477944
 H   -0.5254162948   -3.0928054448   -2.3962570755
 H    3.5420502609   -4.2290913131   -2.4747239163
 H    0.0444616696   -3.0560854935    1.2706616632
 H    0.0300143640   -0.5022988402    2.2022029807