18

 O    0.3065370658    1.3610583581    0.0049468084
 C    0.0806501686   -0.0227813978   -0.1450960696
 C   -1.3900466752   -0.3996186182   -0.2279977739
 C   -2.1525204911    0.0695408573   -1.4497771881
 O   -2.0339489325    1.4808645402   -1.6542121053
 C   -2.8165450218    2.2728822785   -0.8744163074
 N   -2.6466469184    3.5197204968   -0.9089805399
 C   -1.8887376618   -1.5904562194    0.4759254085
 O   -2.1266494310   -0.2848608733    1.0003910437
 H   -0.1045739050    1.8176231598   -0.7387517326
 H    0.5957956493   -0.4328534557   -1.0311790239
 H    0.5145364263   -0.5008395314    0.7381713670
 H   -1.7408762376   -0.3844034263   -2.3558538416
 H   -3.2075702939   -0.2165659013   -1.3630871551
 H   -3.5442176511    1.7128718733   -0.2764485556
 H   -3.3119416860    3.9817851891   -0.2928129498
 H   -2.7665552234   -2.1166760588    0.1016292681
 H   -1.1915619013   -2.2045991108    1.0436985071