16

 C    0.0610516375    1.4756178005    0.0624972202
 C   -0.0273053189   -0.0200966917    0.0243155532
 C   -0.0514945949   -0.7166112492   -1.1279124804
 O   -0.1180867483   -2.0545147850   -1.2357102044
 N   -0.2530165467   -2.8345007830   -0.0930465569
 C   -0.1854487213   -2.2315357277    1.0529641905
 N   -0.2327116250   -3.0413426351    2.1741078266
 C   -0.0304407469   -0.7715140280    1.2632204742
 N    0.0952376642   -0.1888562162    2.4042755310
 H    0.9559360182    1.7916329915    0.6080112399
 H    0.0875305570    1.9006633176   -0.9443049494
 H   -0.7920971801    1.8987952075    0.6029235332
 H   -0.0089008916   -0.2651158703   -2.1132075512
 H   -0.4510717832   -4.0041070838    1.9516284753
 H   -0.8079034213   -2.6803579257    2.9235794402
 H    0.1489739611   -0.8663494214    3.1651145278