19

 C   -0.0095905316    1.4865047480   -0.0791007069
 C    0.0213133798   -0.0287637610   -0.0378887114
 C    1.3611150476   -0.7297771728   -0.1872139505
 C    0.6813193762   -0.7074511768    1.1506202055
 C   -1.1507968670   -0.7224916898   -0.6218307865
 N   -1.3239650327   -2.0279292345   -0.6887746216
 C   -2.5396951925   -2.2165752412   -1.3031063428
 C   -3.1149416361   -1.0156965119   -1.6144520167
 N   -2.2156310099   -0.0654696631   -1.1729376486
 H    0.8949383013    1.8999267497    0.3746921613
 H   -0.0587533569    1.8637557489   -1.1081067033
 H   -0.8651303210    1.8904549674    0.4764324954
 H    1.3564907595   -1.6648508269   -0.7341647439
 H    2.2356360315   -0.1048127379   -0.3362843186
 H    1.0850552112   -0.0672021898    1.9282178296
 H    0.2239987896   -1.6275413896    1.4938685036
 H   -2.9295586418   -3.2066782629   -1.4848893207
 H   -4.0427776048   -0.7458027986   -2.0899859788
 H   -2.3252803125    0.9311255228   -1.2465467549