17

 O   -0.0964490044    0.0042628142    0.0621186757
 C   -0.0287546152    1.1958943419    0.1084207406
 O    1.0743528586    1.8815706972   -0.2385278327
 C    1.0466267155    3.3096144084   -0.1637581066
 C    2.1913213066    4.0051474689    0.5402744925
 C    3.3139461222    4.1956529588   -0.4857341533
 C    2.8606795421    3.5407937616   -1.7902176600
 C    1.4474274990    4.0814478517   -1.4418982877
 C    2.1334285111    5.1323945880   -0.4772284481
 H   -0.8568676292    1.8537591813    0.4403820512
 H    0.0768363222    3.6428094813    0.2223970223
 H    2.3710398653    4.0783831246    1.6043392377
 H    4.3224839403    4.3995901290   -0.1508452151
 H    3.2758773119    4.0612045299   -2.6569168428
 H    2.9685887263    2.4589056929   -1.9078595542
 H    0.7099700215    4.2860962297   -2.2142996052
 H    2.0300817561    6.1981505404   -0.3455558143