16

 O   -0.1119460342    1.4521277593    0.0321209495
 C    0.0333770476    0.0415355044   -0.0239584769
 C   -1.3603335400   -0.6147108014   -0.0719485090
 C   -1.2442205015   -1.8166128695   -1.0255162689
 O   -2.4196299035   -1.9204528680   -1.8025987429
 C    0.0061712654   -1.4696776305   -1.8358497116
 C    0.6913909361   -0.4593185074   -1.2915831979
 C    0.3354231529   -2.2025880643   -3.0072547005
 N    0.5450542950   -2.8421393177   -3.9505311598
 H    0.7345377598    1.8398291307    0.2756334981
 H    0.6041583200   -0.3132576346    0.8497899263
 H   -1.7443722641   -0.8838851203    0.9128389572
 H   -2.0475061533    0.1028748374   -0.5289327331
 H   -1.0694747435   -2.7520914883   -0.4714067387
 H   -2.3724282637   -2.7268815225   -2.3278402426
 H    1.6169814269   -0.0468955475   -1.6775361692