17

 C   -0.0413667530    1.4922650336   -0.0263401403
 C   -0.0809302812   -0.0025927925    0.0256909703
 O    0.3636150037   -0.7253315436   -1.1785446490
 C   -0.3110331994   -1.8836131788   -0.5854251970
 C    0.5983969374   -2.2066546046    0.6106317554
 C    0.7594569416   -0.7481575598    1.0835164042
 O    1.3762806965   -0.2922894143    2.0049512193
 C   -1.3594477586   -0.9037294545   -0.0268482564
 O   -2.0206840115   -1.2967028276    1.1414147692
 H    0.9828162245    1.8401951886   -0.1897873813
 H   -0.6764404295    1.8806235529   -0.8270757663
 H   -0.3788834488    1.9029743109    0.9303774723
 H   -0.5550209317   -2.6692128397   -1.2983269743
 H    0.1414594568   -2.8271836788    1.3847056999
 H    1.5498915217   -2.6439382250    0.2995356537
 H   -2.0325661736   -0.5508311204   -0.8166674391
 H   -2.6334730447   -0.6037402565    1.4058273093