17

 O   -0.0425118457    1.3189590508   -0.0646025841
 C   -0.0209412533   -0.0778118296    0.0091977740
 C   -0.4922758796   -0.6767038182    1.3088929827
 C   -1.3873397667   -0.6752939486    0.0427690196
 C   -1.3138461675   -2.2050738687   -0.0075453653
 O   -0.5126191380   -2.7910929886   -1.0247934070
 C    0.5007935531   -3.5037044352   -0.3399024428
 O    0.8103157593   -2.7850800713    0.8395374154
 C   -0.4195650038   -2.2047789170    1.2587613910
 H    0.7481570340    1.6476093768    0.3757529218
 H    0.7709826283   -0.5626432295   -0.5578234365
 H   -0.5837582279   -0.0723836640    2.2021820661
 H   -2.2598085770   -0.0725335396   -0.1715337702
 H   -2.2819792876   -2.7071955745    0.0809384820
 H    0.1532141629   -4.5220969151   -0.0903474106
 H    1.3916731322   -3.5537903883   -0.9723430384
 H   -0.8222242626   -2.7126906194    2.1404989025