23

 C    0.0526688651    1.6059881927   -0.0762016860
 C    0.0845212677    0.0746247519   -0.0444258546
 C    0.6785876181   -0.5116147293    1.2511471807
 C   -0.1369519808   -0.2685244341    2.5086099249
 C   -0.3513086775   -1.3904944244    3.1998111182
 C    0.2141860879   -2.5811716128    2.5043633236
 C   -0.4067582147   -2.8774105508    1.1491231078
 C    0.8501253284   -2.0436772763    1.2315629525
 C    2.1389650795   -2.5995051555    0.6740079306
 H    1.0560998719    2.0262196748    0.0562732616
 H   -0.3363465495    1.9712494396   -1.0318970849
 H   -0.5839537021    2.0148833914    0.7151403123
 H   -0.9282852348   -0.3185652833   -0.1897332025
 H    0.6797777070   -0.2891496173   -0.8918482045
 H    1.6747935145   -0.0552494450    1.3774088656
 H   -0.4986181791    0.7143823132    2.7888289947
 H   -0.8971735565   -1.4584868613    4.1346077595
 H    0.6534036346   -3.3963245195    3.0704331003
 H   -0.2932862458   -3.8834390774    0.7559416312
 H   -1.3580086919   -2.4084231005    0.9208601935
 H    2.2490585160   -2.3616001482   -0.3914272954
 H    3.0094027340   -2.1855776599    1.1965670481
 H    2.1789601481   -3.6892089178    0.7709526330