16

 N    0.0851359020    1.3057102588    0.1196972028
 C   -0.0600111726   -0.0617156134    0.0314122748
 N   -1.1493547366   -0.7551640641   -0.0786785407
 C   -0.6757223898   -2.0725101900   -0.0906971214
 C    0.6551356391   -2.0699603700    0.0268977103
 N    1.2974985179   -3.2855959896    0.2552553290
 C    0.1855970117   -4.2617285093   -0.0574885551
 C   -1.1795930742   -3.4786552912    0.0178258649
 O    1.1136179344   -0.7864339141    0.1209680062
 H    0.9489172419    1.6529814896   -0.2735254837
 H   -0.7256327141    1.7937644661   -0.2339939931
 H    2.1072103093   -3.4513697855   -0.3349004521
 H    0.3210899349   -4.6616525913   -1.0687220922
 H    0.2258870010   -5.0946850114    0.6472135610
 H   -1.6864017989   -3.6616276442    0.9743166223
 H   -1.8633678960   -3.8008780805   -0.7745902829