14

 O   -0.0064717656    1.3726556025   -0.0013608176
 C    0.0096098108   -0.0107583555    0.0521263212
 C   -0.3413877708   -0.8033274726    1.2789114520
 C   -1.4951344815   -0.1138566759    1.9956819897
 O   -2.2643509344    0.0015587428    0.7598156761
 C   -1.2971665089   -0.7776421361    0.0606838836
 C   -1.6899330383   -1.8168219210   -0.8989376886
 O   -2.8211579292   -2.0569729075   -1.2385061797
 H   -0.9333892666    1.6408085532    0.0748846429
 H    0.8021445610   -0.4421093013   -0.5533741018
 H    0.2541857605   -1.6227873415    1.6590523188
 H   -2.0224743229   -0.7555031481    2.7065632607
 H   -1.2851024772    0.8626764348    2.4432894068
 H   -0.8147367470   -2.3739508238   -1.3066117739