19

 O   -0.2107392181    1.3729961536    0.0694060042
 C   -0.0091406486   -0.0133570041    0.0286652675
 C    0.7303953619   -0.4362468304   -1.2540843711
 C   -0.0443871911   -0.0422240268   -2.5154080627
 C    0.7087183657   -0.3979297487   -3.8079882598
 C   -0.0266144394    0.0886184119   -5.0364968570
 O   -0.3623282549   -0.6045943844   -5.9613286003
 C    0.7542972897   -0.4699292224    1.2549425154
 O    1.1179991484    0.3080931461    2.1033576760
 H    0.1985756809    1.6725907637    0.8968444229
 H   -0.9811561365   -0.5423909487    0.0527507765
 H    1.7173049726    0.0435701881   -1.2596477093
 H    0.8956888443   -1.5215439097   -1.2357894651
 H   -1.0219371589   -0.5413960960   -2.5133844560
 H   -0.2419250160    1.0346332580   -2.4811574076
 H    1.6921341445    0.0951945367   -3.7967332689
 H    0.8713148854   -1.4758555277   -3.9030608660
 H   -0.2540496992    1.1811022964   -5.0275407851
 H    0.9645426195   -1.5565629156    1.3291573465