16

 O   -0.0234799307    0.0812832093    0.7593997701
 C    0.0275643304    1.1202164467    0.1259502476
 N    1.1557929825    1.5976033863   -0.4762362185
 C    2.4362271674    0.9192305166   -0.3925064128
 C    3.4828605960    1.8039102078    0.2399104988
 C    4.8671285823    1.8264751004   -0.2432982940
 O    3.9591219182    2.8765251878   -0.5824723257
 C   -1.1344584151    1.9799568894   -0.0636122323
 C   -2.1105821263    2.6678936197   -0.2017901869
 H    1.1102363802    2.4801362715   -0.9612905362
 H    2.2747443912    0.0181821207    0.2044678981
 H    2.7712839087    0.6186801788   -1.3927706081
 H    3.2867496504    2.0912856717    1.2734001612
 H    5.6703161796    2.1025370248    0.4374773943
 H    5.1595397583    1.1772416297   -1.0675903974
 H   -2.9809424132    3.2669865190   -0.3164528681