21

 C   -0.0514085765    1.4810932852    0.0344044732
 C    1.3159825814    0.8231555009    0.0352340380
 C    2.1553855810    0.7886969782    1.2982448924
 C    2.8695141729   -0.5631185803    1.4651565705
 C    1.9718759118   -1.7812764268    1.6657334443
 C    1.0403993235   -1.9502431415    2.8512272201
 C    0.4698558902   -1.8155629151    1.4719725294
 O   -0.2646798605   -0.6467688346    1.2311880555
 C    0.0633147436   -0.0121042393    0.0282214408
 H   -0.3856932018    1.9363708277    0.9605110947
 H   -0.3976034938    1.9745878886   -0.8668218113
 H    1.8799435674    0.8646373375   -0.8934925747
 H    2.9042766121    1.5890462575    1.2721167681
 H    1.5205987432    0.9885482915    2.1668174480
 H    3.4777283129   -0.7374591396    0.5677012430
 H    3.5796407001   -0.5026838622    2.3004706818
 H    2.4563303959   -2.7064405036    1.3606950143
 H    0.9988224627   -2.9068454686    3.3604558032
 H    0.8902863058   -1.0884653154    3.4935175100
 H    0.0506258070   -2.6979667042    0.9874730257
 H   -0.2144506990   -0.5630214259   -0.8701438772