12

 C    0.0554829738    1.7388789378    0.2017957044
 C   -0.0107817782    0.2369185930   -0.0638370043
 O    0.5848555950   -0.0134107877   -1.3430273466
 C    0.0995849035   -1.0523573148   -2.0703317606
 O    0.5429072424   -1.3392518023   -3.1363611879
 C    0.6943535409   -0.5351489413    0.9755675866
 N    1.2335710800   -1.1388685607    1.7992992360
 H    1.0933693640    2.0773954619    0.1924459442
 H   -0.4984794903    2.2659209782   -0.5779404943
 H   -0.3844928548    1.9686041959    1.1750220508
 H   -1.0570008759   -0.0964728168   -0.0733567302
 H   -0.7395860303   -1.5737891433   -1.5714986681