20

 C   -0.1183761291    1.5463135583   -0.1182377683
 C    0.0116269168    0.0198945385    0.0166771018
 N    0.6990119047   -0.5662097770   -1.1377689117
 C    2.0675196082   -0.5449890378   -1.2908077868
 O    2.6076949569   -0.7408250176   -2.3666149875
 C    2.8304286491   -0.3154378109   -0.0374037665
 C    2.2283763508   -0.2802920708    1.1526508547
 C    0.7353320951   -0.4534199415    1.2985277125
 C    0.1964763412    0.1952050246    2.5801177035
 H    0.8604702254    2.0329382704   -0.0760742422
 H   -0.5761541389    1.7943072374   -1.0807824591
 H   -0.7509192794    1.9671944077    0.6685986740
 H   -0.9980943574   -0.4068937525    0.0337939447
 H    0.2020039297   -0.5840384758   -2.0176926853
 H    3.9033751618   -0.2255344603   -0.1604250098
 H    2.8111380780   -0.1577276057    2.0633706346
 H    0.5486150209   -1.5360594871    1.3730395947
 H    0.4167461132    1.2658911492    2.6185162228
 H   -0.8877199742    0.0680999605    2.6622357276
 H    0.6538684571   -0.2687528697    3.4595537864