13

 C   -0.2164881802    1.5061298140   -0.0510934146
 N    0.0303210763    0.0650929660    0.0282690848
 C    1.3566841457   -0.4491421963   -0.2990110096
 C    2.4367037767    0.4347991457   -0.6677915885
 N    3.2902986536    1.1348768682   -1.0108576432
 C    0.8394366918   -0.4593921696    1.1241857906
 C    1.4265925701    0.4147712747    2.1115458994
 N    1.8575266581    1.1064628032    2.9314764245
 H    0.6328374732    2.1254177154    0.2623571443
 H   -0.4692703229    1.7475175419   -1.0860489861
 H   -1.0762787365    1.7354451777    0.5825275059
 H    1.3599900306   -1.3933369141   -0.8374954128
 H    0.5006059036   -1.4103669967    1.5270759453