18

 C    0.0402530678    1.5643871887   -0.0946980350
 C   -0.0066946460    0.0514546281    0.0161841288
 O    0.6477379623   -0.4858402060   -1.1327303854
 C    0.7352923637   -1.8265607592   -1.2636404907
 C    0.2323580452   -2.7619893261   -0.3560331788
 C    0.4082757405   -4.1148074925   -0.6432106970
 N    1.0239216838   -4.5901219972   -1.7250089986
 C    1.4985643427   -3.6753281488   -2.5821186592
 C    1.3855080933   -2.3062636851   -2.4065655302
 H    1.0746742180    1.9164845675   -0.1297170308
 H   -0.4698834178    1.9006316500   -1.0012947951
 H   -0.4524903937    2.0177389792    0.7702758789
 H    0.5023331208   -0.2924527878    0.9267885635
 H   -1.0438058864   -0.3085200632    0.0535773161
 H   -0.2817263016   -2.4683518919    0.5491984238
 H    0.0224185685   -4.8563616820    0.0535455527
 H    2.0011045999   -4.0635507125   -3.4651621944
 H    1.7862256790   -1.6050739512   -3.1288978886