25

 C    0.0320532827    1.5030552987    0.1954448151
 C    0.0900709314   -0.0139291469   -0.0081502760
 C    0.7919827626   -0.4726531016   -1.3041287256
 C    2.2703558196   -0.0643272517   -1.3383441632
 C    0.5911386346   -1.9802011876   -1.4720868913
 C    1.2336614783   -2.7642392841   -2.6370502660
 C    1.7670214682   -3.6944900311   -1.5254350959
 C    3.2504779131   -3.9891901522   -1.4518779101
 O    1.3258527486   -2.7692249609   -0.5006468250
 H    1.0265837452    1.9415076098    0.3210235513
 H   -0.4450091217    1.9999549342   -0.6574280720
 H   -0.5480988727    1.7519876673    1.0897229249
 H    0.5907268276   -0.4867508502    0.8458086253
 H   -0.9347872933   -0.4071604022   -0.0136935943
 H    0.2747607891   -0.0011250908   -2.1547573006
 H    2.7478400309   -0.3402515836   -2.2834134043
 H    2.3842987054    1.0169232665   -1.2271071570
 H    2.8182214566   -0.5534665390   -0.5276950188
 H   -0.4852099283   -2.1986998748   -1.3896284334
 H    0.5493717240   -3.2021494330   -3.3654786553
 H    2.0239194449   -2.2247619064   -3.1633543021
 H    1.1943098536   -4.6314404380   -1.4550440396
 H    3.8370144906   -3.0712933006   -1.5546375938
 H    3.5010162601   -4.4518111416   -0.4917750712
 H    3.5412731288   -4.6815403503   -2.2498310209