21

 O    0.1494662584    1.1074350135    0.6734270596
 C    0.0913748225   -0.2164081287    0.1832364256
 C   -1.2969091287   -0.5249474902   -0.3508327850
 C   -1.7059578707   -2.0036026314   -0.4798644275
 C   -2.7103867148   -1.6848528741    0.6507184655
 C   -4.2134735520   -1.9913277821    0.4726949495
 C   -4.0417044204   -3.1728399067    1.4679795001
 C   -2.7217110589   -2.5125298018    1.9543988935
 O   -2.2821518414   -0.3083633199    0.6950599723
 H   -0.6039542249    1.1955565212    1.2709733661
 H    0.8369939703   -0.3023404148   -0.6156960410
 H    0.3491497324   -0.9496611599    0.9662114352
 H   -1.5155758736    0.1093216027   -1.2182134847
 H   -2.1556863492   -2.2842153340   -1.4336136269
 H   -0.9245470442   -2.7230621830   -0.2220146424
 H   -4.8111647089   -1.1826509505    0.9033619532
 H   -4.5742557750   -2.2021470236   -0.5374766851
 H   -4.8289533049   -3.3212554487    2.2087703559
 H   -3.8631102351   -4.1212737398    0.9548615132
 H   -1.8584032932   -3.1507319497    2.1611572442
 H   -2.8910525878   -1.8536979685    2.8112881089