14

 O   -0.0558242297   -0.0813256083   -0.2706875300
 C   -0.0020550365    1.0733737224    0.0608961609
 C    1.2679297618    1.8927266630    0.0289571709
 C    1.1026318563    3.2068525330   -0.7964378126
 N    0.8369767906    3.9346921790    0.4626262586
 C    1.4575675354    2.8548734011    1.2517899130
 C    0.7953940449    2.5381274864    2.5201969266
 N    0.2873244969    2.2832949581    3.5262612896
 H   -0.9049483122    1.6318273455    0.3904991370
 H    2.1132915259    1.2509708011   -0.2131014727
 H    2.0360518998    3.4793485913   -1.3058109879
 H    0.2800357591    3.2419104646   -1.5175578352
 H    1.2547065949    4.8528354545    0.5638866362
 H    2.5295870230    2.9894712585    1.4543533256