18

 O   -0.0892837608   -0.0063940004   -0.0168241236
 C    0.0370517273    1.1926944283   -0.0212278559
 C    1.3651386188    1.9079970482   -0.1388651973
 C    1.3989498680    2.9032899211   -1.3040392494
 O    0.3287657110    3.8354702985   -1.1263547526
 C    0.7040150896    5.1239329843   -1.6060078445
 C    2.2163661885    5.1514040681   -1.5598709322
 N    2.7448699614    4.7056151889   -0.2543489793
 C    2.6564584206    3.7514786791   -1.3773005876
 H   -0.8410280900    1.8663982983    0.0651370068
 H    1.5361802503    2.4850952234    0.7785436609
 H    2.1554830881    1.1596304735   -0.2488290857
 H    1.2831853100    2.3664842352   -2.2603209348
 H    0.3602932586    5.2823273180   -2.6403212739
 H    0.2287926364    5.8674311998   -0.9582780504
 H    2.7699244125    5.8660276726   -2.1589891206
 H    3.7075194952    5.0190412449   -0.1565065039
 H    3.5557668445    3.3495803982   -1.8308533661