20

 O   -0.0072205701    1.3707334309    0.2431497595
 C    0.0601452883   -0.0239507849    0.0651732914
 C    1.1034846380   -0.6040783585   -0.8538971763
 C    1.2158339753   -0.7914725430    0.6527359396
 C   -1.3236321337   -0.6139297463    0.0942104859
 C   -2.2559354617   -0.2829368171    1.2971948933
 C   -3.4404603122   -0.1743487739    0.2997578913
 C   -2.4108362424   -0.0238920365   -0.8522025486
 H    0.8834657430    1.7319369446    0.2204119021
 H    0.8465079497   -1.4608216215   -1.4681208319
 H    1.7981503924    0.0841612193   -1.3265179147
 H    1.9846998494   -0.2267961226    1.1719882173
 H    1.0363759759   -1.7769013236    1.0700606451
 H   -1.2440561940   -1.6971331089   -0.0422955063
 H   -2.3270996728   -1.0194204761    2.1016214690
 H   -1.9968196813    0.6880351519    1.7254001053
 H   -3.9981825825   -1.1129275535    0.2267501953
 H   -4.1535371579    0.6397818193    0.4488108975
 H   -2.1985029660    1.0251124657   -1.0707603333
 H   -2.6073001872   -0.5505051456   -1.7895419015