18

 C   -0.2365587226    1.5505684997    0.0404062500
 C    0.1158333653    0.0805010913   -0.0086855673
 O    1.3715579183   -0.1575784719   -0.7424486772
 C    1.9672924842   -0.7876455775    0.3304005584
 O    3.0546126634   -1.2606239913    0.3895845929
 C    0.7596588373   -0.5845098108    1.2158141487
 C    0.6734722429   -0.2331390042    2.6587839559
 N    0.2457179061   -1.5374605579    2.1761538790
 C   -1.1871570520   -1.8063595574    2.1500987005
 H    0.5668404025    2.1284374696    0.5056899180
 H   -0.4034372991    1.9367518474   -0.9694514642
 H   -1.1549713450    1.7022454850    0.6170533105
 H   -0.6802870547   -0.5139374967   -0.4679378802
 H    1.5732261560   -0.2203704987    3.2671356507
 H   -0.0917125079    0.4923196211    2.9356158703
 H   -1.8034977000   -0.9175851143    1.9372840596
 H   -1.3984956193   -2.5662600354    1.3920307726
 H   -1.4846170654   -2.2039312080    3.1244427717