13

 O    2.4715419564    0.0923542746    0.0010097176
 C    2.2600315960    1.2281685751    0.2773908213
 O    1.2830118368    1.9531437199   -0.3501008605
 C    1.1653230695    3.2930070073   -0.0543921489
 C   -0.0830053232    3.8057228906    0.2858615094
 N   -0.2591423041    5.1004976154    0.5377694734
 C    0.8274607165    5.8727803516    0.4533556853
 N    2.0607899564    5.4867143448    0.1282225897
 C    2.2253147779    4.1900310333   -0.1368819301
 H    2.7873490184    1.8164277107    1.0486120257
 H   -0.9465932092    3.1479091479    0.3459363401
 H    0.6896086163    6.9288884898    0.6675189409
 H    3.2188210023    3.8597764390   -0.4329036140