16

 O   -0.2008832596   -0.0141733869   -0.2280992885
 C   -0.0237600765    1.1653608497   -0.0752028296
 C    1.3294603800    1.8464052993   -0.1218530455
 C    1.3841636847    2.8966554399   -1.2301821713
 C    0.5575344047    4.1975184422   -1.0938452431
 O    1.7255137328    5.0138951044   -1.3464546028
 C    2.5997447499    3.8746548602   -1.2988419779
 C    3.4798118500    3.8914148225   -0.1238297272
 N    4.1649613185    3.8883440311    0.8069236723
 H   -0.8821125850    1.8520128695    0.1130218817
 H    1.5047264630    2.3287408631    0.8493423881
 H    2.0970853086    1.0811333727   -0.2669409894
 H    1.2374592047    2.4236999316   -2.2037587323
 H   -0.2246423903    4.3684860283   -1.8390575999
 H    0.1515015313    4.3795843186   -0.0907207853
 H    3.2182592232    3.7960215938   -2.1996283794