18

 C    0.0604260319    1.4844699669   -0.2168713709
 C   -0.0585673171   -0.0009195069    0.1510787490
 C   -1.4753675543   -0.4976960703    0.1285948697
 C   -2.6489143019   -0.0935192827    1.0302671500
 C   -3.3899208214   -1.2921470431    0.3884562774
 O   -3.5790064814   -0.8769199557   -0.9958561024
 C   -2.1687896191   -1.0387438433   -1.1401804464
 C   -1.9957796903   -1.9356368239    0.0381281213
 H    1.1033914847    1.8141581329   -0.1900668598
 H   -0.3302141018    1.6730106512   -1.2219275036
 H   -0.5058378593    2.1100575631    0.4808187502
 H    0.5434360465   -0.6017242294   -0.5437607584
 H    0.3746303500   -0.1688598410    1.1463593463
 H   -2.4166598350   -0.2755989254    2.0836123461
 H   -3.1158282279    0.8886022645    0.9017063554
 H   -4.2677016597   -1.7624726206    0.8262241503
 H   -1.7342358070   -1.0377720167   -2.1316812439
 H   -1.5381586168   -2.9037713394    0.1897666498