18

 C   -0.0247165873    1.4693424795   -0.0091604584
 C   -0.0502639197   -0.0222284919   -0.0043935332
 N   -1.1033623779   -0.7504904575   -0.0784024230
 C   -0.6435663925   -2.1142564131   -0.0386884875
 C   -1.4675683755   -3.1816034674    0.6549695681
 C   -1.3585589947   -3.1883741690   -0.8350114680
 C    0.8498301492   -2.1126270238    0.0707890172
 N    1.6079795249   -3.1336061890    0.1307960934
 N    1.1406358007   -0.7488872474    0.0860853611
 H    0.5603463032    1.8504739266   -0.8539641010
 H   -1.0452978007    1.8441391635   -0.0860513104
 H    0.4305666761    1.8583669400    0.9087507048
 H   -0.9012162932   -3.9192641461    1.2123877627
 H   -2.3951217178   -2.8458603455    1.1030949754
 H   -2.2108327191   -2.8574486857   -1.4164048959
 H   -0.7176384891   -3.9307185043   -1.2973693845
 H    2.5935628784   -2.8806848341    0.2019595622
 H    2.0643110951   -0.3558772747    0.1522770969