20

 C   -0.2328901875    1.5879201149   -0.1777601057
 C   -0.0259445328    0.0859722310   -0.0668498263
 C    1.2199008560   -0.6352957666   -0.6818885866
 C    2.0972751938   -0.0710654836    0.4755334952
 C    0.7651831710   -0.5705882711    1.1144024937
 C    0.8934107772   -1.8403160113    0.2514777753
 O    0.3960656266   -0.6159847608    2.4613800588
 C    0.6741715277    0.4598822790    3.2281488963
 N    0.2529861494    0.5082539191    4.4168349392
 H    0.6760396563    2.1712778300   -0.0080934308
 H   -0.6052553613    1.8464011351   -1.1749327579
 H   -0.9843480921    1.9237446581    0.5453418179
 H   -0.9654598701   -0.4362745256   -0.2788428022
 H    1.4910326350   -0.6816539478   -1.7335229611
 H    2.9915295242   -0.6459596456    0.7277405666
 H    2.3051518249    0.9989473140    0.4714562739
 H   -0.0303064374   -2.3863805164    0.0469386383
 H    1.7223720236   -2.5088935127    0.4935578470
 H    1.2824818168    1.2165117285    2.7183847858
 H    0.5674636987    1.3701360320    4.8581827424