16

 C   -0.0141056225    1.4035086810    0.0018496037
 N   -0.0153594192   -0.0425171093    0.0229511071
 N   -0.0321529786   -0.7400529620   -1.1121807769
 C   -0.0333311951   -2.0252985250   -0.7479985338
 C   -0.0118548048   -2.1675563762    0.6531071174
 N   -0.0732771840   -3.3361436680    1.4089290166
 C    0.0029670864   -0.8567470848    1.1346918797
 C    0.0348300658   -0.3834969524    2.4561590091
 C    0.0722303553   -0.0013838671    3.6003661222
 H    0.8795867793    1.7994537542    0.4939013306
 H   -0.0231866514    1.7084635411   -1.0437807525
 H   -0.8982749420    1.8010346916    0.5096165414
 H   -0.0507665435   -2.8004060110   -1.4997844856
 H    0.4016771076   -4.1202280598    0.9832170014
 H    0.2413877939   -3.2081742018    2.3619218178
 H    0.0920813126    0.3387652196    4.6058658518