16

 O   -0.0478277664    1.3131552794    0.0743417938
 C    0.0606576251   -0.0590586881    0.0559469160
 C   -0.1339076034   -0.9235492044   -1.1983519650
 C   -1.0664253889   -1.0510692562    0.0009213466
 C   -0.0505817767   -2.0964945581    0.5509768081
 C    0.7274400355   -2.1498758097   -0.8219068071
 C    2.0038525132   -1.6131546974   -0.1235830250
 C    1.0093974647   -0.9710570140    0.8761596942
 H    0.6472111116    1.6842378071   -0.4812303505
 H   -0.3404267869   -0.4845679976   -2.1661562780
 H   -2.1380414237   -0.9320253851    0.0830168630
 H   -0.2547578983   -2.9499366480    1.1919986556
 H    0.7396020192   -3.0151113075   -1.4842840711
 H    2.5804271986   -2.4209690323    0.3384025408
 H    2.6762892386   -0.9584235714   -0.6893453597
 H    1.2802725377   -0.6661903067    1.8861592184