13

 O   -0.1126431479   -0.0359553456    0.0014477695
 C   -0.0343606926    1.1761490873    0.0106022697
 C    1.2069206781    1.9187927320    0.0022603171
 C    1.3146818978    3.2673460156    0.0117138461
 N    2.6332542640    3.6692800504   -0.0004218636
 C    3.5078959566    2.5702877248   -0.0186485822
 O    4.7084720046    2.6457722281   -0.0328058475
 C    2.5972074203    1.3360850849   -0.0185827428
 H   -0.9484425809    1.8132298020    0.0259604936
 H    0.5208435938    4.0025801476    0.0265803872
 H    2.9623407280    4.6214581590    0.0030085297
 H    2.8173465584    0.7078703718    0.8506677384
 H    2.7971532799    0.7224338620   -0.9029908952