18

 C   -0.0195514512    1.5203425668    0.0125181237
 C   -0.0169565158    0.0293214757   -0.0518841073
 C   -0.0606005206   -0.7933708847   -1.1375897267
 C   -0.0363228999   -2.1541037128   -0.6838334416
 C    0.0219894459   -2.1509280150    0.6763043556
 C    0.0670211441   -3.3021540222    1.6279375787
 N    0.0348081345   -0.8024642623    1.0854281477
 C    0.0900069214   -0.3897212860    2.4078377337
 O    0.1025584898    0.7565601287    2.7824106415
 H    0.8764526440    1.9143680441    0.5009387846
 H   -0.0640066593    1.9124389772   -1.0070766421
 H   -0.8740330871    1.9081170317    0.5748003672
 H   -0.1057487183   -0.4588657453   -2.1632321500
 H   -0.0597105430   -3.0395394408   -1.3015351383
 H    0.9782309005   -3.3160648715    2.2381101728
 H   -0.7878077340   -3.3218816295    2.3147203890
 H    0.0450738993   -4.2302699881    1.0519555060
 H    0.1237607700   -1.2453796860    3.1025714155