18

 C   -0.4408383305    1.4342316766    0.3764934151
 C    0.1355719362    0.0531900456    0.2908277682
 N    1.3451809012   -0.2197503180    0.4913714966
 O   -0.9115457610   -0.8327766980   -0.0454423375
 C   -0.7411660729   -2.1765261209   -0.2066636998
 O    0.3058057386   -2.7659896308   -0.0843920688
 C   -2.0328057676   -2.8131845960   -0.5552786051
 C   -1.9816727936   -4.0148928527   -1.4870570263
 C   -2.2684676239   -4.2253449628   -0.0404040053
 H    0.3499031552    2.1366166363    0.6367682183
 H   -0.8906003616    1.7195416336   -0.5798502038
 H   -1.2329336639    1.4706416588    1.1311430233
 H    1.5279797260   -1.2161071868    0.3831317105
 H   -2.8789029373   -2.1428310137   -0.6255358773
 H   -2.7887529701   -4.1083416441   -2.2040858905
 H   -0.9990731400   -4.2919535450   -1.8502364315
 H   -1.4794050936   -4.6444140762    0.5727237211
 H   -3.2787265013   -4.4679280459    0.2674455926