12

 N    0.0471235364    1.2420949277    0.0087231488
 N    1.2246149026    1.8456917694    0.0008323798
 C    2.0633583797    0.7895691951   -0.0132163889
 N    3.4112007216    0.8041840640   -0.0261050383
 C    3.9270818651   -0.4067856307   -0.0379356604
 C    3.1505510749   -1.6112680867   -0.0372891539
 N    1.8346234597   -1.6412563198   -0.0247999029
 C    1.2915659688   -0.4075636294   -0.0125824277
 N   -0.0165953571   -0.0795595170    0.0018916681
 H   -0.8018089514    1.7894077979    0.0199791509
 H    5.0117338893   -0.4841782479   -0.0488107509
 H    3.6687702005   -2.5672589427   -0.0476943447