21

 C    0.2110020178    1.5663097262   -0.0016027110
 C    0.0276348585    0.0431969097    0.0161540014
 C    0.5419994695   -0.5953740731   -1.2927980586
 C    0.6754389986   -2.1141655233   -1.2426001210
 C    2.0458909681   -2.7028761060   -0.9744100249
 O    3.1619902894   -1.8777259157   -0.8433120327
 C    0.9794714245   -2.7594963690    0.1015370404
 C    1.0915632373   -1.8538854133    1.2705838759
 C    0.6802957964   -0.5830392619    1.2304457567
 H    1.2726401911    1.8323646991   -0.0602205053
 H   -0.2927444590    2.0122579270   -0.8653589256
 H   -0.2006414161    2.0275571569    0.9024578676
 H   -1.0525257358   -0.1588506203    0.0939888288
 H   -0.1195431074   -0.3110561599   -2.1172556318
 H    1.5254370934   -0.1649079521   -1.5214361819
 H    0.0321584927   -2.6749663757   -1.9129902701
 H    2.3112656314   -3.6297281656   -1.4734109434
 H    3.0547073863   -1.3631803098   -0.0329714661
 H    0.5564518720   -3.7394777401    0.3056359115
 H    1.5262187624   -2.2596011297    2.1816943513
 H    0.7719814688    0.0412489567    2.1172378589