20

 C   -0.4243835301    1.4056082708   -0.0716080982
 C    0.0744551669   -0.0312757951   -0.0603214022
 C    1.4122272503   -0.3513043751   -0.7599552071
 O    1.9317594826   -0.9989779610    0.4191572872
 C    0.7755300061   -0.6212090227    1.2062996623
 C    1.1607792955    0.3451846836    2.3173386333
 C    0.0678642927   -1.8803889268    1.7512724607
 C    0.8411411807   -2.5935981433    2.7655881066
 N    1.4507545527   -3.1488983845    3.5750175801
 H    0.3561614601    2.1131106803    0.2225102793
 H   -0.7570206200    1.6814437781   -1.0780049021
 H   -1.2760923189    1.5414352571    0.6031918105
 H   -0.7262120809   -0.6953631450   -0.4010300004
 H    1.3736651929   -1.0295412719   -1.6195808656
 H    2.0042807330    0.5328383989   -1.0320257974
 H    1.6881426180    1.2107642846    1.9111285193
 H    0.2781504423    0.6989579590    2.8609547951
 H    1.8257831786   -0.1526673114    3.0284226248
 H   -0.8999762007   -1.5972138403    2.1828566014
 H   -0.1304669219   -2.5646052554    0.9202468724