16

 N    0.0439402198    1.4436205285    0.0179387934
 C    0.0015845152    0.1781583806    0.0106342555
 O   -1.1306404315   -0.5405634483   -0.0554216302
 C   -2.3510910585    0.2097011714   -0.1316848744
 C   -3.4977263946   -0.7927222761   -0.1951741740
 C   -4.8452178501   -0.1147530763   -0.0526502496
 O   -5.7649645902   -0.2556114566   -0.8140877242
 C    1.2082085571   -0.7342374582    0.0755796806
 O    2.3272835303   -0.2997289761    0.1440652818
 H    1.0230562172    1.7328003299    0.0744570260
 H   -2.4244325159    0.8621581868    0.7461222147
 H   -2.3196226460    0.8561665097   -1.0147209761
 H   -3.4813135486   -1.3672105867   -1.1240934667
 H   -3.3902423923   -1.4909878793    0.6469149231
 H   -4.9385848419    0.5393743716    0.8456712780
 H    0.9810548199   -1.8182759910    0.0553053122