21

 C    0.2633203814    1.6260596168   -0.0123649517
 C   -0.0344166483    0.1418236893    0.0174538764
 C   -1.4822585853   -0.2917092070    0.3934237695
 C   -0.9200174724   -1.2839156881    1.4587166141
 C    0.5244696596   -0.8244205778    1.1302656571
 C    1.2691360704   -1.6385696226    0.0324871270
 O    0.5489623644   -2.7695755053   -0.5061385488
 C    0.0800679023   -1.9844411671   -1.6324364776
 C    0.7200633210   -0.7023950743   -1.0734808565
 H    1.3388193317    1.8199707654   -0.1000923556
 H   -0.2301933447    2.1090513546   -0.8654928151
 H   -0.0911542174    2.1196407538    0.8994363389
 H   -2.0505703933    0.5328330501    0.8335821923
 H   -2.0931313087   -0.7232114475   -0.4034940855
 H   -1.2322978660   -1.0605883378    2.4808860777
 H   -1.1027359512   -2.3394885691    1.2537658902
 H    1.1438826552   -0.4652712792    1.9550554753
 H    2.3266867983   -1.8648149918    0.1976605444
 H    0.5377632477   -2.3312655469   -2.5679176375
 H   -1.0096706763   -2.0192594006   -1.7407299246
 H    1.3527132318   -0.1286607350   -1.7515693800