18

 C    0.0169675311    1.5284252443   -0.0652527414
 C    0.0882605052    0.0197808196   -0.0008676129
 C    1.3847542754   -0.7253295125   -0.1004074625
 C    0.6263726734   -0.7281405085    1.2259769517
 C    1.2103035002    0.0151403851    2.4269481661
 C    2.3458882955   -0.7584225599    3.0772685741
 O    3.4255955836   -0.2850726238    3.3171383534
 C   -0.0710585775   -1.9432758221    1.5690585019
 N   -0.6350959244   -2.9116877215    1.8588393650
 H    0.9151351797    2.0058085703    0.3342822832
 H   -0.0831547458    1.8471610787   -1.1079005114
 H   -0.8479406783    1.9123321356    0.4851718208
 H   -0.7613866333   -0.4795745848   -0.4575643725
 H    1.4250879985   -1.6483095466   -0.6661179804
 H    2.3030886015   -0.1466583380   -0.1090821341
 H    1.5951916992    0.9944372150    2.1393277210
 H    0.4248130483    0.1646968437    3.1800722983
 H    2.1094697977   -1.8169242944    3.3234943197