18

 C   -0.1003940108    1.4104399435    0.0024730933
 C    0.0362924660   -0.0969556849    0.0621541042
 C    1.3961330411   -0.6747753846   -0.2221196532
 C    0.8249475635   -0.6726938858    1.2033300425
 C    0.8198382381   -2.2257636797    1.2223166413
 C    1.3980515377   -2.2292414921   -0.2155380406
 N    0.1984730991   -2.9569365807   -0.6391110929
 C   -0.4173938945   -2.9364971865    0.6063141797
 O   -1.4930927139   -3.3175375296    0.9785741527
 H    0.8020168076    1.9074546852    0.3739272744
 H   -0.2691559313    1.7501516135   -1.0248594126
 H   -0.9440019214    1.7507726602    0.6117505865
 H   -0.8421068523   -0.6345515861   -0.2880480304
 H    2.1951689635   -0.0712607005   -0.6364498209
 H    1.1170984376   -0.0671360359    2.0521776376
 H    1.3301691235   -2.7083660471    2.0526999176
 H    2.3457065519   -2.7086248557   -0.4605245096
 H   -0.2175472255   -3.0862783731   -1.5512379896