20

 C    0.1582683138    1.6070839187   -0.1916335278
 C    0.0507681889    0.1033599389    0.0199155877
 C    0.8251530386   -0.8744046942   -0.9148284043
 N    1.2900523672   -1.6833145857    0.2633930661
 C    2.6938996560   -1.4864199941    0.7731051088
 C    3.6069897959   -0.4714337079    0.0846802714
 O    2.9587154803    0.6304674308    0.7667200911
 C    2.2221068056   -0.2757092405    1.6244245496
 C    0.7757020271   -0.6068965000    1.1920985845
 H    1.1997685160    1.9291181373   -0.2262343264
 H   -0.3325562135    1.8963359112   -1.1279755299
 H   -0.3404010193    2.1506181907    0.6189121573
 H   -1.0061784230   -0.1811297870    0.0540471276
 H    0.2174660579   -1.4662618135   -1.6059318268
 H    1.6212909023   -0.3924457603   -1.4901791429
 H    3.1387463101   -2.4067715457    1.1534376895
 H    4.6555983546   -0.5659079295    0.3977095115
 H    3.5718980812   -0.3782033128   -1.0057693061
 H    2.4339725193   -0.0990777130    2.6829675217
 H    0.1541221011   -0.9456322634    2.0299819174