18

 C    0.2004418215    1.6028929029   -0.2658379711
 C   -0.0237710441    0.1027945495   -0.0004833042
 C    0.5862909163   -0.3757904611    1.2696767024
 C    0.0786337859   -0.7923429110    2.4710617863
 N   -1.2346883416   -0.9537565483    2.8889645946
 C   -1.4640305091   -1.2862930973    4.2909067072
 N    1.1505637012   -1.1177512950    3.2672956457
 N    2.2383657521   -0.9308823455    2.6437986814
 O    1.9270511042   -0.4434836745    1.3640135775
 H    1.2686531090    1.8301850819   -0.3143401497
 H   -0.2565126267    1.8962152321   -1.2152636403
 H   -0.2374674897    2.2146006306    0.5287554412
 H   -1.0955205099   -0.1216928957    0.0336717296
 H    0.3876925150   -0.4795519881   -0.8337485467
 H   -1.8438177253   -0.2213214430    2.5542121124
 H   -1.0778886150   -0.5323481251    4.9916612913
 H   -2.5392394542   -1.4003479040    4.4463762790
 H   -0.9776219697   -2.2359243084    4.5242219433