20

 C    0.6229100623    0.6971462228    0.4906406881
 N   -0.1026127014   -0.0935463864   -0.4817709929
 C    0.5573385436   -0.9232627819   -1.1558013219
 O   -0.0583950024   -1.6721308895   -2.1036844315
 C    0.7452881881   -2.6600604229   -2.7434578562
 C    0.9010214406   -3.9085177854   -1.8978277703
 C   -0.3750657287   -4.5693741686   -1.4320984976
 C    2.1473757629   -4.6773684948   -2.0266501305
 O    1.9430083063   -3.8094905870   -0.9096090612
 H    1.7010597361    0.4729738165    0.5383023149
 H    0.5029913504    1.7623642938    0.2614289634
 H    0.1950218948    0.5371109687    1.4868863832
 H    1.6353873066   -1.1134471945   -1.0576438373
 H    0.2257721804   -2.8947955140   -3.6773468447
 H    1.7350958105   -2.2544293073   -2.9870316888
 H   -0.9575405844   -4.9303579788   -2.2866110881
 H   -0.1483644692   -5.4149114350   -0.7789586148
 H   -0.9936529826   -3.8553067669   -0.8821300135
 H    2.1388213132   -5.7424196988   -1.7998149501
 H    2.9179763629   -4.3625618597   -2.7300255803