13

 O    0.1032309814    0.0077146283    0.1327283328
 C    0.0998601467    1.1918546517    0.2436462862
 O    1.0792888025    1.9647441176   -0.3092578217
 C    0.9867599004    3.3562284461   -0.0915439920
 C    1.4047216532    3.9015592131    1.2626461719
 C    2.3115422536    4.0565129119    0.0753304779
 C   -0.0718365676    4.0117872907   -0.8231589430
 N   -0.9262837741    4.5360350778   -1.3995507989
 H   -0.6605438964    1.7830012311    0.7838172512
 H    0.8775751834    4.7700568509    1.6386202857
 H    1.6650121606    3.1566221970    2.0056394993
 H    3.1773997444    3.4089248184    0.0067218281
 H    2.4203486119    5.0339073856   -0.3777444875