17

 C    1.1350169696    1.6731763526    0.1088111553
 C    0.2873687264    0.4758929468   -0.3169095651
 O    0.9370666710   -0.1519329812   -1.4047962596
 C    0.1844378428   -1.1605371498   -2.0241064729
 C   -0.8648008867   -0.7687711687   -3.0324521512
 C    0.4538666212   -1.3736043925   -3.4752702352
 C    0.0983922597   -0.4700845470    0.8087754167
 N   -0.0516656934   -1.2159817988    1.6785289197
 H    2.1321895487    1.3410892794    0.4057942899
 H    1.2277006921    2.3605957704   -0.7349206288
 H    0.6690401709    2.1942268128    0.9484365036
 H   -0.7150449386    0.8134907657   -0.6214053511
 H   -0.0016493925   -2.0265435363   -1.3916304726
 H   -1.7679962691   -1.3645701697   -3.1005390091
 H   -1.0017992690    0.2909851169   -3.2178505730
 H    1.1716709260   -0.7046029558   -3.9355699854
 H    0.4686079710   -2.3896329648   -3.8520650911