14

 C    0.0017346487    1.4784104709    0.1020304866
 C    1.2931359022    0.7260951381    0.0406029028
 O    1.9898387624    0.4492905853    1.2663899410
 C    1.1679561791   -0.3815203414    1.9451575676
 N    1.2427283172   -0.9544343472    3.1281872009
 N    0.0957050057   -1.6720247419    3.1221183161
 N   -0.6851558402   -1.5851446809    2.0370539663
 C   -0.0012992094   -0.7452363098    1.2723420748
 C   -0.0372816867   -0.0445791731   -0.0244869709
 H   -0.3036806468    1.9208245979    1.0435839533
 H   -0.2616441426    2.0500159292   -0.7812399733
 H    1.9788514630    0.8344451893   -0.7890104181
 H   -0.1438136663   -2.2692351113    3.8947629442
 H   -0.4020782464   -0.5084475450   -0.9320236714