19

 O    0.0145604011    1.3448337120   -0.2459253959
 C    0.0685560315   -0.0118718331   -0.0335221596
 C   -0.8624428302   -0.7053841748    0.8966508406
 C    0.6285493274   -0.8781620171    1.1129369956
 C    1.1715829685   -1.8814354722    0.0860757333
 C    0.6697752626   -0.9597477090   -1.0619060893
 C   -0.0174343221   -1.3880716928   -2.3736071341
 C    1.1191201883   -0.6171840018   -3.0666544655
 O    1.7364010449   -0.2966189954   -1.7963722200
 H    0.8315338284    1.5610723590   -0.7176517124
 H   -1.3459088338   -0.0336833317    1.5996154682
 H   -1.4848853408   -1.5396349419    0.5749935530
 H    1.1057472664   -0.5931644448    2.0416706786
 H    2.2615894818   -1.9470738740    0.0599587746
 H    0.7456652636   -2.8908925923    0.1199866429
 H   -0.0237913196   -2.4643289570   -2.5546030635
 H   -1.0232948372   -0.9895154046   -2.5176598074
 H    1.7897950855   -1.2089388147   -3.6993423138
 H    0.8186214437    0.2859065861   -3.6100289154