21

 C   -0.0690420805    1.5632399210   -0.1221249355
 C   -0.0120560388    0.0294812645    0.0105347750
 C    0.6620593426   -0.5431335552   -1.2244847848
 O    0.0869548490   -1.1283584371   -2.1068453515
 C    0.7392471093   -0.4515014331    1.2796653777
 O    2.0715570617    0.0586172595    1.3256921450
 C   -0.0273400771   -0.1657071061    2.5743207962
 C    0.6327158670   -0.7885501133    3.7996018679
 O   -0.1314145740   -0.4101771044    4.9344216177
 H    0.9333780301    1.9932465310   -0.2244895231
 H   -0.6396315332    1.8472396943   -1.0104818478
 H   -0.5533793011    2.0218244998    0.7447648653
 H   -1.0306246261   -0.3726308773    0.0301748793
 H    1.7604979578   -0.3718556139   -1.2634612940
 H    0.8742724180   -1.5379290320    1.1931714730
 H    2.0213432810    0.9960423252    1.5424414863
 H   -0.1076041323    0.9167611968    2.7386496324
 H   -1.0517999950   -0.5456073946    2.4891764611
 H    0.6640138683   -1.8844893846    3.6842549720
 H    1.6722269840   -0.4391583517    3.8746401101
 H    0.2923708892   -0.7745931688    5.7168409375