17

 C    0.0531365630    1.5440592161    0.0101678485
 C    0.1574322852    0.0426661000   -0.0056853273
 O   -0.7629295806   -0.6698380673    0.8476798755
 C    0.6296088725   -0.7487695536    1.1487876143
 C    1.2717525755   -2.1025179362    0.9079384497
 C    1.8004247695   -2.1822481723   -0.5185988226
 O    0.8237118615   -1.7937598226   -1.5005667852
 C    0.2119838631   -0.5920258713   -1.3858274683
 O   -0.3186324204   -0.0920496632   -2.3391361342
 H    0.9621628686    2.0005441134   -0.3946495039
 H   -0.7867634787    1.8639816829   -0.6104346372
 H   -0.0963474062    1.8984661521    1.0326477967
 H    0.9187121728   -0.2055703160    2.0481066865
 H    2.1004694246   -2.2683194755    1.6038468261
 H    0.5250444611   -2.8825527121    1.0865711713
 H    2.6848983809   -1.5427519855   -0.6352201192
 H    2.0830039278   -3.2008633190   -0.7915297509