18

 C   -1.4501556754   -0.0623426754   -0.0747020476
 O   -0.0376600865    0.0141467104   -0.0027195528
 C    0.6638185963   -0.6694130193   -0.9988984592
 C    0.4096998871   -0.1253461478   -2.4206501664
 C    0.6967021812    1.3022513690   -2.5363631687
 N    0.9275650584    2.4307543603   -2.6244846495
 C    2.1584672279   -0.8215737401   -0.6585756693
 O    2.1067229453   -2.2368960990   -0.9429708943
 C    0.6665978561   -2.2232052880   -0.9590113651
 H   -1.8562627767    0.4992410788   -0.9266143447
 H   -1.8000136083   -1.1029809383   -0.1347855233
 H   -1.8328193179    0.3835741849    0.8451218129
 H    1.0442868978   -0.6767284029   -3.1224944842
 H   -0.6274175318   -0.3064545908   -2.7229674870
 H    2.8821204618   -0.2944423450   -1.2881215922
 H    2.3580104436   -0.6138762675    0.3989817063
 H    0.2360154192   -2.6191431357   -0.0298276780
 H    0.2571833421   -2.7657822937   -1.8185846770