18

 O   -0.1782333337    0.0571024194    0.5863426300
 C   -0.1399718316    1.1911447233    0.1743195566
 C   -1.3124837270    2.0493025864   -0.3405608383
 C   -0.9147586655    3.4885059761    0.0656877274
 C    0.6262052925    3.4377436869   -0.0012399721
 C    1.5636653057    3.7305760860    1.1887166272
 C    1.2549175938    2.8470307400    2.3741091625
 C    1.9445577162    2.2506400807    1.1837239497
 N    0.9845944331    2.0037172778    0.0992816066
 H   -1.3869824540    1.9462759692   -1.4295248150
 H   -2.2500183391    1.6970482210    0.0914946058
 H   -1.3430714863    4.2558418330   -0.5825610686
 H   -1.2447136723    3.6952048847    1.0888852211
 H    1.0118720572    3.8793211518   -0.9270594672
 H    2.2144442180    4.5910168804    1.2621729248
 H    1.8942759664    3.0197583129    3.2341650661
 H    0.2401795912    2.5521896807    2.6252926689
 H    2.9102728654    1.7640229697    1.2041976244