19

 C    0.0011764171    1.5252145513    0.0141561404
 C   -0.0279872502    0.0018005571    0.0010073157
 C    0.6930356071   -0.5840310593   -1.2401364953
 O    0.6910947183   -2.0118381152   -1.1852814795
 C    0.0210590103   -2.4763071702   -0.0213116831
 O    0.7133658819   -2.0323142305    1.1376077263
 C    0.7165767004   -0.6056955970    1.2175926412
 C   -1.3905185225   -1.9377610023   -0.0030362654
 C   -1.4142347710   -0.6056687773    0.0089367318
 H    1.0285580198    1.9041854640    0.0075754317
 H   -0.5133317993    1.9337902459   -0.8619118266
 H   -0.4962458885    1.9181963944    0.9070644226
 H    0.2008690921   -0.2570379305   -2.1655422996
 H    1.7362702116   -0.2394685354   -1.2590130203
 H    0.0962434059   -3.5629922040   -0.0316108464
 H    1.7600352890   -0.2613313091    1.2225715782
 H    0.2422638092   -0.2951642104    2.1578724914
 H   -2.2528639585   -2.5930459755   -0.0005535084
 H   -2.3081409228    0.0090701241    0.0229211952