17

 C    0.2969126106    1.3669945620    0.1455116295
 C   -0.3959231758    0.0606896588   -0.2523452171
 N    0.2305192007   -0.5955247084   -1.3883469640
 C    1.0721866940   -1.6635105883   -1.2491963424
 O    1.3291155843   -2.1890758846   -0.1792795096
 C    1.6319590256   -2.1284000150   -2.5098415386
 C    2.1239580774   -2.5497172090   -3.5263588311
 C    2.7228672022   -3.0669428841   -4.7457089362
 H    1.3361289101    1.1790059664    0.4292413907
 H    0.2919537988    2.0882261140   -0.6789047763
 H   -0.2155853159    1.8260623811    0.9970107016
 H   -0.3592184778   -0.6549992147    0.5714946913
 H   -1.4498407706    0.2454871667   -0.4908319047
 H    0.1241117576   -0.1995908476   -2.3084680617
 H    3.3491515528   -3.9407347616   -4.5378221546
 H    1.9536214552   -3.3671180324   -5.4654853466
 H    3.3509866510   -2.3094625131   -5.2270469501