13

 N    0.0457500399    1.4157922934    0.1666603183
 C    0.0384216641    0.0330525819    0.0459906982
 C   -1.0683659513   -0.7884928463    0.0106515349
 O   -0.6586454036   -2.1087666410   -0.0298606411
 C    0.6870422019   -2.0987243645   -0.0308538159
 C    1.1788179297   -0.8309177113    0.0155428004
 C   -2.4333850337   -0.4850773574    0.0125432229
 C   -3.5995322199   -0.1719386640    0.0051570092
 H    0.8056835682    1.8708153458   -0.3192052184
 H   -0.8417584832    1.8429447507   -0.0637602865
 H    1.1632222699   -3.0654087568   -0.0658078709
 H    2.2174998034   -0.5397799874    0.0356607389
 H   -4.6278490255    0.0912376972    0.0139307901