22

 C   -0.1694066578    1.5022945727    0.0550292596
 C    0.0449804686   -0.0032885880   -0.0231384366
 C    0.9973707979   -0.5485301460   -1.1163425457
 C    2.3696771758   -0.0763737292   -0.5887070278
 C    2.1760655091   -0.5854951579    0.8343105910
 N    0.7278511343   -0.5341180333    1.1884826872
 C    1.3411949959   -1.8217991721    0.7659707736
 C    1.3914590516   -2.9537240895    1.7520679628
 C    1.0160806779   -2.0380696601   -0.7144501561
 H    0.7701016276    2.0476938280    0.1777035764
 H   -0.6627876492    1.8694771406   -0.8511025124
 H   -0.8039007105    1.7446940306    0.9124416912
 H   -0.9334033186   -0.4939690314   -0.0981981975
 H    0.7557919287   -0.3155761367   -2.1527405858
 H    3.2049827009   -0.5705978555   -1.0957696108
 H    2.5225817813    1.0038375666   -0.6531430174
 H    2.8819928138   -0.3907019991    1.6332096076
 H    1.6115631680   -2.5831198214    2.7566489486
 H    0.4328300309   -3.4835128518    1.7922168239
 H    2.1641700778   -3.6801431190    1.4755686799
 H    0.0519640257   -2.5354239929   -0.8670235008
 H    1.7898796802   -2.6169639646   -1.2301032010