20

 C    0.2860213396    1.0881990267   -0.4201482219
 C   -0.2142255673   -0.1775160080    0.2803084356
 C    0.8345642434   -0.7769532554    1.2036536017
 O    0.2793608808   -1.9419431040    1.8160813500
 C    1.1429409052   -2.5884896533    2.6695184350
 C    0.8836611758   -4.0298104114    2.9124667421
 C    2.1210791903   -3.6322958470    2.1059634024
 C    2.1471348089   -3.8766101653    0.6944028216
 N    2.1838557464   -4.0624232373   -0.4474523924
 H    1.1697586421    0.8819593795   -1.0334578096
 H   -0.4845614848    1.5000257790   -1.0776648345
 H    0.5563380477    1.8666716099    0.3020813090
 H   -1.1137982906    0.0408938569    0.8671158602
 H   -0.4950184777   -0.9355856655   -0.4589116092
 H    1.7389649183   -1.0478218651    0.6407818519
 H    1.1275499415   -0.0555606936    1.9838736188
 H    1.5369987849   -1.9823855072    3.4869946263
 H    1.0482590312   -4.4405927105    3.9012920258
 H    0.0674204845   -4.4698388512    2.3523984582
 H    3.0847770399   -3.7238150674    2.5954932692