21

 C   -0.1281781183    1.5553434073    0.0242283990
 C   -0.0125606569    0.0334323307    0.0117211657
 O    0.7153893856   -0.4325857520   -1.1219525050
 C    0.6030336549   -0.5112700535    1.3173696391
 O   -0.1283363079   -0.0712695280    2.4575764457
 C    0.7513703343   -2.0341415805    1.2989087848
 C    1.7881808538   -2.5464954430    2.2957671142
 C    1.5287800384   -3.9140411770    2.8963547691
 O    2.7761784283   -1.9032873987    2.5656412300
 H    0.8674004209    2.0124053870    0.0935523455
 H   -0.6066763862    1.9097689709   -0.8924475108
 H   -0.7041356726    1.8929342532    0.8884154350
 H   -1.0142185447   -0.4059412267   -0.1066560070
 H    1.5580811924    0.0355734755   -1.1381711176
 H    1.6037789059   -0.0807182231    1.4430459841
 H   -1.0120471331   -0.4531404296    2.4047092460
 H   -0.2193781785   -2.5198414550    1.4637421085
 H    1.0851098914   -2.3434826754    0.2997761054
 H    1.2971161735   -4.6442865268    2.1128315815
 H    2.3933220226   -4.2432476554    3.4739154830
 H    0.6503306363   -3.8632325000    3.5510983439