16

 N   -0.0331629075    1.1495005944    0.5473984248
 C   -0.0037936348   -0.0036650741    0.0347752394
 C   -1.2895277376   -0.7902238261   -0.2050909454
 C   -1.0226542319   -2.1476065663   -0.8813921315
 C    0.0118945600   -1.9187138130   -2.0313847069
 C    1.1114540288   -1.8956145128   -0.9387916446
 O    1.1815291457   -0.6012430602   -0.3206390406
 C    0.1462337607   -2.8039398511   -0.1266929117
 O    0.2752306599   -3.7182752158    0.6289625813
 H    0.9128050622    1.5245643689    0.6397902845
 H   -1.7902585606   -0.9243776405    0.7584303494
 H   -1.9533990199   -0.1781560742   -0.8233555899
 H   -1.9336382564   -2.7200192455   -1.0581021609
 H    0.1123386787   -2.7851567093   -2.6884470939
 H   -0.0941024106   -1.0045976307   -2.6191860869
 H    2.1346397833   -2.2016627037   -1.1497774571