19

 C    0.1046366333    1.4962094851   -0.2859392179
 C    0.0339145666    0.0159836675   -0.0215620079
 O    1.2848951588   -0.7019981808    0.0001532290
 C    0.5465320743   -0.6126190297    1.1998971526
 C    1.0346810515    0.0394172639    2.4948237083
 C    0.0986965452   -0.9466440061    3.2746879118
 C   -0.0152316897   -1.8076726498    1.9703528677
 C    0.7063734350   -1.6314055430    4.4652825328
 O    0.2250218841   -1.6735222842    5.5676606378
 H    0.9010169280    1.9635752076    0.2986664926
 H    0.3039746013    1.6864467088   -1.3455343080
 H   -0.8464987402    1.9771123894   -0.0322824246
 H   -0.7571670476   -0.5152027713   -0.5552090237
 H    2.0935284392   -0.1780343357    2.6731256201
 H    0.8613607765    1.1070201124    2.6435234910
 H   -0.8486407432   -0.4888119599    3.5625785553
 H   -1.0063092933   -2.1814798075    1.7059487637
 H    0.6931284790   -2.6436604373    1.9736591605
 H    1.6851982012   -2.1239707594    4.2448137688