18

 C    0.5161082193    1.4599327950   -0.3611157942
 C    0.0414356238    0.0562060778    0.0153304266
 O    0.3181663827   -0.8827409619   -1.0405528486
 C    1.2838819194   -1.8115080452   -0.6282094764
 O    2.5536920402   -1.5642011158   -1.2426361886
 C    2.6771550829   -1.9506146159   -2.5308349522
 N    3.7283746391   -1.6785934667   -3.1728398215
 C    1.4361328653   -1.6041941175    0.8523729193
 C    0.7404143005   -0.5328507103    1.2107466946
 H    1.5976727540    1.4637733754   -0.5193016272
 H    0.0250811624    1.7870408160   -1.2815334295
 H    0.2705819382    2.1737972866    0.4321672418
 H   -1.0487392888    0.0647406584    0.1545682034
 H    0.9512304691   -2.8150170196   -0.9291316080
 H    1.8049414737   -2.5005491263   -2.9092424955
 H    3.6634547246   -2.0552203035   -4.1165532536
 H    2.0709759137   -2.2273836095    1.4664285135
 H    0.6783780098   -0.0962551371    2.1993437562