15

 C   -0.0623789308    1.3684899431    0.1035555851
 O    0.0098177597   -0.0603032322   -0.0018816298
 C    0.6373551229   -0.5148183743   -1.1036736913
 O    1.1142248631    0.1914772464   -1.9573587351
 C    0.6616020773   -1.9583094038   -1.1239634465
 C    0.7167679823   -3.1579697186   -1.2027164454
 C    0.7718994385   -4.6169854057   -1.2773633240
 C    1.4525389581   -5.1233399798   -2.4694791867
 C    2.0084861742   -5.5510516092   -3.4429674635
 H    0.9396975572    1.8038972192    0.1283446761
 H   -0.6076632712    1.7900937247   -0.7445608043
 H   -0.5902209379    1.5670139859    1.0359852158
 H    1.2693849227   -5.0005065346   -0.3756983540
 H   -0.2521216470   -5.0138140659   -1.2387567959
 H    2.5019466108   -5.9219246953   -4.3071763006