20

 C   -0.0059841334    1.5324292279    0.0679534877
 C   -0.0533921614    0.0343556635    0.0024747888
 C   -0.8774143977   -0.7983371797    0.9047076489
 N    0.5897261105   -0.8664492249    1.0531678785
 C    1.0457724934   -1.7725811350   -0.0593870240
 C    0.5164874545   -0.8016797993   -1.1506683489
 C   -0.4286261769   -1.3056164981   -2.2493475930
 C    0.3096651726   -2.1438507719   -3.2687086578
 O    0.0772027838   -3.2997152531   -3.5115182893
 H    0.9784443217    1.9116665623   -0.2274969680
 H   -0.7537099068    1.9774691761   -0.5996166195
 H   -0.2122980265    1.8817272325    1.0836466306
 H   -1.3635851745   -0.2923531481    1.7335949533
 H   -1.4114033078   -1.6737598867    0.5403196320
 H    2.1315622340   -1.8822887300   -0.0432531035
 H    0.5873528873   -2.7671985423   -0.0284426335
 H    1.3526215362   -0.2660882803   -1.6136972780
 H   -1.2496464341   -1.8997266986   -1.8399208683
 H   -0.8545982923   -0.4381678522   -2.7744226142
 H    1.1325631372   -1.6032232720   -3.7947456818