18

 C   -0.2286482128    1.5851520591   -0.1074414629
 C    0.1057845956    0.0969796241    0.0001363623
 N    0.7928170665   -0.4038516259   -1.1768545424
 N    0.1117133327   -0.4980545816   -2.3629665901
 C    1.0546075032   -0.9461914904   -3.1679212325
 O    0.8098931900   -1.1902962967   -4.4635863608
 N    2.2747362133   -1.1463645245   -2.6078832906
 C    2.0742509919   -0.7900055375   -1.3427062227
 C    3.1085207657   -0.8175866644   -0.2671153920
 H    0.6808864035    2.1872985278   -0.1932628597
 H   -0.8470986233    1.7666773104   -0.9891838916
 H   -0.7776129765    1.9120001039    0.7806502838
 H    0.7481688386   -0.1002273369    0.8622166984
 H   -0.8089414861   -0.4906158817    0.1254975716
 H    1.6386331996   -1.5096014181   -4.8399589320
 H    3.2979917704    0.1794465276    0.1444896155
 H    2.8166634074   -1.4704066107    0.5624711148
 H    4.0381391804   -1.1963437446   -0.6928775990