23

 C    0.0209224434    1.7576581978   -0.2729949854
 C    0.0059613150    0.2419495579   -0.1268350109
 C   -1.4022239094   -0.3607815238   -0.1339450569
 C   -2.2887143783    0.1084324361    1.0243681296
 C   -3.5947974993   -0.6701362206    1.1086104520
 O   -4.3566005316   -0.1341273910    2.1801999386
 C    1.0290741059   -0.5199770529   -1.0127314981
 C    1.6838518844   -0.9217193268    0.3213667483
 O    0.7248278499   -0.1618742989    1.0808931037
 H    1.0496483533    2.1285128201   -0.2873972242
 H   -0.4703523085    2.0627312631   -1.2038622987
 H   -0.4971923517    2.2363591284    0.5624056417
 H   -1.8770631089   -0.1337726979   -1.0986621870
 H   -1.2981211071   -1.4526324082   -0.0869095299
 H   -1.7435366642   -0.0085496023    1.9668806949
 H   -2.5344110729    1.1712927406    0.9243342352
 H   -4.1408107271   -0.5887837766    0.1533326726
 H   -3.3798657435   -1.7398170743    1.2678815663
 H   -5.1742229363   -0.6354719102    2.2479122528
 H    0.6141000206   -1.3379525230   -1.6048048660
 H    1.6382744817    0.1162842651   -1.6574015402
 H    1.6468609788   -1.9911452353    0.5645238607
 H    2.7081725457   -0.5632768276    0.4804524906