15

 N   -0.0421193389    1.1152014211    0.7540134881
 C   -0.0004417281    0.0104392024    0.1479102680
 N    0.9849296578   -0.7941125774   -0.4396184441
 C    0.0817647380   -1.9041021611   -0.7679959372
 C   -0.2800122737   -2.8357103875    0.4226429483
 O   -1.2996412626   -1.9312726379    0.8930028852
 C   -1.0848956104   -1.0134819741   -0.1922388733
 C    0.1940530684   -2.4660357614   -2.0883170451
 C    0.2857044567   -2.9651082296   -3.1780994286
 H    0.8878478905    1.5156811478    0.8912367905
 H    1.9559006007   -0.8776512169   -0.1677397898
 H   -0.7109968173   -3.7947241167    0.1159588605
 H    0.5201656731   -2.9979317767    1.1536368477
 H   -1.9951437155   -0.7162227532   -0.7111788739
 H    0.3642156912   -3.3938876088   -4.1468697164