17

 O    0.0171516393   -0.1146576216    0.0559095008
 C    0.0332694741    1.0885626519    0.0456026367
 C    1.2775191213    1.9430295096    0.0379444143
 C    1.2613718018    3.0259189684   -1.0984270847
 C    1.3830868580    4.3013666315   -0.2766927911
 C    2.3146422943    4.0538124316    0.9455855145
 O    1.5183623351    4.9565101528    1.7854579182
 C    0.5398527454    4.1686063099    1.0260367162
 C    1.3623356975    2.8634868194    1.2626412650
 H   -0.9184487931    1.6740143184    0.0432081854
 H    2.1411781808    1.2761145294   -0.0286827296
 H    2.0898196437    2.8853985947   -1.7975215550
 H    0.3340685188    2.9995526361   -1.6819467251
 H    1.4225714107    5.2716812731   -0.7692425117
 H    3.4012967382    4.1060692262    1.0195807277
 H   -0.5176903197    4.3709262786    1.1970991295
 H    1.3827304738    2.4355088002    2.2638078489