20

 C    0.0023078812    1.4982560218    0.3538976652
 C   -0.0015421315    0.0558355965   -0.1746378768
 C   -1.3640011618   -0.5711646379   -0.1550669243
 N   -2.0157169001   -1.0111712895    1.1004187510
 C   -1.8287074237   -1.9786166192   -0.0122001400
 C   -3.0146346193   -1.7580761738   -0.9516007007
 C   -2.5173468791   -0.2700260380   -1.1510001794
 C   -3.4226061812    0.8257110661   -0.8669337317
 C   -4.1731321256    1.7395448792   -0.6473198538
 H    1.0068181268    1.9291385206    0.3058469466
 H   -0.6696986073    2.1323677063   -0.2317679825
 H   -0.3365244233    1.5354196913    1.3937205284
 H    0.3862014183    0.0382948777   -1.2015603952
 H    0.6823258908   -0.5634936594    0.4214350036
 H   -1.2667464590   -1.1802170189    1.7729566524
 H   -1.2558172504   -2.8863414534    0.1352983552
 H   -2.9697117852   -2.3326679633   -1.8784632947
 H   -3.9963095152   -1.8663715128   -0.4875398213
 H   -2.1041108292   -0.1591303786   -2.1592804326
 H   -4.8365470951    2.5415906553   -0.4384698592