20

 C   -0.5997369801    1.0412251326   -1.6220084205
 N   -0.1416746302   -0.1421621830   -0.9021621160
 C    1.2647210355   -0.2856819266   -0.5329259155
 C    2.3217279806    0.7439132365   -0.8700518488
 O    2.6532184255    0.7349208417   -2.2525295274
 C    0.2124030915   -0.0834677555    0.5145720739
 C    0.1084633476    1.1749961904    1.3635970717
 C   -1.3125463246    1.4048796832    1.8437622586
 O   -1.8935369975    2.4564197641    1.7837389440
 H   -0.1954909367    2.0010867314   -1.2741502957
 H   -0.3265186276    0.9286499579   -2.6742142220
 H   -1.6902497975    1.0921460362   -1.5483950452
 H    1.6326337572   -1.3068588673   -0.6664212794
 H    1.9895504641    1.7620552220   -0.6601430860
 H    3.2098346246    0.5586375530   -0.2443574710
 H    2.9304975290   -0.1577523883   -2.4844475665
 H   -0.1073972672   -0.9714336419    1.0628133342
 H    0.7299076186    1.0296854278    2.2601159205
 H    0.4527682545    2.0828904639    0.8680551879
 H   -1.8013083571    0.5012709418    2.2780320131