17

 N   -0.1155017018   -1.1952719745   -0.1071825753
 C   -0.0761719283   -0.0412436462   -0.0415577652
 C    0.0131377322    1.4112068316    0.0399516046
 C   -0.2615863707    2.0900478049    1.3989266384
 C    0.7913046596    1.7293050556    2.4058081489
 C    1.1138078728    2.7644006875    1.3622831751
 C    1.4287175560    2.0638977085    0.0574135076
 C    2.6957990386    1.5168573776   -0.4680907666
 N    2.0579889415    2.7083433024   -1.0775768900
 H   -0.5952669449    1.8575082361   -0.7528625796
 H   -1.2229580746    2.5015028646    1.6753207133
 H    0.6146340219    2.1133829905    3.4048959331
 H    1.2693927889    0.7536091237    2.3790836939
 H    1.3822559367    3.7866093551    1.5939865279
 H    3.6300725108    1.7144048198    0.0496936561
 H    2.6576346855    0.5716190514   -1.0034978251
 H    1.5936658058    2.4573461313   -1.9475397770