20

 C    0.1803290672    1.5851197730   -0.0753347882
 C    0.0233450617    0.0559336147   -0.0117661488
 C    0.5063397572   -0.6022470110   -1.3109636391
 C    0.6995083619   -0.4964762390    1.2209570969
 C    2.1631733437   -0.8886640892    1.3474030773
 C    1.0919773373   -1.8856892372    1.6738972502
 O    0.6076758342   -1.6888666515    3.0038445965
 C    0.1390365431   -0.3624011427    2.6403058098
 H    1.2357235719    1.8622297990   -0.1738493119
 H   -0.3597607817    1.9996626747   -0.9328495563
 H   -0.2080520759    2.0661689272    0.8284718328
 H   -1.0494302735   -0.1652497208    0.0893020596
 H    1.5542524298   -0.3597363056   -1.5175911675
 H    0.4113563699   -1.6921849158   -1.2691170532
 H   -0.0848120544   -0.2469520461   -2.1607025097
 H    2.6792723172   -1.0521345385    0.4067115545
 H    2.7823581296   -0.4931745013    2.1488295573
 H    0.9878276452   -2.8717450612    1.2346386006
 H    0.5544173656    0.4188410702    3.2885250349
 H   -0.9570851399   -0.3222333689    2.6692477243