19

 C    0.0624913280    1.5265599262    0.0292030484
 C   -0.0854486289    0.0402902981    0.0912214882
 O    1.0377388806   -0.7778148512   -0.2792755174
 C    0.4675909105   -0.9633038005    1.0342555174
 C    1.3763169473   -0.8487611220    2.2155374152
 C   -0.7907631826   -1.8091565541    0.8808134947
 O   -0.8253559857   -3.1823290771    0.7267067616
 C   -2.0115237375   -0.9956158234    1.2467549712
 C   -1.3483069780   -0.7831976643   -0.1007472282
 H    1.0152011312    1.8425157528    0.4623398802
 H    0.0341058791    1.8738259482   -1.0097152512
 H   -0.7534253571    2.0187367827    0.5684080898
 H    2.0314188053    0.0212515035    2.1205851397
 H    0.7998862487   -0.7559771564    3.1421466641
 H    2.0112839712   -1.7379642140    2.3001228182
 H   -0.9785502937   -3.5813974926    1.5896830680
 H   -2.9435546782   -1.5527517551    1.2145020459
 H   -1.9746324101   -0.2234894695    2.0114669842
 H   -1.8508768403   -0.9842166715   -1.0384324798