17

 O    0.0394760183    1.3634673307    0.3630749012
 C    0.0552566813    0.0164727859   -0.0561936323
 C   -1.3353578845   -0.5807519427   -0.0528056718
 C   -1.9742274069   -1.1612523152    1.1957891907
 C   -1.7331877564   -2.0380924074    0.0047730010
 C   -2.9039762766   -2.1794428617   -0.9542672084
 O   -3.2730091069   -0.8419646503   -1.3488320190
 C   -2.3267456552    0.0576330032   -0.9731341495
 O   -2.3248297539    1.1956835167   -1.3660687050
 H   -0.5969693220    1.8143826247   -0.2101610681
 H    0.4950038772   -0.0893791563   -1.0613649130
 H    0.6979313225   -0.5319441422    0.6410504224
 H   -1.3094461018   -1.2757147953    2.0449028511
 H   -2.9915128186   -0.8804624339    1.4508150630
 H   -0.9975994454   -2.8320511801    0.0475789293
 H   -2.6275556552   -2.7370424891   -1.8554668773
 H   -3.7850576457   -2.6470844670   -0.5052623644