25

 C   -0.0762043792    1.5058005128    0.1034622989
 C    0.1336088079    0.0088543185   -0.0582069402
 O    0.6209669661   -0.5049413129    1.1649411685
 C    0.7527933250   -1.9203589945    1.2271485269
 C    2.0086781828   -2.4035544920    0.4953038607
 C    0.7761625778   -2.2975606238    2.7102844575
 C   -0.5154571247   -1.9385421251    3.4488583920
 C   -0.4581793632   -2.2705347051    4.9332768832
 O   -1.7056795735   -1.9145169003    5.5121136744
 H    0.8660654907    1.9989853324    0.3589578179
 H   -0.4548335843    1.9413579576   -0.8262484041
 H   -0.7953283091    1.7085010836    0.9021808918
 H   -0.8148618201   -0.4870328640   -0.3254016401
 H    0.8403423293   -0.1851571704   -0.8807245308
 H   -0.1345453282   -2.3814479556    0.7584136279
 H    2.0923261570   -3.4936033692    0.5529570575
 H    1.9897997514   -2.1289354797   -0.5631569804
 H    2.9032926925   -1.9627828562    0.9469371093
 H    0.9712554903   -3.3745649112    2.7907295590
 H    1.6295015623   -1.7867003290    3.1759678341
 H   -0.7189411292   -0.8703657847    3.3303225827
 H   -1.3644929043   -2.4754939756    3.0070396680
 H   -0.2501916331   -3.3453711077    5.0694601534
 H    0.3716374597   -1.7188255403    5.4054825599
 H   -1.6664991238   -2.1100333279    6.4526613721