13

 C   -0.1473902795   -3.8219720174   -0.0120855798
 C   -0.0912369379   -2.6157807699   -0.0031622665
 C   -0.0305102383   -1.2581055718    0.0052837349
 C    0.0309267669   -0.0493194016    0.0171229505
 C    0.0553540734    1.3821313231   -0.0001227344
 O    0.5237091810    2.0629164092    1.1703316178
 C    1.3311528210    2.1582552350   -0.0063994110
 C    2.6169120376    1.5206561135    0.0015021844
 C    3.7071098238    1.0163441272   -0.0175993859
 H   -0.1949291671   -4.8828044371   -0.0187002381
 H   -0.8041663350    1.8568028212   -0.4740899595
 H    1.2980147991    3.1358095337   -0.4876179128
 H    4.6665222552    0.5602832850   -0.0264454996