16

 C    0.1150888585    1.3877017684   -0.3749635828
 C    0.0228995997   -0.0716575438    0.1323130770
 C    0.5874734222   -0.1740010825    1.4838704957
 N    1.0272955048   -0.2394000618    2.5503798343
 C   -1.3874068549   -0.6069355447    0.0953688000
 C   -2.1807233412   -0.9518351719    1.1451042007
 O   -3.3945241695   -1.3762517276    0.7090071126
 C   -3.3769512405   -1.3017983470   -0.6465797794
 C   -2.1783843954   -0.8392553247   -1.0832104846
 H    1.1514454441    1.7345356653   -0.3721379335
 H   -0.2716627056    1.4464185302   -1.3952295088
 H   -0.4798410056    2.0492957535    0.2588696873
 H    0.6520090501   -0.6950742734   -0.5174044507
 H   -2.0251503998   -0.9601206939    2.2109333145
 H   -4.2803202117   -1.6114716348   -1.1452855197
 H   -1.8853922151   -0.6848291812   -2.1102233627