16

 O    0.0265080316    0.0485309286   -0.6987151675
 C   -0.0331468468    1.0952911569   -0.1185897724
 C   -1.3448078257    1.8474752963    0.1363131666
 N   -1.2890059985    2.8689116100    1.1740585970
 C   -0.7080724663    2.4149270166    2.4850708459
 C    0.5190228194    3.2880337006    2.2570415999
 C    1.0925601781    2.9728438538    0.9008058126
 O    1.1077987314    1.6600770896    0.3664233219
 C   -0.1518818114    3.7787581134    0.9655758564
 H   -1.6502207432    2.3156177427   -0.8071341903
 H   -2.1022569043    1.0952367325    0.3731119728
 H   -1.3375464993    2.7393387731    3.3173232153
 H   -0.5284373093    1.3363461906    2.5683102647
 H    1.0685103152    3.8432044878    3.0055337405
 H    2.0149115976    3.4838988566    0.6473826359
 H   -0.2881466784    4.7655990710    0.5368250307