17

 O    0.0844978770    1.4234178467   -0.3215117909
 C    0.1666439575    0.0628975984    0.0770191285
 C   -1.2213445552   -0.5838860528    0.0689261529
 C   -1.7158669711   -1.9718356934   -0.1196998546
 C   -0.9728539915   -3.1272052229    0.5693618734
 C    0.2641575344   -2.6832371964    1.2899017354
 C   -1.0967823461   -2.3303644472    1.8446613893
 N   -1.9310595984   -1.2409381030    1.1922570303
 H   -0.3821604033    1.9038831822    0.3701318987
 H    0.8288398410   -0.4143862951   -0.6521836475
 H    0.6301010794   -0.0235123933    1.0671796903
 H   -1.9145175898    0.1235284099   -0.3895729353
 H   -2.5625383222   -2.1701976847   -0.7714018648
 H   -1.2164268270   -4.1633336986    0.3780809155
 H    0.7377645004   -3.4771458353    1.8618590467
 H    0.9723959830   -1.9840259812    0.8697349029
 H   -1.4063838779   -2.6313920933    2.8368459894