17

 N   -0.1340375119    1.4136095506   -0.0467830755
 C   -0.0337230087   -0.0207557535    0.0020389193
 C   -0.5049280728   -0.7393198001   -1.2609130947
 C   -1.3314181856   -0.8019240688   -0.0168177877
 O   -1.3546937494   -2.0416579026    0.6479006933
 C   -0.4814223480   -2.0699185879    1.7273219248
 O    0.8750722438   -1.8502869150    1.3330309280
 C    1.1114175282   -0.6298260142    0.7542980326
 N    2.2325064622   -0.0484200010    0.8225337331
 H   -0.1607781299    1.7856342831    0.8997904595
 H    0.7254470530    1.7774728979   -0.4524338199
 H   -0.8307385732   -0.0905564470   -2.0643582593
 H    0.0021111960   -1.6524887147   -1.5484431058
 H   -2.2609951240   -0.2446405789    0.0449058374
 H   -0.7528164705   -1.3174462033    2.4840609321
 H   -0.5132087652   -3.0728077999    2.1541859044
 H    2.8844763759   -0.6005595745    1.3827059783