17

 C    0.0053916750    1.5446110762    0.0665430167
 C    0.0408819526    0.0454641434   -0.0019752642
 C   -0.8698697688   -0.8479320234    0.7899618721
 C    0.6179888604   -0.9726373794    0.9960875065
 C    1.2366811851   -1.7672012407   -0.1430757570
 O    0.8254636244   -3.1184814830   -0.1821877480
 C    0.6152270615   -0.7617770235   -1.1767041509
 H    0.9765150526    1.9809267043   -0.1955209649
 H   -0.7386269127    1.9566527597   -0.6264802180
 H   -0.2562840309    1.8898551087    1.0723669085
 H   -1.3999417690   -0.3652900630    1.6054499733
 H   -1.4196358516   -1.6545795229    0.3129642097
 H    1.0764725533   -0.8066057760    1.9639305463
 H    2.3325383506   -1.6922172952   -0.1378889751
 H    1.2167162910   -3.5277734153   -0.9606177497
 H   -0.1188321936   -1.1885057165   -1.8686504493
 H    1.3770537802   -0.2242648334   -1.7484090463