21

 O    0.1646971485    1.3401188880   -0.2612821954
 C    0.1184737183   -0.0605009495   -0.1066936503
 C   -1.2982389796   -0.5380019656    0.2062813499
 O   -2.1911731118   -0.0438246282   -0.8120510922
 C   -1.4023928980   -2.0574493051    0.3954246834
 C   -2.8337474655   -2.5601159595    0.2600881059
 O   -3.7877162458   -1.7767805376    0.9230773287
 C   -3.2731823982   -3.2437241485   -1.0181707361
 C   -3.1126860198   -4.0282224629    0.2714438746
 H   -0.6072934081    1.5660263762   -0.7957888496
 H    0.4776644254   -0.5806014858   -1.0145253780
 H    0.7984867058   -0.3257943653    0.7104752663
 H   -1.6401936993   -0.0333377666    1.1151540620
 H   -2.0837979719   -0.5961720828   -1.5956314778
 H   -0.7654717932   -2.5763512455   -0.3331039025
 H   -1.0092508713   -2.3016690722    1.3899438044
 H   -3.8288440884   -0.9436781520    0.4339956418
 H   -4.2851982252   -3.0481176275   -1.3542177780
 H   -2.5498859804   -3.4077209110   -1.8113847766
 H   -2.2775547069   -4.7148146467    0.3596633475
 H   -4.0181967345   -4.3419338820    0.7772688420