15

 C    0.4252117692    1.2405795571   -0.1141943181
 C   -0.2789402423   -0.0473186240    0.1944652185
 N   -0.7673277443   -0.4859456290    1.2651325584
 O   -0.4357005011   -0.8069950664   -0.9700772054
 C    0.0556100591   -2.0586660968   -1.0303292607
 O    0.7966827428   -2.5705830161   -0.2360876750
 C   -0.4305240175   -2.7625445018   -2.3200846524
 N    0.0755675223   -4.0152786883   -2.3888766557
 O   -1.1572101954   -2.2345892271   -3.1304081336
 H    0.4421941806    1.8968019171    0.7574453213
 H    1.4538536322    1.0362303965   -0.4300709794
 H   -0.0735272905    1.7499209697   -0.9442276099
 H   -0.6226144633    0.1776625362    2.0250686099
 H    0.6609519354   -4.3542096705   -1.6434095634
 H   -0.1695143474   -4.6062859765   -3.1646860046