21

 C    0.7094205265    1.2495402603    0.3809945499
 C   -0.0152872450   -0.0139101109   -0.0909964740
 C    0.6200006193   -0.6931608607   -1.3237835779
 C    1.5290955984   -1.8018517849   -0.7466247892
 C    3.0476610371   -1.4787484901   -0.6534869835
 C    3.3259374223   -1.4099134693    0.8273784479
 C    2.2469949819   -1.6565241423    1.5664251525
 C    1.0267207141   -1.9490560041    0.7249791571
 O   -0.0473416881   -1.0254577407    0.9178912499
 H    1.7735775935    1.0659090688    0.5502783768
 H    0.6085578562    2.0467127017   -0.3640171546
 H    0.2726626099    1.6008219186    1.3203221783
 H   -1.0629786854    0.2431452012   -0.2871292875
 H   -0.1649475033   -1.1382293997   -1.9416970218
 H    1.1670198047    0.0157713748   -1.9514233860
 H    1.3832551831   -2.7296590636   -1.3020492870
 H    3.6528533410   -2.2556293046   -1.1375543773
 H    3.3091370812   -0.5395841800   -1.1585448944
 H    4.3114171261   -1.1758646976    1.2177467378
 H    2.2030733264   -1.6537838041    2.6497075701
 H    0.6126403300   -2.9397640930    0.9489557931