20

 C    0.0873668682    1.6139848193   -0.0280030137
 C   -0.3080347157    0.1579121281   -0.2997477658
 C    0.7320899292   -0.5636133953   -1.1337886719
 O    2.0103504429   -0.6938750260   -0.4606537789
 C    2.1662154930   -2.0458027382   -0.9330931585
 C    0.6821653559   -2.0937094569   -1.3860408181
 C   -0.2249559263   -2.9146932529   -0.4807082269
 O    0.4428676013   -2.3694918262   -2.7506272010
 H    1.0507803381    1.6587308526    0.4875382079
 H    0.1799968216    2.1792366592   -0.9617349805
 H   -0.6583009092    2.1157333247    0.5957569032
 H   -0.4461742299   -0.3693625095    0.6505160658
 H   -1.2662105923    0.1190810048   -0.8341837645
 H    0.8607834011   -0.0511574638   -2.0996604181
 H    2.8636758229   -2.1151689722   -1.7783547416
 H    2.4805035572   -2.7271008542   -0.1333806332
 H   -0.0511209490   -2.6862241685    0.5741145816
 H   -1.2784256207   -2.7297589943   -0.7108599256
 H   -0.0258148389   -3.9851982954   -0.6197904786
 H    0.3276662705   -3.3198046952   -2.8550502517