20

 O   -0.2262163241   -0.0069769040   -0.1396731759
 C    0.0669663864    1.1300703353    0.1263109793
 C    1.3456428260    1.8188406720   -0.2864304980
 C    1.0705281873    3.0999806886   -1.0884254326
 N    2.3081322415    3.8479146680   -1.2557970210
 C    3.2512015422    3.5941358050   -2.3253859788
 C    2.5752282591    3.2535795909   -3.6684931115
 C    1.7807585998    4.5948699012   -3.5812765335
 C    2.4798066510    4.8932575883   -2.2396868632
 H   -0.6252861640    1.7728810767    0.7213424807
 H    1.8927853567    2.1014428856    0.6232668243
 H    1.9606961917    1.1161701032   -0.8553285813
 H    0.5735162982    2.8352689957   -2.0330307465
 H    0.3759934636    3.7426531174   -0.5330747501
 H    4.2795538376    3.3744438218   -2.0590963088
 H    3.2874787033    3.2516137880   -4.4959583988
 H    2.0006255420    2.3230996045   -3.7071440673
 H    2.0768452649    5.2980143180   -4.3624185171
 H    0.6882813316    4.5396876739   -3.5631082767
 H    2.7956590952    5.8718804899   -1.8935609034