18

 C   -0.0342818928    1.5853167355   -0.2443268821
 C    0.1220698581    0.0845386816   -0.1397107089
 O    1.3250184684   -0.4350279806   -0.7928585193
 C    1.6639413064   -1.1863732079    0.3725695389
 C    1.9749364837   -0.2712444335    1.5272579443
 C    0.5395951320   -0.5940810744    1.1693708219
 O   -0.3584884644   -1.2127742748    2.0264179241
 C   -0.6836319395   -0.5387053895    3.1598710501
 N   -1.5546343536   -1.0142275010    3.9353196869
 H    0.8102702796    2.1113143895    0.2087739928
 H   -0.0994111039    1.8848358897   -1.2948373638
 H   -0.9564497479    1.9022460812    0.2546394386
 H   -0.7539923207   -0.4323353958   -0.5514203779
 H    2.0312533021   -2.1979161951    0.2543637924
 H    2.3211190176   -0.7846101656    2.4196293746
 H    2.4096571611    0.7083078817    1.3516466941
 H   -0.1141984173    0.3900720539    3.2856319912
 H   -1.6757284490   -0.4019878548    4.7395363021