18

 C   -0.0912791411    1.4906125664    0.1380293942
 C   -0.0584377891    0.0169425841   -0.1130027603
 C    1.0136608983   -0.7866727523   -0.7584303324
 C    0.4532840309   -1.9506118133   -1.5475650285
 C   -0.7634507851   -2.2237295170   -0.6874190837
 C   -0.4381684128   -1.8691321889    0.7546100029
 N    0.7525082057   -0.9388040483    0.7156334303
 C   -1.2804344131   -0.9385034578   -0.0547995010
 O   -2.5970038132   -0.5757690598    0.1169570275
 H    0.9171814458    1.8653536807    0.3354507500
 H   -0.4952617794    2.0313862997   -0.7256743182
 H   -0.7193570519    1.7225790851    1.0042700997
 H    1.9752725214   -0.3463060111   -1.0014202096
 H    0.2008224473   -1.6647547243   -2.5750962465
 H    1.1454241379   -2.7987852711   -1.5823982098
 H   -1.4660258265   -3.0255287665   -0.8784349520
 H   -0.6284592059   -2.4857422716    1.6220444326
 H   -2.9956817991   -0.4449660637   -0.7509791753