17

 O   -0.6948703156    0.6760438320    0.0235967461
 C    0.2892958087    1.0234382902   -0.5698163400
 C    1.4312501171    1.8230768889    0.0627375193
 O    2.6248198305    1.0855835284   -0.1075596989
 C    3.5836423820    1.9380359154   -0.7359295080
 C    2.7142782028    2.9481464304   -1.4460381278
 C    3.1801076212    4.1725302524   -2.1497622370
 C    2.5510827052    3.0308161045   -2.9374929980
 O    1.5758501690    3.0587502576   -0.6142365959
 H    0.4554495226    0.8012821169   -1.6472132803
 H    1.2124860798    2.0203664457    1.1204124308
 H    4.2242870239    2.4144342249    0.0196603574
 H    4.1998493626    1.3347825826   -1.4064743321
 H    2.5876982121    5.0700401804   -2.0138185099
 H    4.2481539793    4.3422896621   -2.2374290473
 H    3.1902419491    2.4193981205   -3.5661235657
 H    1.5471601199    3.1880534070   -3.3152659726