14

 O   -0.0631678045    1.4262097305   -0.0087806934
 C    0.0255147949    0.0134999817    0.0082716107
 C    0.6898763099   -0.5601657064   -1.2567932202
 C   -0.0711888557   -0.1140995184   -2.5192973725
 C    0.5758833022   -0.5749528598   -3.7441031439
 N    1.1012090097   -0.9457419580   -4.7039200119
 C    0.7234660403   -0.4672067847    1.2168230128
 N    1.2995531160   -0.8232572801    2.1527812641
 H    0.8231881893    1.7916708310    0.0991042766
 H   -1.0123053070   -0.3367711690    0.0609738740
 H    1.7296433860   -0.2194228421   -1.3054530040
 H    0.7145295958   -1.6520918829   -1.1908448067
 H   -1.0981523491   -0.4978065686   -2.4997155144
 H   -0.1432031079    0.9777182871   -2.5385862213