21

 C   -0.5996503031    1.0055651506    0.7735862140
 C    0.0310979265   -0.3691765035    0.7410603179
 C    0.6205759547   -1.0330687328   -0.4367270702
 C    1.3937764930   -0.0631964383   -1.3295563626
 C    2.2825533220    0.2252674109   -0.0873675272
 C    2.5652761391    1.6199169746    0.4006963441
 C    3.6895495092    1.8323972480    1.3469892291
 N    3.7973111999    2.3039406050   -0.0430430272
 N    1.4747929023   -0.7073095926    0.7928991157
 H   -0.2797398591    1.6526166887   -0.0449391462
 H   -1.6873027315    0.8989330383    0.6978582298
 H   -0.3833839533    1.5156234214    1.7181088562
 H   -0.4817652854   -1.0639561580    1.4051795788
 H    0.3891285258   -2.0594174832   -0.7047811619
 H    1.9373549020   -0.5471482330   -2.1423976962
 H    0.8213654635    0.7708079946   -1.7469420328
 H    3.2514281131   -0.2740288957   -0.2119221447
 H    1.7195399604    2.2958763769    0.4668008842
 H    3.6296322736    2.6180935153    2.0943677148
 H    4.2620356115    0.9598585953    1.6516092982
 H    4.3732465757    1.6562627174   -0.5777155239