17

 C    0.0875994884    1.5269347400    0.2263427502
 O    1.4768787434    1.5284668765   -0.2969077068
 C    1.1612195414    0.2704083693   -0.9077011377
 C    0.3071818444    0.1261429693   -2.1832820565
 C   -0.1772514091   -0.9800251202   -1.2265949311
 C    1.3620623207   -1.2841592437   -0.8200478768
 C    1.3409012877   -1.6507810783    0.6503178742
 O    0.3738907479   -0.7139159781    1.1506017511
 C   -0.0267705102   -0.0042882777   -0.0097373278
 H    0.0596622116    1.8105120138    1.2789034638
 H   -0.5563112920    2.1725454392   -0.3750407976
 H   -0.4028773649    0.9273106529   -2.3972968189
 H    0.8229147916   -0.1989427264   -3.0885196988
 H   -0.9228204717   -1.7533534483   -1.4205391152
 H    2.0065599364   -1.8355488251   -1.5067406329
 H    1.0079570693   -2.6805606849    0.8296984176
 H    2.3046104850   -1.4972539183    1.1501711433