18

 N    0.0637243951    1.1254197671   -0.5214815787
 C    0.0005684335   -0.0445402353   -0.0770757348
 O    1.0035231783   -0.8441807334    0.4943292589
 C    0.0397805887   -1.9263824470    0.6737518451
 C   -0.6838507021   -1.9961172240    2.0408147847
 C   -1.8713150524   -1.1743392177    1.4039574456
 C   -1.0717848116   -1.1019205495    0.0647934458
 C   -1.2359877567   -2.1518220563   -1.0791453095
 C   -0.0445143648   -2.9797438905   -0.4579248330
 H    1.0066055457    1.5088634568   -0.4311795391
 H   -0.9426731207   -3.0026194986    2.3775517854
 H   -0.1433453775   -1.4865277418    2.8403026186
 H   -2.8025922881   -1.7385660459    1.3174041496
 H   -2.0917030352   -0.2120494020    1.8688844590
 H   -2.1967729419   -2.6706505350   -1.0503373487
 H   -1.0789730556   -1.7702111110   -2.0893179501
 H    0.8573393657   -3.0260844220   -1.0707224339
 H   -0.3004927506   -3.9906058638   -0.1322553850