15

 O    0.1013415112    1.3585448558    0.4397901772
 C    0.0689194982    0.0532180951    0.0983562317
 C    0.0672477728   -0.6089490472   -1.1126520939
 C    0.0229031676   -1.9715169153   -0.7282679855
 N    0.0019422062   -3.1071439216   -1.5305688990
 C    0.0189604401   -3.1730756426   -2.8970439092
 N    0.0586206730   -2.1514866802   -3.6623497622
 N   -0.0007473808   -2.1463383141    0.5891591983
 N    0.0288263035   -0.8717491350    1.0778824444
 H    0.1266300582    1.8834478630   -0.3664170725
 H    0.0927204649   -0.2147466906   -2.1114793483
 H   -0.0298713242   -3.9738038722   -1.0180950074
 H   -0.0059964592   -4.2146774836   -3.2389496903
 H    0.0635001279   -2.4501023939   -4.6342982867
 H    0.0195464307   -0.7114428278    2.0694473234