15

 O   -0.1251109649   -0.0520533324    0.2299208573
 C   -0.0392486342    1.1487600785    0.1061446838
 C    1.1999733116    1.8791020282    0.0550715787
 C    2.2189025518    2.5271476972    0.0051454638
 C    3.4453305041    3.2893747086   -0.0608869946
 C    4.1530769061    3.4525732116   -1.4722105180
 C    4.0243588908    4.9704278739   -1.3016109281
 O    2.6286277586    5.2596944751   -1.1628833924
 C    3.3409363836    4.8353749778   -0.0072260007
 H   -0.9428450688    1.7861802967    0.0204695271
 H    4.1656524070    2.9185228936    0.6749478988
 H    5.1795669775    3.0826636969   -1.4526105626
 H    3.6184330935    3.0360492922   -2.3268123467
 H    4.6600642133    5.7579255943   -1.6870623122
 H    3.3110984899    5.4696619879    0.8706356560