18

 O   -0.0479140503    1.4143314179   -0.1502632849
 C    0.0238178880    0.0026058594    0.0091241684
 C   -1.3813826951   -0.5378724132    0.0022514626
 C   -2.3074923792   -0.5118713698   -1.2676358969
 C   -3.0990617358   -1.5678656828   -0.4217835361
 C   -1.6924318185   -2.0757984269    0.0471944528
 C   -3.4963564613   -0.7063327885    0.7875141843
 C   -2.3777244046   -0.0330939654    1.0636819732
 H    0.8474751182    1.7646423823   -0.1328489750
 H    0.6064388131   -0.4613166667   -0.8030577606
 H    0.5161238068   -0.2661425872    0.9590664666
 H   -2.8092678432    0.4287638723   -1.5007947845
 H   -1.8284832070   -0.9340272213   -2.1580544151
 H   -3.8413033020   -2.2334998135   -0.8608132918
 H   -1.1577132761   -2.6478030026   -0.7192315220
 H   -1.6333044477   -2.5724069622    1.0189024530
 H   -4.4656394331   -0.6758983260    1.2647336653
 H   -2.1667567223    0.7104379146    1.8184366705