23

 C    0.2681389257    1.8114838654   -0.4261047684
 C    0.3167170383    0.3098192765   -0.2442642617
 C    1.5751762621   -0.5331223258   -0.4074690509
 C    2.8729675535    0.1664133652   -0.1870844979
 C    3.0034761280    0.5872317082    1.0730504168
 C    1.8460427037    0.1509632778    1.9618862390
 C    2.3269501714   -0.9633900600    2.9172960006
 C    1.2590822490    1.3023200462    2.7996777759
 C    0.8650318685   -0.4562273773    0.9406683932
 H    1.2029831314    2.2945024064   -0.1355254305
 H    0.0812194028    2.0562798493   -1.4781365434
 H   -0.5421959593    2.2554581896    0.1625405332
 H   -0.5615579322   -0.1829571920   -0.6584627333
 H    1.5371566482   -1.4084671168   -1.0478290090
 H    3.5923837016    0.3347472937   -0.9813773232
 H    3.8348097025    1.1661680157    1.4634164333
 H    3.1195441434   -0.5972979695    3.5789316303
 H    1.5016091164   -1.3174149779    3.5466456992
 H    2.7211589774   -1.8155255899    2.3559853185
 H    0.9297355487    2.1376642282    2.1792274828
 H    0.3991142659    0.9550351307    3.3824704106
 H    2.0044682025    1.6827427566    3.5075832015
 H    0.2667996707   -1.2922750501    1.2895588634