16

 C    0.1429431798    1.5431201808   -0.1623435336
 C   -0.0422454789    0.0282196347   -0.0710192922
 O    0.6303099645   -0.6404836095   -1.1440168362
 C    1.5721337433   -1.5907137598   -0.6451190315
 C    1.4457803904   -1.5110858066    0.8493094462
 C    0.5415243999   -0.5964720762    1.1787523197
 C   -1.5293161716   -0.3541404292   -0.1504779150
 O   -2.4333962036    0.3167556234    0.2709180892
 H    1.1879418811    1.8095839845    0.0126421207
 H   -0.1497432362    1.8936232499   -1.1557842761
 H   -0.4902011923    2.0398728775    0.5765862701
 H    1.3356977631   -2.5909202960   -1.0377703813
 H    2.5850209309   -1.3371433847   -0.9947648737
 H    2.0387377457   -2.1110118095    1.5280835382
 H    0.2267962313   -0.3029230118    2.1714448159
 H   -1.6890838374   -1.3469796275   -0.6272996004