17

 O   -0.1219702123    1.3453324225   -0.5247362633
 C   -0.3206176166   -0.0336663549   -0.5533735352
 C   -1.4384411654   -0.4625635322    0.3753970396
 O   -2.0602009610    0.3733718269    0.9966358266
 C   -1.7738111747   -1.9409440563    0.4636744466
 C   -3.1664277069   -2.1956872400   -0.1636993754
 O   -3.1848217778   -1.7992961397   -1.5324470353
 C   -3.5786240419   -3.5876350785    0.0082296162
 C   -3.8796742547   -4.7464358336    0.1151764737
 H   -0.8171318449    1.6874036342    0.0601684002
 H   -0.5978842476   -0.3942522336   -1.5601814388
 H    0.5975007587   -0.5764268915   -0.2718334507
 H   -1.0242952269   -2.5539876953   -0.0471003848
 H   -1.7973610181   -2.2289598229    1.5192841615
 H   -3.8784410702   -1.5324846508    0.3401851870
 H   -2.8420643406   -2.5323581236   -2.0556486596
 H   -4.1686145392   -5.7636315907    0.2183221017