18

 N    0.0004906445   -1.1324481567    0.0229383990
 C    0.0017570409    0.0243531349    0.0261623140
 C   -0.0089668769    1.4715631015    0.0441267744
 C   -0.9196005101    2.1615360606    1.0720811033
 C   -0.6147238629    3.6465049197    0.7350222949
 C    0.3909203261    3.4589110043   -0.3979372071
 C    1.3463993228    2.2673745694   -0.0619328752
 C    1.4248138705    1.9259419575   -1.5681482014
 C   -0.0602484779    2.2724737298   -1.3114053070
 H   -1.9690061072    1.8930173406    0.9234731312
 H   -0.6495462702    1.8881564763    2.0956851385
 H   -1.5047647555    4.1934606396    0.4101507901
 H   -0.1848053970    4.1885379528    1.5825202489
 H    0.8191731352    4.3404892104   -0.8764679381
 H    2.1449417969    2.2490845312    0.6814162221
 H    1.9827973894    2.6268098364   -2.1934598853
 H    1.6543696211    0.8909963860   -1.8308067365
 H   -0.8926444298    2.2600952657   -2.0167680659