19

 C   -0.0127453009   -1.2398297620    0.0013981259
 C   -0.0030941587   -0.0377102530    0.0154882818
 C    0.0061350929    1.4229772691    0.0498271300
 C   -0.8226544235    1.9836104044    1.2313437376
 C   -0.5630976405    3.4802821565    1.3748708020
 O    0.7828489645    3.7330964009    1.7494684874
 C    1.7410138144    3.2141680464    0.8705303595
 C    2.3607436333    1.8851306152    1.2184960171
 C    1.4256572627    1.9959666145    0.0366340297
 H   -0.0188847737   -2.3014236953   -0.0178810206
 H   -0.4799956421    1.7833703610   -0.8683398956
 H   -1.8850977321    1.7883792964    1.0552124765
 H   -0.5482739819    1.4806063871    2.1642676378
 H   -0.8112119541    4.0009941791    0.4348526778
 H   -1.1760392730    3.9118927225    2.1709171402
 H    2.3696656100    3.9889465301    0.4368176782
 H    3.4146472978    1.7218764136    1.0222250092
 H    1.9891140569    1.4122413586    2.1208145223
 H    1.8983147479    1.9519232547   -0.9396673468