19

 C   -0.0291596587    1.5130741975    0.0635066232
 C    0.0135249919   -0.0036944500    0.0208972380
 C    0.5989045381   -0.6646693902   -1.2345967691
 C    0.2027184484   -1.9389360986   -1.2586500961
 C   -0.6555095065   -2.1776124210   -0.0129064651
 C    0.2316405757   -1.9893975673    1.2267267918
 C    0.6295927133   -0.7146621599    1.2406793401
 C   -1.3732003263   -0.7740467399    0.0037914070
 O   -2.2510028343   -0.5096053211    1.0531937684
 H    0.9745141146    1.9395702436    0.1676913733
 H   -0.4718727898    1.9207672654   -0.8511514748
 H   -0.6334799493    1.8580219540    0.9082282985
 H    1.2149914805   -0.1418437830   -1.9550828996
 H    0.4227974892   -2.6933721565   -2.0019181684
 H   -1.2907326933   -3.0629060181   -0.0225062852
 H    0.5074246092   -2.7810352435    1.9109461324
 H    1.3004516741   -0.2331306384    1.9412885531
 H   -1.9283656555   -0.5845480105   -0.9177480887
 H   -1.7689889311   -0.6909723025    1.8720706012