19

 C    0.2957461934    1.4813534478    0.0564187773
 O    1.1447938330    0.3986468539   -0.3220974613
 C   -0.2183169021    0.1042010525    0.0099313608
 C   -0.4616782098   -0.6997812641    1.2378577489
 C    0.4008147988   -0.5217769572    2.5201664189
 C    0.0494328332   -1.9738139009    2.8304684295
 C   -1.4011029771   -2.2051009094    2.3748728146
 C   -1.9075590166   -0.8900823958    1.7893162201
 C   -0.2631833361   -2.2746591367    1.3868371938
 H    0.5226875287    1.9374942476    1.0186905844
 H    0.0402856102    2.1790068575   -0.7401114934
 H   -0.8257139003   -0.1737007784   -0.8539165771
 H    1.4571215415   -0.4092615282    2.2643627964
 H    0.0969035767    0.2612930984    3.2257022949
 H    0.5160131110   -2.6321767511    3.5517783411
 H   -1.9842578164   -3.0269696026    2.7696904432
 H   -2.2911152010   -0.1129208176    2.4614334910
 H   -2.6265950329   -1.0661059432    0.9831604578
 H    0.0782977758   -3.0460358225    0.7123390691