21

 C    0.0013770551    1.6907715067    0.2445960571
 C    0.0401160044    0.1708476064    0.0697540828
 C   -1.3530995464   -0.4695219171   -0.0797027831
 C   -2.0791530533   -0.2235046111   -1.3791846965
 C   -2.4821334244   -1.3488653398   -1.9720511075
 C   -2.1156619758   -2.5892479572   -1.1969312969
 C   -1.3513775845   -3.6729648837   -1.9708407064
 C   -1.2888928485   -2.0089067331   -0.0334946591
 O   -0.6566635171   -2.6558554433    0.7617924313
 H    1.0107588036    2.0955000705    0.3669949461
 H   -0.4497570694    2.1890622816   -0.6200960218
 H   -0.5798223200    1.9716623120    1.1300373243
 H    0.6474979698   -0.0887180106   -0.8060756718
 H    0.5238154349   -0.2967830374    0.9341106641
 H   -1.9637761754   -0.1404915411    0.7769415715
 H   -2.2522978165    0.7738244651   -1.7677608313
 H   -3.0247017966   -1.3959969504   -2.9102185635
 H   -3.0134282578   -3.0532687158   -0.7590146842
 H   -0.4683135279   -3.2530274918   -2.4625325749
 H   -1.0197582029   -4.4552997672   -1.2832408483
 H   -1.9843175614   -4.1267123426   -2.7392748419