16

 C   -0.1955876776   -1.1929443239    0.0945852037
 C   -0.0797142666    0.0035988342    0.0684687007
 C    0.0336690072    1.4345088228    0.0536971751
 C    0.4855437529    2.2490889090    1.2475865543
 C    1.5548306582    1.4846313689    2.0359960487
 C    2.4795329804    1.5306078590    0.7618709882
 C    3.0822560929    0.3036096946    0.2536802717
 N    3.6001165166   -0.6526644328   -0.1382317384
 C    1.3379064847    2.2057278620   -0.0168247814
 H   -0.2701394488   -2.2523434576    0.0991899422
 H   -0.7462600383    1.9353220626   -0.5156539197
 H   -0.1211668016    3.0581840197    1.6336391132
 H    1.9841073388    2.0453095948    2.8665973364
 H    1.2646577421    0.4886025913    2.3749833866
 H    3.2849090257    2.2514452754    0.9265511940
 H    1.4905334633    2.9577749800   -0.7809073153