17

 C    0.0016813827    1.5480788539   -0.1050909310
 C   -0.0327661698    0.0311962933    0.0982921693
 N   -1.3736769460   -0.5237250546    0.0403390052
 C   -2.1179726998   -0.9618999491    1.0846667251
 N   -3.3157234744   -1.3707957724    0.7151333232
 C   -3.3567196265   -1.1810306347   -0.6427635780
 N   -4.5270024173   -1.4627269951   -1.3546824165
 C   -2.1676506901   -0.6540807865   -1.0926170002
 H    1.0317832593    1.9129701534   -0.0468535316
 H   -0.4033401114    1.8229948290   -1.0828764624
 H   -0.5905463744    2.0547782415    0.6620945931
 H    0.5861508696   -0.4675132808   -0.6564481330
 H    0.3828236841   -0.2303765185    1.0760516190
 H   -1.7338370162   -0.9687529505    2.0944534938
 H   -5.1177113121   -2.0906199190   -0.8244210376
 H   -4.3574951476   -1.8392042388   -2.2776996797
 H   -1.8162374501   -0.3690371610   -2.0696777587