19

 C   -0.6018279497    1.0181739277    0.0086784723
 N    0.4068867330   -0.0253899711   -0.1987781109
 C    0.8936777007   -0.6481300006    0.9850919291
 C    1.6939241573   -0.1859689835    2.0150584412
 N    1.8805284472   -1.2111944153    2.8999629687
 C    2.5656033301   -1.1086931857    4.1681356207
 C    1.1963399228   -2.3355419699    2.4668147988
 C    0.5859309885   -2.0061993252    1.2803742075
 O   -0.1667810342   -2.8017184693    0.4791164356
 H   -0.2478388767    1.8681731497    0.6129951119
 H   -0.9350197390    1.3989875962   -0.9623074148
 H   -1.4657598514    0.5841119824    0.5200902891
 H    1.1657019514    0.3354503485   -0.7659351599
 H    2.1453366566    0.7790810438    2.1853716309
 H    1.8676539368   -0.9628352527    5.0019528878
 H    3.1448688873   -2.0175285280    4.3566229757
 H    3.2554425450   -0.2622053895    4.1396722149
 H    1.2191496361   -3.2553401408    3.0262583163
 H   -0.3633152518   -2.2490204067   -0.2933683348