16

 O    0.0595166685    0.0165609761   -0.0880348414
 C    0.0587481019    1.2063694555   -0.1690000266
 O    1.0848822571    1.9667411363    0.2788277430
 C    0.9537529990    3.3651774565    0.1821149587
 C    0.3004527435    4.3502769067    1.1363692246
 N    0.8989240253    5.2727615601    0.0748764578
 C    2.1315190064    4.3358022426   -0.0618984989
 C    1.9930694138    4.3092122628   -1.5878637006
 C    0.5613502596    4.2553923458   -1.0419244923
 H   -0.7555446177    1.8053909896   -0.6161823333
 H   -0.7918320576    4.3889112320    1.1820201635
 H    0.7440799608    4.4803917028    2.1271139960
 H    3.0062778392    4.4820146338    0.5717554971
 H    2.2702452755    5.2268410541   -2.1109284044
 H    2.3618450656    3.4186133629   -2.0997550872
 H   -0.3981674910    4.3106445123   -1.5573622261