17

 C   -0.2676456381    1.0495683211    0.7316509125
 C    0.0809637926   -0.1988463486   -0.0815157010
 N   -0.9830086171   -1.1897221653   -0.0769025410
 C   -1.7235483651   -1.4767402217   -1.1744747862
 O   -1.5660073996   -0.9687895876   -2.2692423408
 C   -2.8312254063   -2.5372698890   -0.9805311646
 C   -2.9832370298   -3.0967845102    0.3536135087
 C   -3.0870531054   -3.5442933428    1.4654944088
 H    0.5637338144    1.7612351442    0.7114299933
 H   -1.1537219461    1.5430425702    0.3222619156
 H   -0.4696541192    0.8002466869    1.7790897650
 H    0.2512430182    0.0582472591   -1.1290830620
 H    0.9994331429   -0.6577191880    0.3046480484
 H   -1.2187358673   -1.6590365819    0.7845735849
 H   -3.7642701319   -2.0658474674   -1.3089138927
 H   -2.6244086391   -3.3295720649   -1.7087811004
 H   -3.1955800533   -3.9510990241    2.4406063515