19

 O    0.6893242081    0.2749718884   -0.7726521587
 C   -0.1824370758    0.2912598947    0.3574430968
 C   -1.4325515586   -0.5522721573    0.1042188245
 O   -2.2916935910   -0.3527048166    1.2234845020
 C   -2.2090415459   -0.4374798416   -1.2477335234
 C   -2.2631152963   -1.9702755484   -1.3212371565
 C   -0.8796262065   -2.5273967959   -1.4369647505
 O    0.1392295826   -1.9911446879   -2.2143105490
 C   -1.3321174402   -2.0708327196   -0.0775000801
 H    1.5715351595    0.5342724393   -0.4935736088
 H    0.3184064655   -0.0976175020    1.2535659386
 H   -0.4922235123    1.3274732312    0.5670447556
 H   -2.6309227229    0.5485449323    1.1802173065
 H   -3.1793581251    0.0413860836   -1.1012833934
 H   -1.6812990086    0.0417325162   -2.0767730826
 H   -3.1519594857   -2.5465764007   -1.5482551469
 H   -0.8738418622   -3.6144143990   -1.5050441861
 H    0.4810045907   -1.1964293192   -1.7748778922
 H   -1.3859521653   -2.7391298173    0.7752561542