17

 O   -0.0433101254    1.4190096900    0.0634703788
 C    0.0405796340    0.0349307655    0.0268868630
 C    0.6662311787   -0.9666006597    1.0110182968
 N    0.0201005884   -1.8789474155   -0.0313471730
 C   -1.1818221559   -0.9020729436   -0.0301806606
 C   -1.7826400335   -0.9350991230   -1.4275778797
 C   -0.4684895552   -0.9352479353   -2.2577284264
 C    0.5339698516   -0.9066767050   -1.1138812988
 H    0.8481625685    1.7839630005    0.0355492370
 H    1.7563691648   -1.0539170251    1.0486946488
 H    0.2258194983   -1.0594728234    2.0075370894
 H   -1.8389929020   -0.9922841118    0.8364354490
 H   -2.3837558282   -1.8341673298   -1.5865104991
 H   -2.4128439007   -0.0624137618   -1.6186015285
 H   -0.3566182980   -1.8303509144   -2.8752824433
 H   -0.3695560070   -0.0590492683   -2.9047626602
 H    1.6001109918   -0.9965244092   -1.3337954631