20

 O   -0.4657196312    0.5019677958    0.7098039378
 C   -0.3410826931    1.6300962107    0.3082284708
 C    0.9620825255    2.3868173250    0.2254581059
 C    1.2422736464    2.8985900299   -1.2021733378
 C    2.4869133780    3.7704857669   -1.2324809010
 C    2.7930337835    4.8302652436   -2.3238329036
 C    1.7144889336    5.6894624348   -1.6318182226
 N    2.4699959818    5.0964458516   -0.4251174597
 C    3.7273470657    5.4308055272   -1.2513842371
 H   -1.2268134240    2.2092583833   -0.0486554004
 H    0.8956381602    3.2571292343    0.8930149008
 H    1.7673654307    1.7413775554    0.5879076986
 H    1.4043844727    2.0465168182   -1.8740892988
 H    0.3607085772    3.4252235599   -1.5812587275
 H    3.3502752241    3.1616130452   -0.9374420812
 H    2.9777295392    4.6812473301   -3.3936598524
 H    1.8103636426    6.7761428367   -1.7021181732
 H    0.6664955876    5.3966351496   -1.7001196048
 H    4.6110612158    4.8597883053   -0.9534389078
 H    3.9388885638    6.5019678466   -1.2969658463