17

 C   -0.1019639303    1.4664637147   -0.0645112295
 C   -0.0176365582   -0.0548144655    0.0544630523
 C   -1.3832739487   -0.6947933375    0.2945724737
 C    0.8952652136   -0.7320910592   -1.0310104825
 O    1.8343484993   -1.1441341561    0.0045652258
 C    1.0728389368   -0.5433066361    0.9973730604
 N    1.2647640036   -0.4537272966    2.2283539149
 C    0.3595430319   -1.8652920684   -1.7761217769
 N   -0.0831245999   -2.7452029668   -2.3800692629
 H    0.8806889487    1.9141665457   -0.2408422177
 H   -0.7669681796    1.7532193354   -0.8855411793
 H   -0.4998443387    1.8870898376    0.8629166692
 H   -2.0766515599   -0.4427912282   -0.5138263283
 H   -1.3182315682   -1.7835126163    0.3619981062
 H   -1.7967103947   -0.3205241641    1.2349258432
 H    1.3711408030   -0.0306506535   -1.7221529337
 H    2.1284549411   -0.9114482750    2.5226189950