17

 C   -0.7909109650    1.4567808942    0.4211439962
 C   -0.2815982760    0.0829477049    0.1248907309
 C    0.2401128545   -0.4090751775   -1.0484767735
 C    0.4473746376    0.2055809468   -2.4057408588
 C    1.5440375661   -0.4073797640   -3.1526432955
 C    2.4295497479   -0.9527793460   -3.7556894800
 N    0.5355362371   -1.7317016898   -0.7898197266
 C    0.2000441909   -1.9751138435    0.5060821305
 N   -0.2998032426   -0.9093342468    1.0854693177
 H   -0.5172350159    2.1675209293   -0.3644146731
 H   -1.8831693378    1.4695511290    0.5147631203
 H   -0.3828389985    1.8203656538    1.3691774026
 H   -0.4691173203    0.1335847227   -3.0102784650
 H    0.6379169596    1.2785765992   -2.2855414559
 H    3.2224645732   -1.4051339694   -4.2985153239
 H    0.9969076310   -2.3535377846   -1.4341568913
 H    0.3476505180   -2.9395645583    0.9688757656