19

 C   -0.4380151758    1.5795634910    0.0346933345
 C    0.0119855773    0.1187279868    0.0702287752
 N    1.3336974779   -0.1427650404   -0.5562647980
 C    1.6932704996   -1.1166364318    0.5057657270
 C    0.5792887643   -0.5146281779    1.3960411616
 C    1.0830172432    0.4737146275    2.4342942203
 O    1.7225815790   -0.2983730542    3.4395111503
 C   -1.0531567209   -0.7388025423   -0.4842462110
 N   -1.8678891952   -1.4157263203   -0.9493483601
 H    0.3509126121    2.2232069236    0.4274467673
 H   -0.6426138944    1.8819869983   -0.9965592601
 H   -1.3520973733    1.7250755497    0.6178855517
 H    1.3036893535   -0.5006321720   -1.5053954830
 H    1.5047251405   -2.1650752484    0.2458860102
 H    2.7171125313   -1.0162874927    0.8759137943
 H   -0.0814569391   -1.2348220848    1.8793160624
 H    1.7843330255    1.1832413597    1.9703383406
 H    0.2420466623    1.0525209178    2.8475572537
 H    2.1143243023    0.3029020806    4.0795658230