22

 C   -0.0542292894    1.5950209405   -0.0514255770
 C    0.0028669506    0.0739069164    0.1072824328
 C   -1.3583520590   -0.5935491421   -0.0835428247
 C   -1.3337150477   -2.1110735511    0.0281099389
 O   -0.2977558640   -2.7315362957    0.1193012277
 C   -2.6930349859   -2.8201074974    0.0472875373
 C   -2.6315180603   -4.1480972508   -0.7146228934
 C   -3.1027092003   -3.0345474315    1.5191853923
 H    0.9335483308    2.0442447739    0.0899670000
 H   -0.4085021674    1.8796432226   -1.0487779610
 H   -0.7326760723    2.0490228566    0.6799575097
 H    0.7105374917   -0.3569466874   -0.6084142702
 H    0.3916843436   -0.1868678124    1.0980403972
 H   -2.0985186191   -0.2044948439    0.6305557052
 H   -1.7761469462   -0.3522156119   -1.0734786059
 H   -3.4333429608   -2.1583088827   -0.4198545693
 H   -1.8398905926   -4.7796393238   -0.3040036711
 H   -3.5839057740   -4.6817403042   -0.6383510806
 H   -2.4145544160   -3.9897830775   -1.7756041640
 H   -3.1577469452   -2.0904695562    2.0710987406
 H   -4.0854478428   -3.5126203173    1.5745790613
 H   -2.3776264237   -3.6804736240    2.0240378042