20

 C    0.0872727589    1.4213518875   -0.2551158640
 C   -0.0981324805   -0.0974237968   -0.2089885296
 C   -1.5520747661   -0.5427203592    0.0376376995
 C   -2.4836932656   -0.3879611841   -1.2150663105
 C   -2.2371436822   -1.8803073254   -1.5599844112
 C   -1.7506972875   -2.1109893106   -0.1192438152
 O   -0.6314617874   -2.9426596547   -0.0066729381
 C   -2.0678124549    0.0042103348    1.2853436717
 N   -2.4878343797    0.4052922482    2.2864696172
 H    1.1346835051    1.6716772550   -0.4466633036
 H   -0.5129520561    1.8788932653   -1.0483786126
 H   -0.2029313532    1.8854260469    0.6922635346
 H    0.2382018714   -0.5497127188   -1.1473561516
 H    0.5333794307   -0.5279277172    0.5753082648
 H   -3.5181592651   -0.1838870036   -0.9340131393
 H   -2.1655985925    0.3546752389   -1.9485108303
 H   -3.0882296848   -2.4737105299   -1.8969897070
 H   -1.4131548991   -2.0126304150   -2.2651487592
 H   -2.5698456642   -2.4413641473    0.5311973521
 H   -0.4936844871   -3.1583383740    0.9214456824