22

 N    0.1143064422    1.2743732505    0.2423799997
 C    0.2039477599   -0.0656887495   -0.0083319372
 O    1.2697820714   -0.6133130293   -0.2173979525
 C   -1.1366498202   -0.8010672759   -0.0435989183
 C   -0.9956498651   -2.3061507194    0.1695244512
 C   -0.5801879131   -2.7275746966    1.5893441713
 C   -0.8751097786   -4.2408807071    1.6323924400
 C   -2.0439760092   -4.4705121148    0.6264003207
 C   -2.2964097473   -3.0998474467   -0.0483153516
 H    0.9632818130    1.8148914879    0.2661730784
 H   -0.7558484873    1.7255163315    0.4617360784
 H   -1.8224826752   -0.3692267465    0.6976948391
 H   -1.5852796230   -0.6005017218   -1.0266981522
 H   -0.2297758362   -2.6670861935   -0.5274469325
 H    0.4617849893   -2.4855378468    1.8105783011
 H   -1.2056183981   -2.1977518042    2.3218312319
 H    0.0097413100   -4.8020917016    1.3155179337
 H   -1.1188716451   -4.5856682015    2.6410699518
 H   -1.7653184104   -5.2222692121   -0.1181229435
 H   -2.9450329798   -4.8436352456    1.1212393748
 H   -3.1252531062   -2.5799833683    0.4506558134
 H   -2.5682609811   -3.1887498987   -1.1048562877