15

 C   -0.0123950200    1.4965399396    0.0003615198
 C   -0.0189722750   -0.0085403481    0.0077302706
 O   -0.0335094766   -0.6894255029    1.0107094692
 C   -0.0018397482   -0.6995290033   -1.3244578326
 N    0.0109713091   -0.1116620496   -2.4645422717
 C    0.0246992739   -1.1862441011   -3.4596125555
 C    0.0158388933   -2.5133136896   -2.6797704726
 O    0.0223332947   -3.6489022099   -3.0779486679
 N    0.0008311401   -2.0845485168   -1.3552627861
 H    0.8879750862    1.8625933223   -0.5030898770
 H   -0.8609988051    1.8735981335   -0.5781700791
 H   -0.0512670915    1.8654645198    1.0252238512
 H   -0.8466072479   -1.1171564225   -4.1202173076
 H    0.9128137490   -1.1155550711   -4.0973203185
 H   -0.0097118923   -2.6685118002   -0.5337925622