14

 O    0.1366885479    1.3914646578    0.3727247602
 C    0.0373688069    0.0634672108   -0.0953843967
 C   -1.3771526939   -0.4804176261   -0.0165097836
 C   -1.5917233082   -1.9467766445    0.1928428345
 N   -1.9340807665   -1.0108158139    1.2534754996
 C   -2.3988232917    0.2818287051   -0.7892274189
 O   -2.1418869679    1.2570367446   -1.4570833103
 H   -0.3779016248    1.9280674130   -0.2432839503
 H    0.3927799668   -0.0277535609   -1.1331689257
 H    0.6977003232   -0.5454089477    0.5329998376
 H   -2.4358104903   -2.4487944749   -0.2727336938
 H   -0.6931574372   -2.5534960461    0.2789398685
 H   -1.2097515476   -0.9780613506    1.9675031589
 H   -3.4357108466   -0.1034957766   -0.6913762799