19

 C    0.0247932388    1.5561310000    0.1806162123
 C    0.0233741376    0.0633746923    0.0315344510
 C    0.0154066375   -0.5666631834   -1.1590410918
 C    0.0558935949   -2.0859997538   -1.2544821975
 O    0.3848746456   -2.7225717131   -0.0410183890
 C   -0.3509420736   -2.2003938914    1.0495497689
 C    0.0354649757   -0.7448774866    1.3064997786
 C   -0.0450258317    0.1061112767   -2.4095279873
 C   -0.0970409399    0.6007531658   -3.5082601174
 H    0.8831779186    1.8821909661    0.7824455307
 H    0.0654781035    2.0624179814   -0.7851247510
 H   -0.8733169773    1.8941602613    0.7138240413
 H   -0.9151700347   -2.4491077753   -1.6365624054
 H    0.8189413286   -2.3874641576   -1.9793017954
 H   -1.4334270111   -2.2731091242    0.8519866841
 H   -0.1216666958   -2.8334926219    1.9110420616
 H    1.0338780857   -0.6961256483    1.7639782935
 H   -0.6545807942   -0.2981309399    2.0348797662
 H   -0.1443002280    1.0550527619   -4.4667072835