20

 C   -0.1243453477    1.5030181880    0.1346732311
 C    1.4352561809    1.6218933988    0.0040901237
 C    1.5004271974    0.0915849665   -0.1661585184
 N    0.9063853080   -0.4529484942    1.0862503531
 C    0.0175661341   -0.0129354320   -0.0185175622
 C    2.4701231643   -0.7072872627   -0.9691038961
 C    2.8835690488   -0.2091886997   -2.3772794586
 O    4.2800402128   -0.2273026094   -2.0260898975
 C    3.9825651866   -0.5597549527   -0.6557457605
 H   -0.5631269603    1.8358056364    1.0782085493
 H   -0.6477915461    1.9734031876   -0.7004787831
 H    1.7365107799    2.1758021067   -0.8875317159
 H    1.9695204762    2.0113273733    0.8735245623
 H    0.9700422986   -1.4701829407    1.0269897944
 H   -0.6814786371   -0.7084457653   -0.4687883731
 H    2.1519313808   -1.7545691767   -0.9856585251
 H    2.6582834031   -0.8818318485   -3.2131305616
 H    2.5362865036    0.8006623338   -2.6324008376
 H    4.2259020988    0.2627691415    0.0296707996
 H    4.5054524573   -1.4651444207   -0.3268521237