19

 O   -0.0594420338    1.3780663487   -0.0501159492
 C    0.0429339924   -0.0296284584   -0.0049872700
 C    0.1662008475   -0.6199375880    1.4448104047
 C   -1.3861257781   -0.4605920229    1.5346931433
 C   -1.3821393464   -0.6365795602   -0.0113790559
 C   -1.3116518279   -2.1220828533   -0.3830092227
 O   -1.0475843576   -2.1884377748   -1.7874926426
 C   -0.2332688197   -2.8047941169    0.4344205825
 C    0.4801300605   -2.0895160678    1.3060807879
 H    0.8163465229    1.7437703797    0.1099759392
 H    0.7496262239   -0.4131265395   -0.7494297680
 H    0.8001301645   -0.0992104102    2.1655110235
 H   -1.9252940628   -1.1934839410    2.1396066484
 H   -1.6778806679    0.5527385225    1.8117560653
 H   -2.1326766077   -0.1167015329   -0.6094403171
 H   -2.2887094003   -2.5916240264   -0.1751211102
 H   -0.8617364467   -3.1053577675   -2.0138069462
 H   -0.0741305954   -3.8709840509    0.2897706167
 H    1.2650558727   -2.5358297099    1.9095407204