14

 C    0.0398845693    1.4861014617   -0.1634877237
 C   -0.0934242004   -0.0055177759    0.0348313924
 O   -0.1375839449   -0.5471226137    1.1056552288
 C   -0.1522714935   -0.8319324781   -1.2959351410
 C    1.3014665223   -0.9602786813   -1.7988839614
 O    1.8909773558   -0.0661359878   -2.3423407206
 C   -0.7708978743   -2.1327280268   -1.1316484982
 C   -1.2461515333   -3.2293959129   -1.0159075338
 H    0.7889235229    1.7053995902   -0.9302035962
 H   -0.9162226819    1.8845226308   -0.5242888715
 H    0.2949560551    1.9657796005    0.7818846478
 H   -0.6798078274   -0.2232844059   -2.0391488692
 H    1.7664051020   -1.9449710012   -1.5930439644
 H   -1.6829167216   -4.1909873694   -0.9025450089