21

 C   -0.0056276017    1.4802356221   -0.5614100193
 C   -0.0249809808    0.0443719344   -0.0884467338
 C    1.1679008066   -0.7984031677   -0.2348747768
 O    0.8122114840   -0.2455332216    1.0393326905
 C   -1.3964787284   -0.6054469959   -0.0300024511
 O   -1.8934571402   -0.5598856190   -1.3611933371
 C   -1.5300229376   -2.0031985899    0.6468816101
 C   -2.7932378097   -1.4975012673    1.3973643572
 C   -2.3918049873   -0.0415474867    1.0348318038
 H    1.0125129002    1.8760460628   -0.5388341857
 H   -0.3979667921    1.5466780939   -1.5788488336
 H   -0.6299251498    2.1078336705    0.0835990470
 H    1.0657655718   -1.8789485966   -0.3180850904
 H    2.0662488348   -0.3813996580   -0.6874499205
 H   -2.8021840974   -0.8774425100   -1.3574707063
 H   -1.6450889826   -2.8454207035   -0.0401438604
 H   -0.6998330181   -2.1958449225    1.3292077647
 H   -3.7260355263   -1.8114947955    0.9192476370
 H   -2.8628706865   -1.7382034404    2.4597524525
 H   -1.8653683231    0.4563309985    1.8533353322
 H   -3.1677560459    0.6275463925    0.6529576100