18

 C   -0.0146101169    1.5231949210    0.0283122318
 C    0.0470441613    0.0246985317   -0.0072376907
 C   -0.8308857261   -0.8561750120    0.8261517071
 C    0.6675950785   -0.9683630046    1.0172181949
 C    1.2554414740   -1.8189809681   -0.1177747423
 C    0.6548806409   -0.7973557430   -1.1457234365
 O   -0.3069917480   -1.2541308212   -2.0673505879
 C    1.3121912687   -0.6703236293    2.2513653145
 N    1.8505003275   -0.4210238086    3.2463393918
 H    0.9368102270    1.9694728719   -0.2794604502
 H   -0.7944081062    1.8909198850   -0.6481750550
 H   -0.2456921934    1.8849049946    1.0347413719
 H   -1.3621064071   -0.3506471372    1.6253919946
 H   -1.3614291596   -1.6924899053    0.3811881736
 H    2.3461762678   -1.8457365461   -0.1273384754
 H    0.8612026373   -2.8372170580   -0.1811216698
 H    1.4544144801   -0.2366505962   -1.6476944675
 H    0.1441838144   -1.7342609446   -2.7690345950