17

 N    0.3760129081    1.3448553069    0.4274189911
 C    0.1368890722   -0.0432942579    0.1639523851
 C   -1.3265432246   -0.5533429961    0.1829397635
 C   -2.4543902218    0.4591021042    0.0586552263
 O   -3.6562884920   -0.2016882996   -0.2827966203
 O   -1.1350782674   -1.2484174544   -1.0898073591
 C    0.1616929398   -0.6662121073   -1.2916069274
 C    0.1875827522    0.3288680241   -2.3652126402
 N    0.2147972520    1.1646060207   -3.1641314251
 H    1.3653500557    1.5417916222    0.5225959115
 H    0.0142160037    1.9463921388   -0.3055441313
 H    0.7718815082   -0.6386398944    0.8222342221
 H   -1.5689730389   -1.2759788822    0.9690833858
 H   -2.6157693280    0.9584375007    1.0186614613
 H   -2.1983263945    1.2307713657   -0.6838327980
 H   -3.4764018716   -0.6904202397   -1.0951494459
 H    0.9258067468   -1.4276059317   -1.4820003795