16

 O   -0.9033671223    1.2779211656    0.0370329791
 C    0.2343304684    0.8756069837    0.0304090301
 C    1.4327566549    1.7607345951    0.0471014049
 C    1.2779432080    3.2093050254    0.4321795243
 C    1.5490712222    2.8552852117   -1.0135031247
 C    2.9783770869    2.8306955600   -1.4596088057
 O    3.4416040962    3.3938838370   -2.4163233016
 C    3.7462216481    1.8930917637   -0.5155498644
 N    2.7231259787    1.1169784947    0.1956868108
 H    0.4843203806   -0.2063468179   -0.0046553325
 H    0.2698104086    3.5470645222    0.6439312477
 H    2.0669420064    3.6649159238    1.0210578675
 H    0.7707457840    3.0240164617   -1.7464424103
 H    4.4130895356    1.2531128317   -1.1024097445
 H    4.3810454114    2.5038042690    0.1436064034
 H    2.9611323823    0.9864236027    1.1719548659