25

 C   -0.1454853374    1.4864632610    0.1542090367
 C    0.0823766785   -0.0063884558   -0.0148459196
 O    0.6721178981   -0.5099567415    1.1645437653
 C    0.9271409032   -1.8977794273    1.1175790514
 C    1.5406416469   -2.3250135962    2.4333641077
 C    0.6542898856   -2.3175869169    3.7084195526
 C    1.3242949625   -3.6528974417    4.1410039037
 C    0.4742737122   -4.7339729390    4.7894420838
 C    1.7910842073   -3.8397607160    2.6680086652
 H    0.8026298057    2.0009661648    0.3349675182
 H   -0.6040112855    1.9079021402   -0.7454526332
 H   -0.8061070756    1.6792401267    1.0043304644
 H   -0.8725816256   -0.5228159269   -0.2146309355
 H    0.7370902302   -0.2018408862   -0.8819034037
 H   -0.0108531083   -2.4544684267    0.9394289183
 H    1.6063279620   -2.1374645381    0.2793425105
 H    2.4566451365   -1.7491602486    2.6011919469
 H    0.7300184488   -1.4603038169    4.3808382681
 H   -0.4014988112   -2.4672320192    3.4537966655
 H    2.1941088128   -3.4376983408    4.7725938555
 H   -0.4026847424   -4.9654789520    4.1737316216
 H    1.0412784190   -5.6623519030    4.9237405469
 H    0.1138299334   -4.4196597599    5.7756215357
 H    1.0780082035   -4.4533229265    2.1042148591
 H    2.7971973397   -4.2283610631    2.4902412249