18

 C    0.0702728832    1.4459723099    0.0304972852
 N   -0.0272662298    0.0044958455    0.0060354207
 C   -1.2140593990   -0.6776151755    0.0338829528
 N   -1.1419336055   -1.9965305811    0.2576237548
 C   -2.2896757586   -2.6707216440    0.2513144400
 C   -3.5306966327   -2.0727215739    0.0319258571
 C   -4.8165502731   -2.8532943521    0.0254347899
 N   -3.5964569886   -0.7487569523   -0.1791707179
 C   -2.4658395177   -0.0587492976   -0.1775094061
 H    1.1251392641    1.7258207002    0.0524345725
 H   -0.3698775935    1.8879371198   -0.8712029529
 H   -0.4238032522    1.8961226151    0.9044356970
 H    0.7580309395   -0.5348850335    0.3338068816
 H   -2.2193911850   -3.7413347508    0.4335940115
 H   -4.6385789222   -3.9131437837    0.2266904201
 H   -5.5095297488   -2.4700872743    0.7817265253
 H   -5.3205236019   -2.7677153787   -0.9431876409
 H   -2.5423803081    1.0113583471   -0.3472718208