22

 C   -0.0774965511    1.4817393105   -0.0720103048
 C   -0.0060721399   -0.0238954517    0.1713099238
 N   -1.3009381944   -0.6578831077    0.0171423778
 C   -1.8890644125   -0.7749027614   -1.3362646673
 C   -2.4793007196   -2.1432427689   -0.9041358539
 O   -3.8029848387   -2.0506032064   -0.3965896318
 C   -2.4990356710   -3.2977525170   -1.8859883565
 O   -2.8789401092   -4.4999228325   -1.2447768221
 C   -1.3973736281   -2.1205689816    0.2080751040
 H    0.9047638539    1.9424830645    0.0687472943
 H   -0.4044872839    1.7022991393   -1.0937539172
 H   -0.7853392388    1.9505056925    0.6177843243
 H    0.7443333692   -0.4767681225   -0.5080992923
 H    0.3399732202   -0.2191040658    1.1940508255
 H   -2.6041411855    0.0058532660   -1.6137031907
 H   -1.1334249350   -0.8798502587   -2.1339259319
 H   -3.7987429682   -1.3937005724    0.3086447191
 H   -3.1797695007   -3.0469168095   -2.7162854636
 H   -1.5004684771   -3.4555476924   -2.3039959504
 H   -3.6787536752   -4.2865513132   -0.7488592597
 H   -0.4873122279   -2.6654171513   -0.0915454288
 H   -1.6959930263   -2.4453195600    1.2106061922