17

 C    0.0689790712    1.5415903027   -0.1823801460
 C    0.0029425019    0.0245862493    0.0732255162
 C   -1.3944623223   -0.5076999055    0.1444065908
 C   -2.2194313043   -0.8221975835    1.2035411262
 C   -3.4403054367   -1.2437895094    0.6182439766
 C   -4.6433599199   -1.6901458324    1.3381082956
 O   -5.6801974429   -2.0464339662    0.8335796051
 N   -3.3802967059   -1.1967406427   -0.7187845613
 N   -2.1470503994   -0.7515189729   -0.9688332010
 H    1.1084275426    1.8802295376   -0.2212996191
 H   -0.4082004594    1.8072884709   -1.1309864058
 H   -0.4428122971    2.0922528080    0.6118867213
 H    0.5589971689   -0.5044550092   -0.7111596155
 H    0.5061802221   -0.2111544202    1.0157807861
 H   -1.9773067332   -0.7612390049    2.2528466783
 H   -4.5160517509   -1.6723505073    2.4451771733
 H   -1.8611819447   -0.6403958145   -1.9291820711