15

 C   -0.0492090263    1.5283705205   -0.1140179572
 C    0.0299870893    0.0380243027    0.0086434927
 C   -0.7920685829   -0.7886240417    0.9433507408
 C    0.7279512826   -0.7964776491    1.1076755243
 N    1.4261008725   -1.8588330986    0.4180180354
 C    1.1687843301   -1.6857758786   -0.8163039094
 O    0.4130670824   -0.6242735980   -1.1930556285
 C    1.3265818323   -0.2357772365    2.2852482510
 N    1.7783295071    0.2568756163    3.2289236075
 H    0.8781302581    1.9303717744   -0.5307369619
 H   -0.8798926020    1.8192124916   -0.7645031011
 H   -0.2097607310    1.9757192670    0.8699042663
 H   -1.3486479945   -0.2425616954    1.6961481107
 H   -1.2459518634   -1.7099793576    0.5949128949
 H    1.5093143356   -2.3164905870   -1.6276558957