18

 N    0.3771763824    0.1377368135    0.9779791065
 C   -0.1402479885    0.0894621401   -0.2835324634
 O    0.2456760759    0.8006689115   -1.1909706622
 C   -1.2906398408   -0.9085399111   -0.4534798619
 C   -0.9432704420   -2.3265700464   -0.0138298081
 O   -0.6950434862   -2.4442797627    1.4188099413
 C   -1.8823757919   -3.2436633604    1.6173609391
 C   -2.1226861433   -3.3261727572    0.0922860571
 O   -3.3350996280   -2.8258222516   -0.4079112027
 H    1.1928443655    0.7105318170    1.1229040206
 H    0.1469895017   -0.5853862165    1.6442965051
 H   -2.1625995757   -0.5570247073    0.1074551685
 H   -1.5583633427   -0.9123183782   -1.5118143832
 H   -0.0772518475   -2.6980914358   -0.5739646366
 H   -1.6581131858   -4.1771854305    2.1448872750
 H   -2.6711324736   -2.6958686703    2.1474486116
 H   -1.8852663807   -4.3084237309   -0.3319488570
 H   -3.9772140387   -3.5406419232   -0.4425394597