18

 C   -0.1256462078    1.5148308029    0.1738368049
 C    0.0626092853    0.0110720137   -0.0288541846
 C   -1.2444913254   -0.7478845350   -0.1281996892
 C   -1.3701649870   -1.6841840563    0.8085500720
 C   -0.1824372600   -1.7470567023    1.7398146785
 C    0.8051799969   -0.7308360650    1.1360728671
 O    1.9080449873   -1.3925423838    0.4650476982
 C    1.8403233408   -1.0020342154   -0.8311208515
 N    0.9094219435   -0.2388477130   -1.2230163104
 H    0.8434213539    2.0148491498    0.2659423996
 H   -0.6488993189    1.9495489840   -0.6824817277
 H   -0.7127107830    1.7148923475    1.0760719115
 H   -1.9661852418   -0.5219574660   -0.9045224514
 H   -2.2273905840   -2.3384479628    0.9241324591
 H   -0.4568034135   -1.4749631649    2.7671994511
 H    0.2719793567   -2.7425037363    1.7911290911
 H    1.2411982402   -0.0634276093    1.8839305771
 H    2.6332400969   -1.4011543677   -1.4548602354