27

 C   -1.6405997440    1.3989566345   -2.5172158488
 C   -1.2286428171    0.2552602246   -1.5848436414
 C   -2.0886744529   -1.0198206981   -1.7038793550
 C   -1.9633215577   -1.6824373460   -3.0850686752
 C   -1.7151521765   -2.0035818711   -0.6062157921
 C   -2.2330058115   -1.8573591060    0.8076768770
 C   -2.6474150787   -3.0506024951   -0.0269324197
 C   -4.0918627064   -3.1455410917   -0.4831337715
 C   -2.0371442900   -4.3953026961    0.3260727390
 H   -1.0353636430    2.2919401583   -2.3310046683
 H   -1.5174470377    1.1363966156   -3.5724870523
 H   -2.6907735256    1.6741160964   -2.3650433270
 H   -0.1769694718   -0.0068394811   -1.7671533157
 H   -1.2767468599    0.6052770977   -0.5466062075
 H   -3.1354629447   -0.7180151770   -1.5633889199
 H   -2.5865914581   -2.5794268647   -3.1480782131
 H   -2.2672033058   -1.0092044810   -3.8920059521
 H   -0.9264836097   -1.9852502147   -3.2761585134
 H   -0.6779275418   -2.3305685144   -0.6799895064
 H   -1.5495445006   -2.0105080216    1.6369913013
 H   -2.9792375559   -1.0885960161    0.9889235662
 H   -4.7092101802   -3.6020949587    0.2999556843
 H   -4.5250107820   -2.1682823543   -0.7101175981
 H   -4.1883648204   -3.7705551526   -1.3791583788
 H   -2.6018077110   -4.8873166415    1.1275183899
 H   -2.0359187197   -5.0695517806   -0.5390309980
 H   -1.0022999572   -4.2881084148    0.6661749464