22

 C   -0.4204081902    1.9626725751   -0.2087248358
 C   -0.0192176646    0.5172649813    0.0970352903
 C   -1.1811059561   -0.4864891826    0.1485935268
 C   -0.6329676719   -1.8897149643    0.3322287227
 C   -1.1549105532   -3.0504903937   -0.3987040354
 O    0.0785939902   -2.4361481881   -0.7785366732
 N   -2.0741742674   -0.2022110909    1.2729013388
 C   -3.2113759065    0.6787201830    1.0277565343
 C   -3.4136774517   -0.7824058688    1.2124765332
 H    0.4679540151    2.5953867717   -0.3000638502
 H   -0.9726871791    2.0335794870   -1.1528886202
 H   -1.0466018515    2.3857579500    0.5813237415
 H    0.6791893556    0.1594902674   -0.6677506047
 H    0.5099813917    0.4763629497    1.0569437064
 H   -1.7208826717   -0.4569253918   -0.8175328363
 H   -0.1613429153   -2.0628872811    1.3009423213
 H   -1.0683074782   -4.0477674690    0.0304058134
 H   -1.9744765616   -2.9191876031   -1.1044685876
 H   -3.4490294675    1.3776915063    1.8247505823
 H   -3.3471155919    1.0717067617    0.0219240357
 H   -3.6841828717   -1.3580066851    0.3288985179
 H   -3.8010267226   -1.1764501444    2.1475041388