16

 C    0.0811271320    1.5201283856    0.0523096475
 C   -0.0286517432    0.0354230453   -0.0034386028
 C   -1.0950784012   -0.7808028460    0.0237150436
 C   -2.5544970434   -0.4971740693    0.1194551385
 C   -0.6092508400   -2.2038584944   -0.0636910710
 O   -1.2730443243   -3.2117114726   -0.0676996038
 N    0.7796895594   -2.1304705928   -0.1404167261
 C    1.2150066876   -0.8075962169   -0.1101554626
 O    2.3603752135   -0.4307249928   -0.1602116798
 H    0.6910954350    1.8280876340    0.9085779383
 H    0.5904137971    1.9011679663   -0.8396236388
 H   -0.8967563203    1.9992944853    0.1286278012
 H   -3.0835712357   -0.9109710558   -0.7459654029
 H   -2.9830804515   -0.9840811215    1.0022561976
 H   -2.7595405652    0.5735467960    0.1760114923
 H    1.3893447801   -2.9292984905   -0.2088728110