16

 O   -0.0794307616    1.3272599693   -0.0290831328
 C    0.0225446591   -0.0398882467   -0.0331710395
 C    0.4091366518   -1.0044867535    1.1528395915
 C   -1.0398418260   -1.0119179029    1.6826534735
 C   -1.2019162220   -0.9860021069    0.1479648960
 C    0.0422298245   -1.9163064084   -0.0622329115
 C    0.7062324849   -0.9631698937   -1.0907837523
 C    0.1902631382   -0.9517982213   -2.4495186372
 N   -0.2290126877   -0.9394298153   -3.5273441196
 H    0.7982130306    1.7125402102    0.0725758040
 H    1.3557243772   -1.0168148239    1.6955890247
 H   -1.3683289262   -1.9205547444    2.1947846137
 H   -1.3683378648   -0.1206704799    2.2226203323
 H   -2.1045900306   -0.9804770512   -0.4613802943
 H    0.0412268693   -3.0026220047   -0.0777800924
 H    1.8012667931   -0.9590705967   -1.0936183660