21

 C    0.0141151899    1.4281424437   -0.0468986721
 O    0.0086589704    0.0223696603   -0.0155499333
 C    0.6466548445   -0.5552378588   -1.1316875331
 C    0.5830825304   -2.0701219113   -0.9948001280
 C    1.2546816347   -2.7794240211   -2.1691845542
 C    1.2035375935   -4.2892580900   -2.0516158026
 O    0.7006445303   -4.9106654649   -1.1500873412
 O    1.8076901159   -4.8683524968   -3.1108447993
 C    1.8173132240   -6.3010234623   -3.1021532323
 H    1.0384832518    1.8346384759   -0.0524680147
 H   -0.5125604838    1.8210742002   -0.9316718441
 H   -0.4986309995    1.7785073766    0.8522348636
 H    0.1547084159   -0.2302748003   -2.0664888937
 H    1.6967495591   -0.2160168932   -1.1924112631
 H    1.0603247028   -2.3674246940   -0.0561288143
 H   -0.4631881280   -2.3813149446   -0.9189207002
 H    0.7899453087   -2.5037123580   -3.1241833145
 H    2.3083061585   -2.4883267948   -2.2650731044
 H    0.7976253771   -6.6946077366   -3.0939781818
 H    2.3343804593   -6.6003851666   -4.0139522013
 H    2.3441785845   -6.6789167635   -2.2221698256