20

 C   -0.4848868169    1.6429745073    0.0242841565
 C    0.0971641440    0.2345378900    0.0632474284
 C   -0.9880864447   -0.8183176313   -0.1587850336
 O   -1.5379669199   -0.6165320232   -1.4517987186
 C    1.3343480335   -0.0234483664   -0.8516362565
 C    2.1009537313   -0.6518205112    0.3610811196
 C    0.9703930446   -0.1192282187    1.3059033301
 C    2.2247370758   -2.0999861214    0.3210558317
 N    2.3070268099   -3.2536675169    0.2887644592
 H    0.2982786222    2.3973619131    0.1535774734
 H   -0.9867815192    1.8248273567   -0.9297847252
 H   -1.2215325700    1.7835765923    0.8241884616
 H   -0.5564760756   -1.8263903355   -0.0663960621
 H   -1.7565593693   -0.7145477182    0.6257571369
 H   -2.1509834673   -1.3334830193   -1.6369085936
 H    1.1661209797   -0.6715091633   -1.7120721456
 H    1.8153271362    0.8970801035   -1.1890030611
 H    3.0895639596   -0.2268166033    0.5486961657
 H    1.2972420970    0.7643588737    1.8585114750
 H    0.5548418690   -0.8413380778    2.0125970185