19

 C   -0.0778074251    1.4772327009    0.0017976781
 C   -0.0676045022   -0.0112963940    0.1287419182
 C   -1.0671623305   -0.9000411227    0.1843441724
 C   -2.4564931392   -1.1874055081   -0.3265501178
 C   -1.8170966984   -2.5137768673   -0.8970977580
 C   -0.6439095466   -2.3409328222    0.1342248874
 C    0.8598973499   -2.2865706079   -0.1413181369
 C    1.2117186392   -0.7882011972    0.0835161471
 O    2.3277645661   -0.3238344502    0.1105716472
 H    0.5333853640    1.8008592170   -0.8474527995
 H   -1.0915306420    1.8675255407   -0.1199396496
 H    0.3629754230    1.9414193771    0.8915557645
 H   -3.1762006048   -1.4082851396    0.4683930273
 H   -2.9027225053   -0.4754151490   -1.0242537160
 H   -2.4170038658   -3.4237720085   -0.8277272062
 H   -1.4774164231   -2.3734570734   -1.9260799661
 H   -0.8829753224   -2.8903828501    1.0514630627
 H    1.4773356798   -2.9338504329    0.4859617397
 H    1.0951109333   -2.5251808826   -1.1851784545