23

 C   -0.2041543971    1.5394378278   -0.0241287735
 C    0.1152757139    0.0390973625   -0.0479838850
 C    0.7697738693   -0.4979536239    1.2207555797
 C   -0.0560427913   -0.4924735830    2.5490920056
 C    0.7251003056   -1.7880574617    2.9268410522
 C    0.8460534911   -2.0482819526    1.3951479026
 C    2.0884075953   -1.3864094798    3.4462359828
 C    2.7767429904   -0.4821707698    2.7501437358
 C    2.1693366130    0.1001188923    1.4940792198
 H    0.7011520951    2.1518298688    0.0293073428
 H   -0.7460813355    1.8354864651   -0.9276612903
 H   -0.8304061923    1.7963441112    0.8371900051
 H   -0.8151429795   -0.5191408435   -0.2151167112
 H    0.7624721967   -0.1842743473   -0.9079949003
 H    0.0371505621    0.3644524267    3.2213240477
 H   -1.1134549866   -0.6960851322    2.3513695649
 H    0.2295827578   -2.5354930735    3.5479899932
 H   -0.0493566075   -2.5293719500    0.9892557240
 H    1.7399504119   -2.5690244352    1.0410655973
 H    2.4745712659   -1.8329724100    4.3573283709
 H    3.7620120363   -0.1416853206    3.0556093228
 H    2.8256223896   -0.0873212861    0.6307052888
 H    2.1063203958    1.1931393846    1.5861203644