22

 C   -0.0894949364    1.5953625250   -0.0103667602
 C   -0.1158863649    0.0667573971   -0.0795808113
 C    0.8329325662   -0.5037961405   -1.1506689337
 C    0.8107523979   -2.0021170926   -1.2399395620
 C    1.8010972424   -2.8637237891   -0.8281757275
 N    1.3753885323   -4.1511887957   -1.0610670882
 C    0.1209216818   -4.1396770767   -1.6238391685
 C   -0.5921943306   -5.3980629492   -1.9946442192
 C   -0.2498457097   -2.8189925338   -1.7425137051
 H    0.9150119767    1.9643855429    0.2268668140
 H   -0.3847133680    2.0411850292   -0.9671585491
 H   -0.7720304324    1.9738594652    0.7572804992
 H    0.1551002756   -0.3576418345    0.8949795280
 H   -1.1367655553   -0.2782127851   -0.2851382754
 H    0.5667593569   -0.0660227217   -2.1229164652
 H    1.8550618850   -0.1655743234   -0.9371964755
 H    2.7685061771   -2.6660049976   -0.3934860581
 H    1.9101572668   -4.9798232468   -0.8677945156
 H   -0.7607301215   -6.0517174414   -1.1291812829
 H   -1.5694670566   -5.1586482751   -2.4200288585
 H   -0.0421677187   -5.9841439538   -2.7422090108
 H   -1.1872112946   -2.4708982922   -2.1526129448