15

 C    0.3264424542    1.2660059621    0.2787258143
 N   -0.3043536003    0.0481951382   -0.2408619306
 C    0.4503855279   -0.7225100480   -1.1038078612
 C    0.9904125395   -1.9579649559   -1.0429382422
 N    1.6992772669   -2.2504234056   -2.2051107247
 C    1.5519337113   -1.1784468243   -2.9245927544
 N    1.9952989700   -0.9714874083   -4.2087675360
 O    0.8258949851   -0.1949211418   -2.3653322704
 H    1.2463161856    0.9914200542    0.8023944445
 H    0.5789096694    2.0019820116   -0.4985045822
 H   -0.3494181130    1.7371738893    0.9981396928
 H   -1.2314352682    0.2424980272   -0.6032336023
 H    0.9153341530   -2.6626876234   -0.2299274062
 H    2.7283294437   -1.6137768243   -4.4720904785
 H    2.2036985252   -0.0097726210   -4.4341970730