14

 O   -0.4444740702    0.5113367818    0.6966102111
 C    0.1957405062    0.9175900059   -0.2348523949
 C    1.2990406342    1.9694639339   -0.0866849583
 C    1.3214518758    2.6449400304    1.3201121634
 C    2.4062371284    1.6480770213    1.8205273953
 C    2.6333043080    1.2056507605    0.3821796961
 O    3.4679030065    0.6239168867   -0.2254707812
 C    1.4239898969    2.7859809818   -1.2729909137
 N    1.5262867762    3.4349535506   -2.2248090457
 H    0.0664348201    0.5317162829   -1.2643067010
 H    1.6754652079    3.6739671551    1.2683515368
 H    0.3633157762    2.5938219249    1.8343578043
 H    3.2867362339    2.0446787856    2.3297548822
 H    1.9862419997    0.8311913585    2.4160236055