15

 N   -0.0568265443    1.1816448266   -0.4171481309
 C   -0.0415038891   -0.0474078028   -0.1522097546
 O   -1.2050411371   -0.7524993781   -0.2091847276
 C   -1.1164097863   -2.1277116366    0.0710889686
 C   -2.5272790819   -2.7183745064    0.0464583352
 O   -2.6166705319   -3.2972772395   -1.2550788996
 C   -1.3719142762   -3.3906886596   -1.7990236582
 N   -1.0442050568   -3.9150297256   -2.8883584241
 O   -0.4517980074   -2.8252933590   -0.9616748783
 H    0.8784476468    1.5727268749   -0.3238493420
 H    0.8251702686   -0.6547540421    0.1341626560
 H   -0.5609840122   -2.2986861245    0.9978782256
 H   -2.6585134426   -3.4944070052    0.8070667441
 H   -3.2888703374   -1.9459266197    0.1554872326
 H   -1.8580052221   -4.3132804524   -3.3504405566