18

 N    0.0476543690    1.2903856371   -0.1566484752
 C    0.0275981830   -0.0159580207    0.2419366788
 O    0.9675128076   -0.5346319529    0.8143830706
 C   -1.2646164507   -0.7602998182   -0.0850139473
 C   -1.0757864354   -2.2733275849   -0.0599106628
 C   -2.3687280912   -3.0326358500    0.2010419949
 O   -3.3640937547   -2.5078585188    0.6359489697
 C   -2.3064839649   -4.5239868697   -0.1139494212
 O   -3.4911539147   -5.1512094650    0.2981911018
 H    0.8162133557    1.8632917139    0.1525088920
 H   -0.7770861226    1.7477671215   -0.5049153290
 H   -2.0175807244   -0.4923721996    0.6662694035
 H   -1.6645210301   -0.4223786655   -1.0471851573
 H   -0.6067071477   -2.6408965801   -0.9803990482
 H   -0.3663174688   -2.5183736403    0.7418651620
 H   -2.1313260662   -4.6159882957   -1.2011915164
 H   -1.4077822402   -4.9350703086    0.3779295302
 H   -3.4186718737   -6.0880023624    0.0941288040