20

 C   -0.0229425965    1.4054002572   -0.1949232463
 C    1.2884224833    0.7073898837   -0.0847453112
 C    2.0325804035    0.4100911726    1.1982763853
 C    2.4910606090    1.1544277231    2.5094847039
 C    1.0542204798    1.6856363626    2.6825703353
 C    0.9030660671    0.1861826450    2.2179791128
 C    2.0145147486   -0.1380769377    3.2686210408
 C   -0.2399222179   -0.4501960698    1.4390540125
 N   -0.0299208494   -0.0465868114    0.0096075455
 H   -0.3985700854    2.0460887901    0.5923089466
 H   -0.3398932329    1.7134503389   -1.1894211083
 H    1.8253955751    0.5304498749   -1.0127680676
 H    2.6464471028   -0.4786637017    1.0057203030
 H    3.4216860991    1.6967716332    2.6793328498
 H    0.7371210237    1.8964708399    3.7080542705
 H    0.7521122671    2.4856845511    2.0123952995
 H    2.5913282181   -1.0519256926    3.1029654880
 H    1.7599061426   -0.0046062695    4.3230775701
 H   -0.1885957743   -1.5432488261    1.4800461196
 H   -1.2384310837   -0.1425391635    1.7647588002