13

 N   -0.0612907327    1.3073597477   -0.3451223386
 C    0.0143275924    0.0635464103   -0.0374462975
 C    1.2204236913   -0.7440142100    0.1401016670
 N    1.2080449214   -1.9956197657    0.4513877485
 N    0.0008967600   -2.5818662907    0.6202523243
 C    0.0389176679   -3.9583053267    0.9615826485
 O   -0.9284825811   -4.6325307118    1.1476878105
 N   -1.2043958678   -1.9763519940    0.4929151422
 C   -1.1966361194   -0.7251960638    0.1818281322
 H    0.8723082207    1.7096753071   -0.4630371629
 H    2.2023850572   -0.2944263432    0.0095265727
 H    1.0895532843   -4.2820661419    1.0218605876
 H   -2.1634823743   -0.2411029672    0.0800875954