25

 C   -0.1274733148    1.0945917431    0.8716740350
 C   -0.2331361784   -0.2098239093    0.0994649959
 O    0.8913896124   -0.3213828120   -0.7515894874
 C    0.9126334313   -1.5051274228   -1.5047949409
 C   -0.0253795774   -1.6191656501   -2.7410373911
 C    1.1851143731   -2.1725160018   -3.5632265725
 C    1.1868045276   -3.7029512300   -3.6253978952
 C    1.3800500958   -1.5744631291   -4.9531356558
 C    2.1281335165   -1.6254905397   -2.4419574927
 H    0.7897626238    1.1139804746    1.4671734142
 H   -0.1066297048    1.9458076566    0.1851279660
 H   -0.9824201951    1.2115418129    1.5444582340
 H   -0.2691306021   -1.0681675722    0.7923521934
 H   -1.1647934379   -0.2340840974   -0.4890933383
 H    0.8088152689   -2.3758432723   -0.8390220187
 H   -0.9122454200   -2.2542821614   -2.6642372887
 H   -0.3228496925   -0.6226632673   -3.0817404570
 H    0.3805639384   -4.0691828408   -4.2715481352
 H    2.1348659322   -4.0769045132   -4.0290996647
 H    1.0482591304   -4.1515553712   -2.6360457273
 H    1.3841702546   -0.4800931274   -4.9180745293
 H    2.3306938172   -1.8987889782   -5.3935278679
 H    0.5779235999   -1.8851777010   -5.6333782408
 H    2.5085205100   -0.6287226366   -2.6821472731
 H    2.9595331009   -2.2584762236   -2.1208955317