21

 C   -0.0053175378    1.6026125343   -0.0063189207
 C    0.0482887918    0.0711847086   -0.0134801328
 C    0.7289109821   -0.5606101822   -1.2337977508
 C    2.1986410866   -0.3528645886   -1.5048872377
 C    1.7453882310   -1.5801296811   -0.7520989057
 C    1.7326816875   -1.5664093703    0.7638949653
 C    2.1729692127   -0.3164913719    1.5130764602
 C    0.7149477031   -0.5581765971    1.2260698284
 O   -0.1283502678   -0.8625448764    2.3011620520
 H    0.9983411410    2.0389300716   -0.0283947682
 H   -0.5525155762    1.9837745417   -0.8743883679
 H   -0.5120895529    1.9731655062    0.8922451061
 H   -0.9811891522   -0.3071124392    0.0101452371
 H    0.0966871016   -0.7690534913   -2.0904466752
 H    2.5233948883   -0.4984839625   -2.5300437472
 H    2.7508818186    0.4247357580   -0.9900887196
 H    1.8489797570   -2.5452264588   -1.2343256437
 H    1.8344147790   -2.5127066504    1.2818978100
 H    2.4731313172   -0.4742174606    2.5442303642
 H    2.7243013358    0.4675615248    1.0072735236
 H   -0.1932273163   -0.0803955348    2.8595691127