14

 C   -0.0215360485    1.4812250919   -0.0595030535
 N    1.3390501568    2.0090949467    0.1174180323
 C    2.3351010419    1.2525912354    0.2730134677
 O    2.4032580715   -0.1204197282    0.3138027136
 C    1.1751379018   -0.7100767684    0.1567135139
 C    0.0360923227   -0.0023548477   -0.0176245080
 O   -1.0135415638   -0.8568427234   -0.1438783287
 C   -0.5051413185   -2.1189705319   -0.0445007708
 C    0.8431584571   -2.0975959817    0.1423309260
 H   -0.6624120066    1.9046641107    0.7268833340
 H   -0.4213267959    1.8650298388   -1.0088648307
 H    3.3334574795    1.6616358696    0.4023267980
 H   -1.2227908265   -2.9176962341   -0.1259618925
 H    1.5025043086   -2.9425686677    0.2532192589