16

 O   -0.0373999803    0.7883242088    1.0092087066
 C    0.1396572636    1.3357105415   -0.0572522032
 N    1.3394926000    1.4503561443   -0.6913554646
 C    2.5820816653    0.9805263739   -0.1145724400
 C    3.5908322915    2.1085718780    0.0327891674
 C    5.0116909402    1.8555021114   -0.2789826610
 O    4.1798279729    2.5240764152   -1.2212618034
 C    3.2338091859    3.1744205784    0.9370491318
 C    2.9085717769    4.0386826497    1.7055750101
 H   -0.6772174888    1.7993267983   -0.6439640592
 H    1.3819772129    1.9516867759   -1.5649732987
 H    2.3345079770    0.5499529666    0.8584073934
 H    3.0278657976    0.2001940412   -0.7422934593
 H    5.7721742449    2.4707798772    0.1966753538
 H    5.3214868468    0.8474891090   -0.5526169806
 H    2.6234316635    4.8048258507    2.3839908169