17

 C   -0.2402792102    1.6411266796   -0.0007534620
 C   -0.0978015973    0.1041349231    0.0947155234
 C    0.6883014970   -0.3229063438    1.3359780438
 C   -1.4836696846   -0.5135355965    0.0876655688
 O   -2.0533506593   -0.9416157039    1.0619573082
 C   -2.1960381479   -0.5803825708   -1.2897040321
 O   -1.6277207240   -0.2569113003   -2.3104278035
 C   -3.5569575395   -1.0665484377   -1.2643058681
 C   -4.6945448698   -1.4596058195   -1.2689790541
 H    0.7520070176    2.1000751497   -0.0326125577
 H   -0.7794495262    1.9396889625   -0.9029339971
 H   -0.7691069372    2.0369842020    0.8724735223
 H    0.4073891093   -0.2318597874   -0.8176583042
 H    0.1702604901   -0.0147678376    2.2480636010
 H    0.8100762703   -1.4090227573    1.3769947798
 H    1.6821908284    0.1339035567    1.3290606264
 H   -5.6991280668   -1.8080472788   -1.2696672050