17

 C    0.0108943148    1.4406493260    0.1494864927
 C    0.0199469779   -0.0688439300    0.0150527131
 O    1.0251688418   -0.7453313760    0.0651515920
 N   -1.2112391202   -0.6578423342   -0.2144156684
 C   -1.5112116836   -2.0911864072   -0.1716899167
 C   -2.1248777142   -2.4408759488    1.1415687882
 C   -2.9775419962   -1.7500051422    0.0788224448
 C   -2.5868245096   -0.3030998529   -0.0227947895
 N   -3.2557141556    0.7637355856   -0.0075732654
 H    1.0286381549    1.7753486949    0.3484875949
 H   -0.3494700879    1.9091221923   -0.7721259248
 H   -0.6455920489    1.7576926437    0.9665820180
 H   -1.0653224603   -2.7740781780   -0.8796879140
 H   -2.3653031558   -3.4894738772    1.2884723344
 H   -1.8282815940   -1.9089917997    2.0400530041
 H   -3.8726646078   -2.1893636181   -0.3345553029
 H   -2.6778004251    1.5914308915   -0.1473583504