18

 C   -0.0690240883    1.3923031933   -0.1295576108
 N   -0.0319870477   -0.0308125372    0.0912037227
 C   -1.0825018720   -1.0451577301    0.0526977059
 C   -1.5487204191   -1.4342335445   -1.3787250261
 C   -0.4389632972   -2.5374731105   -1.4207038839
 O    0.5646295269   -2.4393842066   -2.3983440284
 C    0.0492576058   -2.1241828205   -0.0037408791
 C    1.0208736067   -0.9217145764   -0.0030036159
 O    2.2083493482   -0.7509133520   -0.0607327773
 H    0.9640002379    1.7435812792   -0.1882433211
 H   -0.5795572536    1.6448590752   -1.0684480384
 H   -0.5743448982    1.9136190617    0.6915063867
 H   -1.8230073498   -0.9827989596    0.8516387580
 H   -2.5656970487   -1.8306008370   -1.4316781123
 H   -1.4301772325   -0.6421268345   -2.1220996422
 H   -0.8809651844   -3.5428932354   -1.4008427035
 H    0.1951035471   -2.7123639568   -3.2442603331
 H    0.2080301788   -2.9019280084    0.7400695389