15

 N    0.0028216704    1.2853970112   -0.0238965347
 C   -0.0057821557    0.0259488679   -0.0175546796
 C   -1.2334101420   -0.8547204691   -0.1583186700
 C   -0.6682478590   -2.2445241241   -0.3888054077
 O   -0.3496279432   -2.5194709231   -1.7731698847
 C    1.0637779550   -2.6165932107   -1.4816622795
 C    0.8339697314   -2.1362636138   -0.0407363409
 O    1.1145482894   -0.7551598265    0.1565544880
 H    0.9516025567    1.6418016429    0.1019525525
 H   -1.8220661059   -0.8073720620    0.7639197034
 H   -1.8662511597   -0.5215772680   -0.9821885088
 H   -1.2458711247   -3.0560274065    0.0627567208
 H    1.4276465149   -3.6483403151   -1.5649223489
 H    1.6711530264   -1.9540389571   -2.1064486594
 H    1.2672648761   -2.7094820659    0.7790931994