15

 N   -0.0949313370   -1.1640733961   -0.1158958529
 C   -0.0505844508   -0.0098511163   -0.0515517467
 C   -0.0072053826    1.4434354053    0.0176526353
 C    0.0000733341    2.0741119815    1.4722329585
 C    1.5178243637    1.6888242736    1.5200710732
 C    1.4354865250    2.1008401990    0.0108364629
 C    1.0337269464    3.5755625695    0.1428921336
 C    0.0979102670    3.5581480027    1.0957727555
 H   -0.7277551051    1.8711480240   -0.6822653963
 H   -0.7152583953    1.7576561774    2.2287638678
 H    2.1607571397    2.2921954637    2.1626138196
 H    1.6936317161    0.6209124961    1.6732294389
 H    2.1846049121    1.8116518881   -0.7235847010
 H    1.4361616865    4.3978989497   -0.4302940270
 H   -0.4827801496    4.3621872318    1.5236194687