21

 C   -0.1382903810    1.5693790909    0.0488245767
 C    0.0761342136    0.0608439681    0.0035555048
 C    1.1748766093   -0.5247157130   -0.9468040224
 C    1.8123454371   -1.2482027665    0.2367461807
 C    2.1823529689   -0.2507400334    1.3184547514
 C    0.7467787879   -0.6254604543    1.2126134462
 C   -0.0168178937   -1.2743848656    2.3330732206
 C    2.3003670836   -2.6262230469    0.2354868680
 O    2.3491456987   -3.3386509461   -0.7422911837
 H    0.7947962196    2.1058867660    0.2494819533
 H   -0.5289381169    1.9332313825   -0.9076161560
 H   -0.8569611885    1.8459027098    0.8280760537
 H   -0.8791063570   -0.4348005132   -0.1987049530
 H    0.7827892429   -1.2122347637   -1.6972083483
 H    1.8179138857    0.2100425856   -1.4425912765
 H    2.7068032043   -0.6684273843    2.1737501941
 H    2.5502640710    0.7245597716    1.0092458958
 H   -0.4891196299   -0.5115238377    2.9646440894
 H   -0.8108143782   -1.9254880222    1.9518533554
 H    0.6335677634   -1.8738341246    2.9771048202
 H    2.6213655591   -3.0024751331    1.2357305294