18

 O   -0.8700300120    0.3147061608   -0.0094266040
 C   -0.2830235445    1.3450390456    0.0353020884
 O   -0.7681679427    2.5761214892    0.4075276207
 C    0.5509646288    3.2005627385    0.3286829026
 C    1.1456432872    1.8677307050   -0.2212163536
 N    2.2212763669    1.1537769529    0.3959778809
 C    3.5460760052    1.6364829498    0.1099785283
 C    4.1547719584    2.8555686423    0.7797317704
 C    4.6348486936    1.4594931636    1.1204361813
 H    0.5348471718    4.0624953424   -0.3412484006
 H    0.9013946239    3.4879211618    1.3230370598
 H    1.3375005201    1.9363368975   -1.2976391530
 H    2.0712450271    1.0073734602    1.3869872742
 H    3.8188377137    1.4777394592   -0.9310237409
 H    4.8050166643    3.5013389250    0.1992415399
 H    3.5633523290    3.3712155321    1.5290996245
 H    4.3606331830    1.0586499764    2.0915845104
 H    5.6125668863    1.1416117877    0.7772214406