17

 O   -0.0376505033    1.4553903881   -0.1414303838
 C    0.0087587045    0.0536741287   -0.0581400570
 C    0.3356634684   -0.5057850406    1.3614706676
 C   -1.1908242002   -0.6251147541    1.5816556501
 C   -1.3847554215   -0.6408289803    0.0469634485
 O   -1.7800160721   -1.6066639398    2.4536795217
 C   -2.4734668361   -0.6273428423    3.2587894618
 C   -1.8823444323    0.4725993310    2.3737460845
 O   -1.9193318688    1.6679891018    2.2994630223
 H   -0.6040742409    1.8013984054    0.5645774940
 H    0.6556395085   -0.2795637794   -0.8705578524
 H    0.7866352353   -1.5009601452    1.3182150330
 H    0.9080059790    0.1366547639    2.0345454755
 H   -2.2426750809   -0.1105947033   -0.3727390701
 H   -1.3612441859   -1.6695348656   -0.3229417608
 H   -3.5645593019   -0.7300803989    3.2172052439
 H   -2.1446340516   -0.6186096695    4.3049514813