12

 N   -0.0994710217   -1.1368585072   -0.4690946833
 C   -0.0497753397   -0.0124770372   -0.2128016816
 C   -0.0002278295    1.4178001332    0.1167058246
 C    1.3583186847    1.9555891260    0.1079522846
 C    2.4713344210    2.4041766126    0.0997355878
 C    3.8298550931    2.9419793895    0.0883263678
 C    3.8732515876    4.3757143379   -0.2267008824
 N    3.9181621970    5.5027861937   -0.4718163879
 H   -0.6274089747    1.9609384513   -0.6015674103
 H   -0.4634183620    1.5624548452    1.1009232434
 H    4.3117324435    2.7868196257    1.0619143075
 H    4.4431561706    2.4066434894   -0.6475734504