22

 C    0.1848445858    1.4163247580   -0.0685770447
 C   -0.0222971361   -0.0992167372    0.0809230464
 C    0.5980291331   -0.9015509969   -1.1037171269
 C    1.9309773253   -1.4986884092   -0.5901615471
 C    1.8095997305   -1.3727448919    0.9083254600
 C    0.7658371187   -0.6312275177    1.2716032091
 N   -1.4823816992   -0.3277613649    0.0857015381
 C   -2.0236343065   -1.4977518152    0.7633179578
 C   -2.2424258246   -0.1286893123    1.3119541140
 H    1.2435563274    1.6495778478   -0.2154302490
 H   -0.3844599287    1.7875681352   -0.9259463305
 H   -0.1580146788    1.9499582903    0.8242548046
 H   -0.0941223081   -1.7041574569   -1.3715773385
 H    0.7257169512   -0.2779867438   -1.9920279919
 H    2.0841667405   -2.5334508047   -0.9180829360
 H    2.8021184972   -0.9354743524   -0.9522797485
 H    2.5327908024   -1.8084277750    1.5905339513
 H    0.5246169574   -0.3653587208    2.2954703313
 H   -2.8223539837   -2.0179383117    0.2411515256
 H   -1.3366347325   -2.1417284388    1.3087884581
 H   -1.7132985957    0.1253269648    2.2282119349
 H   -3.2010696655    0.3703856434    1.1960593822