19

 C    0.0093323685    1.5825780652    0.0588358340
 C    0.0376187152    0.0460902613    0.0636148853
 C    0.7779022662   -0.4781298939    1.3041014173
 C   -1.4131763418   -0.5156134766    0.0294752081
 C   -2.2147988298   -0.1167073792    1.1839487006
 N   -2.8391297159    0.2055180038    2.1014516244
 C    0.7231324208   -0.4802151595   -1.2304314931
 C    2.1110647050   -0.0449682920   -1.3673163735
 N    3.2078143711    0.3058209892   -1.4648715843
 H    1.0251745879    1.9867977633    0.0499452288
 H   -0.5161168964    1.9692968688   -0.8213958053
 H   -0.4997536359    1.9615153806    0.9491427552
 H    0.2841857165   -0.1400398376    2.2191668140
 H    0.8050173532   -1.5733406066    1.3194476651
 H    1.8090237445   -0.1148836629    1.3198154088
 H   -1.9273109171   -0.1749343358   -0.8773621526
 H   -1.3916048705   -1.6114230086   -0.0089591931
 H    0.7060616274   -1.5766669571   -1.2460147850
 H    0.1699095010   -0.1402341324   -2.1142346547