19

 C   -0.1332298873    1.4233212699   -0.2340527108
 C   -0.0350708407   -0.0855608594    0.0256816062
 C    0.8856025448   -0.4035543171    1.2135510796
 C   -1.4144335088   -0.6736690638    0.2749035887
 O   -2.3447925731   -0.4359715508   -0.8555354531
 C   -2.4638473556   -1.7703624980   -1.1144668717
 O   -3.0301016599   -2.3060131277   -2.0137635503
 C   -1.6147630533   -2.1978882368    0.0924281357
 O   -0.4577212057   -2.9408135711   -0.1877826065
 H    0.8541527559    1.8367535828   -0.4609010382
 H   -0.7972241948    1.6372209000   -1.0753257492
 H   -0.5208481850    1.9498425017    0.6463087519
 H    0.3713126126   -0.5745989446   -0.8670748215
 H    0.5013907150    0.0402944158    2.1398501419
 H    0.9859186414   -1.4815724857    1.3614107252
 H    1.8835584341    0.0102204354    1.0406047229
 H   -1.8644239167   -0.2685377008    1.1864984559
 H   -2.2198304215   -2.6552060934    0.8873284109
 H   -0.7145176114   -3.6926222064   -0.7337460075