18

 C   -0.0883144182   -1.2433681908   -0.1630525440
 C   -0.0375552423   -0.0460074874   -0.0702108316
 C    0.0033133526    1.4031522764    0.0667674088
 C   -0.6376293666    1.9512465294    1.3918228549
 C    0.2547715320    3.1508368626    1.6852457423
 C    1.7457966983    2.9058929385    1.9124986427
 C    2.1257137242    1.5710569152    1.2890312828
 N    1.3862799315    1.9533853715    0.0244031014
 C    1.2325716879    3.3382437159    0.5601298971
 H   -0.1278060080   -2.3002850357   -0.2578537686
 H   -0.5248443001    1.8535133614   -0.7828697529
 H   -1.6805325775    2.2432371915    1.2406723244
 H   -0.6172632924    1.1980730783    2.1843481162
 H   -0.1546161636    4.0281009195    2.1732031976
 H    2.3144421289    3.4745704479    2.6383766524
 H    3.1946893452    1.4833289468    1.0783062394
 H    1.7782508380    0.6479420893    1.7644376434
 H    1.3907786600    4.2193024595   -0.0481345564