17

 C   -1.4424856862    0.5006390626    0.7273351910
 C   -0.0359199122    0.2646353322    0.1799122427
 O    0.7390758979   -0.2701576954    1.2384845466
 C    2.1154457022   -0.5132700614    0.9487302630
 C    2.9613121071    0.7665285417    0.9485276708
 C    2.5913342809   -1.4501139260    1.9785721546
 N    3.0038203593   -2.1736522977    2.7780061498
 C   -0.0566591970   -0.6488357828   -0.9853270590
 N   -0.0508235325   -1.3577834322   -1.8978587199
 H   -1.3835657041    1.1932444301    1.5694667399
 H   -2.0846868581    0.9272024266   -0.0465101327
 H   -1.8734948984   -0.4416433303    1.0714826518
 H    0.3850840927    1.2186449235   -0.1697407450
 H    2.2069609760   -1.0224229145   -0.0219694519
 H    4.0140550252    0.5186423652    0.7908313580
 H    2.6475915348    1.4335998144    0.1415505274
 H    2.8586369424    1.2853429840    1.9041640227