23

 C   -0.0499525767    1.5390055674   -0.1780739967
 C   -0.0525763272    0.0131628782    0.0255085156
 C    0.7066006931   -0.4351445513    1.2507005159
 C    0.0886335639   -0.9000865972    2.3430173780
 C    0.8006049417   -1.3645607471    3.5585058787
 C    1.8607305021   -2.4542218465    3.4384068039
 C    2.2727857159   -1.0277486945    3.6718783251
 C    2.8700694964   -0.1613293910    2.5797322132
 C    2.2194486818   -0.3724316839    1.1989455213
 H    0.9665712760    1.9345283161   -0.2726207853
 H   -0.5954502456    1.8122715597   -1.0870635937
 H   -0.5250306128    2.0428602547    0.6694430692
 H   -1.0888089113   -0.3367647990    0.0931382082
 H    0.3779136541   -0.4625935245   -0.8674708580
 H   -0.9976947987   -0.9612114654    2.3567783128
 H    0.2137923731   -1.3709372969    4.4715431383
 H    1.9637851622   -3.1549156222    4.2602655527
 H    2.0059833583   -2.8941115151    2.4578189421
 H    2.6333505900   -0.7992435072    4.6710114789
 H    2.7365344385    0.8883459387    2.8720201473
 H    3.9512693421   -0.3277651750    2.5043976289
 H    2.6012146207   -1.2989877200    0.7466357276
 H    2.5447738822    0.4280237321    0.5246902059