20

 C   -0.4626744256    1.4783957727    0.0340209569
 C    0.0107920547    0.0192351189   -0.0210432059
 C    0.8831887038   -0.3321445819   -1.2664647082
 N    2.2756967269   -0.6016366232   -0.8448539538
 C    2.9006054491    0.5107648450   -0.1222863395
 C    2.2895463500   -0.6162261921    0.6303711774
 C    0.8950699663   -0.4266646390    1.1530712621
 C    0.5858814955   -0.2059845472    2.5699422823
 O    0.4028112765   -1.4943300488    1.9779711424
 H    0.3691995263    2.1883999725    0.0683399835
 H   -1.0608607805    1.7163625668   -0.8517186703
 H   -1.0896402688    1.6605357251    0.9125411912
 H   -0.8752720331   -0.6220231316   -0.0071458311
 H    0.5127772702   -1.2441023728   -1.7439024578
 H    0.8726032214    0.4621188409   -2.0200425378
 H    3.9813674981    0.5635442410   -0.2189872586
 H    2.4047651980    1.4775613341   -0.1054360505
 H    2.9034322583   -1.3623302369    1.1262182493
 H    1.3963101070   -0.1328312382    3.2951115116
 H   -0.3287048439    0.3135878647    2.8537048769