14

 O   -0.0352125441   -0.0911695638    0.0259232389
 C   -0.0257856606    1.1111403857    0.0290350163
 N   -1.0815803698    1.9892765119    0.0560822933
 C   -0.7153462089    3.4039423183    0.0510693481
 C    0.7804634164    3.2850342744    0.0160260338
 N    1.8192388462    4.0711767753   -0.0064626027
 C    2.8983114920    3.1933977944   -0.0339930853
 C    2.4900853318    1.8840912953   -0.0276964045
 N    1.1140913695    1.9603308788    0.0049362873
 H   -2.0255518200    1.6458447639    0.0765947732
 H   -1.1123052749    3.9284311729   -0.8264016566
 H   -1.0712816733    3.9240109439    0.9485260147
 H    3.9112976555    3.5652313331   -0.0568850548
 H    3.0155455402    0.9453762759   -0.0422457416