19

 C    0.1756851637   -1.2516557258   -0.1313886807
 C    0.1015757562   -0.0539291356   -0.0801829363
 C    0.0036777205    1.4092082747   -0.0269454345
 C    1.3986458434    2.1020338788    0.0518238884
 C    2.1557056726    1.7988611853    1.3242947149
 C    3.0685199618    0.6027752691    1.4234600996
 C    3.6520239559    1.9915412102    1.3721383661
 C   -0.7646224967    1.9237155755   -1.1657658986
 C   -1.3705966769    2.3746587209   -2.0995318687
 H    0.2381406671   -2.3107842854   -0.1752454100
 H   -0.5401378810    1.6752382230    0.8920205159
 H    1.9856639538    1.8014419281   -0.8223980983
 H    1.2252611981    3.1804997375   -0.0363025965
 H    1.6193105656    2.0623848191    2.2334218574
 H    3.1049851618    0.0603437509    2.3615032519
 H    3.1675214924   -0.0251708740    0.5453884200
 H    4.1502912335    2.3000557243    0.4586044401
 H    4.0877933535    2.4057130169    2.2745540352
 H   -1.9166772753    2.7614935465   -2.9239824160