18

 C   -0.2106638524    1.3753332904   -0.0574595710
 N   -0.2330014619   -0.0774080383   -0.1660107372
 C    0.5498545407   -0.6415819308   -0.9622780692
 O    1.5106232683   -0.1181200019   -1.8135614269
 C    2.0143144990   -1.4570748541   -2.1513572670
 C    3.4339758436   -1.6715216688   -1.6771662837
 C    0.8609779995   -2.0913369471   -1.3166502216
 N    1.1954290731   -3.0637687018   -0.2995945907
 H    0.6310325146    1.8482237590   -0.5771570692
 H   -1.1429720654    1.7836477414   -0.4647154458
 H   -0.1768004745    1.6541015663    1.0010917928
 H    1.9295123112   -1.6118683400   -3.2312466963
 H    3.5330236249   -1.4627649230   -0.6078686214
 H    3.7317040978   -2.7094416103   -1.8520292577
 H    4.1201410059   -1.0131692356   -2.2175746697
 H    0.0907799236   -2.5172304140   -1.9655590382
 H    1.6342575287   -2.6104870280    0.4958537581
 H    0.3484692233   -3.4942039034    0.0555989547