19

 C    0.1498204317    1.6119841785    0.0351567091
 C   -0.0479151914    0.0932122483    0.0499982244
 C    0.7536042402   -0.5966196616   -1.1055085356
 O    1.8031062845   -0.9649022604   -0.1389614746
 C    0.9542296586   -0.6521825403    0.8915382042
 N    0.9136793673   -1.0898039568    2.0671404623
 C   -0.3910833728   -0.7368889208    2.6700711271
 C   -1.5297374513   -1.0221453451    1.6627360380
 N   -1.4118000485   -0.2868576740    0.3821889300
 H    1.1793091998    1.8795168272   -0.2179213521
 H   -0.5120739289    2.0631464888   -0.7139416118
 H   -0.0886627074    2.0476861892    1.0096642296
 H    0.2746454054   -1.4932530793   -1.5047552046
 H    1.1514862573    0.0352689738   -1.9022667981
 H   -0.5303397221   -1.3524613760    3.5638150723
 H   -0.4144740510    0.3119761015    2.9978672092
 H   -1.5245490403   -2.1003003394    1.4596102347
 H   -2.5021313051   -0.7832685780    2.1038001620
 H   -2.0009820161    0.5352148445    0.4035054937