16

 O    0.0482064583    1.3570644425    0.2956278347
 C    0.0020176811   -0.0266326605    0.1199355647
 C   -0.7074725162   -0.9080448722    1.1444205315
 C   -1.3390168928   -0.5956439206   -0.1741065411
 C   -2.6179355832    0.1595043253   -0.4990036803
 C   -2.7647105654   -0.9115890951   -1.6160801583
 O   -1.5570628600   -1.5811906970   -1.1918666320
 C   -3.9427649907   -1.7775219514   -1.5395917119
 N   -4.8841933544   -2.4446422489   -1.4777678066
 H    0.6739245523    1.5517820698    1.0016395187
 H    0.8492933784   -0.4733676282   -0.4008529638
 H   -0.3171708865   -1.9090446549    1.2955279754
 H   -1.1308462382   -0.4316139899    2.0233810767
 H   -3.3944349332    0.1271897006    0.2651032270
 H   -2.4794790412    1.1804114937   -0.8534040373
 H   -2.6702471381   -0.5263288532   -2.6372651775