14

 C   -0.0332916550    1.4681367137    0.0399752719
 N   -0.0082750689    0.0120599601    0.0780437380
 N   -0.0441214031   -0.6085723807   -1.1484473270
 N   -0.0267884118   -1.8583959595   -1.2371355889
 C    0.0312159406   -2.7297206716   -0.0764209271
 O    0.0444963512   -3.9284333389   -0.2514335516
 C    0.0683196821   -2.0577232863    1.1999141921
 C    0.0473094576   -0.7021227038    1.2360841595
 O    0.0761920070    0.0717638744    2.3366067171
 H    0.8684490774    1.8828543483    0.4971999116
 H   -0.0799841719    1.7458010807   -1.0122969161
 H   -0.9083749183    1.8539861081    0.5685918125
 H    0.1123796880   -2.6462025077    2.1083114189
 H    0.1149519151   -0.4951952967    3.1167686790