20

 C   -0.2271373815    1.6014176065   -0.0832333301
 C    0.0453107378    0.1099083901    0.0149785039
 N    1.0887360419   -0.5458212300   -0.8911458554
 C    2.3274098890    0.1941993651   -0.4830885361
 C    2.3762348189   -0.2652935865    0.9800521194
 C    2.5656959112   -1.7905183037    0.7606465645
 C    1.1604530901   -1.6944253311    0.1670678436
 C    0.8023036570   -0.5638284728    1.1592675995
 O    0.3026211290   -0.8263747950    2.4296235637
 H    0.5941252136    2.2188306574    0.2905739249
 H   -0.4246387306    1.8876323889   -1.1219830416
 H   -1.1172479604    1.8493637630    0.5043668180
 H   -0.8888823132   -0.4382682996   -0.1532508412
 H    3.1863671165   -0.1490317286   -1.0671006723
 H    2.2128677551    1.2653136312   -0.6486797843
 H    2.9508466783    0.2925055580    1.7201131243
 H    3.4063676693   -2.1249479123    0.1463252461
 H    2.5257749408   -2.3563352489    1.6943604009
 H    0.5154613413   -2.5355194025   -0.0791254744
 H    0.4619422959   -0.0581653893    2.9882140465