17

 O   -0.0184076829    0.0642949659   -0.1987157575
 C    0.0088931136    1.2527068707   -0.0258540161
 C   -1.2045844100    2.2388595932    0.0479505259
 C   -0.4878828654    3.5877460278    0.2828196923
 C    0.7744622023    3.5414592656   -0.6053866297
 C    1.8276979248    3.9614797033    0.4672215232
 C    2.6195410635    2.6242103550    0.3190515451
 C    1.1361621691    2.2200423769    0.1771593838
 C    0.6695801554    3.2731724563    1.2553865863
 H   -1.7774278081    2.1987685790   -0.8845914130
 H   -1.8758833185    1.9468715443    0.8625006364
 H   -1.1043622095    4.4838556936    0.3772743689
 H    0.8602011165    3.6446211275   -1.6892737517
 H    2.2354134633    4.9596695960    0.6341212935
 H    3.2440591958    2.5151191479   -0.5719437268
 H    3.1438083505    2.2587231480    1.2063848446
 H    0.6338298096    3.0655445790    2.3270290550