17

 O   -0.1093338993    1.3909546899   -0.0152401840
 C   -0.0520711830    0.0099073587    0.0284845283
 C    0.3785571744   -0.8352739711    1.2781015577
 C   -0.3721149599   -1.9173462960    0.4709739726
 C   -1.3643439964   -0.8160773212    0.0265458438
 O    0.4674213124   -2.1087656511   -0.6896402245
 C    0.7513908555   -0.7448762934   -1.0771044840
 C    0.3412808000   -0.4576651956   -2.4437750549
 C    0.0193866354   -0.1975032996   -3.5720356854
 H    0.7850599762    1.7428329310   -0.0868791393
 H    1.4425968967   -0.9985961515    1.4670696798
 H   -0.1445449905   -0.5164988391    2.1807922618
 H   -0.6694890141   -2.8839013905    0.8688921213
 H   -2.0438611399   -0.5012796873    0.8195494819
 H   -1.8858138668   -0.9523580565   -0.9217914337
 H    1.8303241174   -0.5576406590   -0.9741128222
 H   -0.2701251081    0.0263689423   -4.5691124795