16

 C   -0.0679434409    1.4046179364   -0.0129757117
 N    0.0631645434   -0.0348762661    0.0529149415
 C    0.6542445666   -0.6880787091    1.0850794192
 N    1.2531077798    0.0493492925    2.0319058313
 C    1.8404316302   -0.6469842718    3.0103102508
 C    1.8481200129   -2.0279372441    3.0829722828
 C    1.1805528775   -2.6779734163    2.0378604219
 O    1.1294410891   -4.0208536338    2.0263148312
 N    0.5864290143   -2.0367839698    1.0458386444
 H    0.9019258727    1.8813985026    0.1465273171
 H   -0.4382052739    1.6756494299   -1.0041693532
 H   -0.7603052841    1.7979728098    0.7425700521
 H   -0.4599191171   -0.6134438615   -0.5815282350
 H    2.3312018467   -0.0571632243    3.7819072990
 H    2.3243070190   -2.5773889290    3.8822387269
 H    0.6319796538   -4.2631517853    1.2320957318