23

 C    0.0921435856    1.5689249625   -0.0041410925
 C    0.0085510275    0.0390775484    0.0031219304
 C   -1.4192308984   -0.5314563607    0.0195863197
 C   -1.4168518472   -2.0588642141   -0.1592041182
 C   -2.8349611193   -2.6423149046   -0.1765973899
 C   -3.6129965557   -2.2788352303    1.1029041043
 C   -3.5758131738   -0.7797140060    1.3620459051
 O   -4.5711982870   -0.1316448375    1.5902828123
 C   -2.1889012350   -0.1518653188    1.3060896949
 H    1.1319053396    1.9008469498   -0.0831339480
 H   -0.4561470791    1.9903886603   -0.8541279425
 H   -0.3225178329    2.0081106006    0.9082401111
 H    0.5217636151   -0.3494903390   -0.8860135029
 H    0.5597882946   -0.3565383108    0.8676608499
 H   -1.9641802640   -0.0969280276   -0.8327179634
 H   -0.8954843025   -2.3193092196   -1.0876186786
 H   -0.8408957123   -2.5164152053    0.6585171598
 H   -3.3771215423   -2.2541778629   -1.0487067929
 H   -2.8007778105   -3.7308542522   -0.2914790945
 H   -4.6557635578   -2.6017179478    1.0604791010
 H   -3.1407945300   -2.7773565345    1.9618027363
 H   -1.6188032481   -0.5187747972    2.1735233084
 H   -2.3045231064    0.9281892573    1.4163721801