18

 O   -0.0475053942    1.0309922901    1.4292900537
 C    0.0144279345    1.4475054919    0.3024356674
 C    1.2065849051    1.2551587921   -0.6229372009
 N    1.3285102066    2.3893608371   -1.5264344778
 C    2.1061361985    3.5571639940   -1.1141390687
 C    3.5964674051    3.3310978326   -1.4853125236
 C    3.6618060163    1.9638313030   -2.1627169420
 C    2.2384688444    2.2991769552   -2.7058761929
 C    2.5811047736    3.8261167394   -2.5010971646
 H   -0.8216791192    2.0122114832   -0.1681020483
 H    2.0929617779    1.0327593765   -0.0117661739
 H    0.9883874378    0.3618856266   -1.2279105008
 H    1.7872627583    4.2441756761   -0.3401048194
 H    4.3937733486    3.8913697334   -1.0142750461
 H    4.3889194090    1.9681111815   -2.9786592783
 H    3.7908628423    1.0574616925   -1.5615138909
 H    1.8350537438    1.8155238645   -3.5943832311
 H    2.5232073117    4.6949058403   -3.1388869919