18

 C   -0.1022385799   -1.2002370143    0.2006713650
 C   -0.0721091282   -0.0052930758    0.0751552977
 C   -0.0034727573    1.4456210204   -0.0928078493
 C    1.4113919728    1.9724809175   -0.0773225392
 C    2.1501301922    2.4135884514    1.1546581966
 C    1.9001719349    3.4098260709    0.0454764251
 C    2.8329900211    3.1747620598   -1.1788714163
 N    3.7683954040    2.0640458284   -0.8646466374
 C    2.3756781287    1.7774388428   -1.2912109702
 H   -0.1354117509   -2.2546020475    0.3202977197
 H   -0.4941737765    1.7205380713   -1.0374978184
 H   -0.5798045982    1.9371103311    0.7012756735
 H    1.5184236199    2.5548389937    2.0269440177
 H    3.1514065206    2.0584839697    1.3602298791
 H    1.3139855305    4.3094548778    0.1837145966
 H    3.0626975867    3.9033283702   -1.9452220973
 H    4.3616585159    1.9327388255   -1.6835313871
 H    2.1640431336    1.1665374074   -2.1593883760