21

 C    0.0600486213    1.5518650771   -0.1081256119
 C   -0.0030880323    0.0285124073    0.0315034423
 C   -1.4321304949   -0.5204020785   -0.0382046763
 C   -1.4809258519   -2.0481426256    0.1050133950
 N   -2.8194606402   -2.6112895710    0.0534673478
 C   -3.5210657671   -2.6498087060   -1.2179887642
 C   -3.4198024925   -3.1166818860    1.1686760379
 O   -4.5337204341   -3.5955237031    1.2205194106
 H    1.0908743123    1.9144294271   -0.0508981088
 H   -0.3557172042    1.8791532370   -1.0674336399
 H   -0.5118772873    2.0454146822    0.6851195226
 H    0.6037205498   -0.4375233198   -0.7561731430
 H    0.4551235311   -0.2712636226    0.9834704342
 H   -2.0456191950   -0.0718115139    0.7535031234
 H   -1.8889765592   -0.2229750085   -0.9903246661
 H   -0.8695243851   -2.5126673520   -0.6816615115
 H   -1.0342395873   -2.3379975515    1.0629956510
 H   -2.9082856627   -3.1506460191   -1.9771568136
 H   -4.4467878369   -3.2055834425   -1.0681186103
 H   -3.7644826924   -1.6439670449   -1.5785437082
 H   -2.7571482113   -3.0444707659    2.0541116389