18

 O    0.0551556355    1.1656123569    0.6075737949
 C    0.0300501609   -0.1748253120    0.1622203033
 C   -1.3564349040   -0.5450108304   -0.3344722653
 C   -1.7140745409   -2.0446688570   -0.4134225484
 C   -2.6771725002   -1.7194728493    0.7228375010
 C   -4.0765902334   -2.1727997154    0.9645392457
 C   -2.9774834186   -2.4607318743    1.9822344923
 O   -2.3290985011   -0.3295717275    0.7302403713
 H   -0.6808390677    1.2475005923    1.2271650281
 H    0.7614268884   -0.2629386244   -0.6495175340
 H    0.3264815392   -0.8735389957    0.9623352139
 H   -1.6196054462    0.0549610718   -1.2129178256
 H   -2.1833521812   -2.3641874545   -1.3453681179
 H   -0.8990935312   -2.7279551753   -0.1614177834
 H   -4.8038298999   -1.4100013416    1.2212458578
 H   -4.4668955897   -2.9940156543    0.3718130819
 H   -2.6156748631   -3.4787763692    2.0864634084
 H   -2.9897886269   -1.8856853599    2.9020236560