20

 C    0.0238234689    1.4750490086   -0.4326391058
 C   -0.0740093323    0.1415496425    0.3166572444
 C   -1.4263476674   -0.5157866640    0.1213254199
 C   -1.7197764325   -1.3502612269   -1.1154290286
 O   -0.7170713514   -1.5991846902   -2.0510145304
 C   -1.6217614263   -2.0072120705    0.2407188958
 O   -0.4499014471   -2.7681390123    0.4527050419
 C   -0.5955893713   -4.1153577652    0.4394405061
 N    0.4251154929   -4.8512930787    0.5011497409
 H    0.9943558114    1.9509425037   -0.2621009277
 H   -0.0953954249    1.3185364964   -1.5087410436
 H   -0.7530998289    2.1747374783   -0.1048141496
 H    0.7183326583   -0.5295924745   -0.0237477009
 H    0.0983742279    0.2951885635    1.3887061234
 H   -2.2664256890    0.0690271539    0.4907576136
 H   -2.6932079471   -1.2629593443   -1.5889730580
 H   -0.0595272721   -2.1708534241   -1.6351927435
 H   -2.4996113701   -2.4034761583    0.7447594755
 H   -1.6431741235   -4.4386425151    0.3855408625
 H    0.1500145845   -5.8311657328    0.5057189541