19

 O    0.5563370934   -0.2319784185    1.3299958197
 C    0.0401255066    0.0408631625    0.0209753319
 C   -1.3695278428   -0.5323420642   -0.0623999125
 O   -2.1278125495    0.0395640334    0.9830237690
 C   -2.1413697025   -0.7224025117   -1.3964641084
 C   -1.1610056741   -1.8830178691   -1.7581477846
 C   -1.5285948419   -2.0856519504   -0.2720328208
 O   -1.0039903508   -3.0906246590    0.5340937775
 C   -3.0104633657   -1.8045333626   -0.6719071905
 H    0.6329941216   -1.1920725230    1.3990357271
 H    0.0067577889    1.1314606875   -0.0648760917
 H    0.7143923667   -0.3421812832   -0.7502854933
 H   -1.5022865978    0.1517491400    1.7120469837
 H   -2.5024055820    0.0599196141   -2.0595512878
 H   -1.5653293962   -2.6299329312   -2.4438221357
 H   -0.1319565030   -1.6337017366   -2.0151751570
 H   -1.5447478199   -3.1414404070    1.3303725757
 H   -3.6771241306   -1.4506471381    0.1116063445
 H   -3.4780510005   -2.5465166231   -1.3230667067