15

 N    0.0084261804    1.3797164239    0.0682203146
 C   -0.0782619752   -0.0005516386    0.0202953232
 C   -1.1074551131   -0.8742626410   -0.1713805699
 C   -0.5357579330   -2.1850467747   -0.0052501423
 C   -1.2516726065   -3.5048246135   -0.0921581888
 C   -1.8984141122   -3.7246135586   -1.3903864868
 N   -2.4158929415   -3.8915958322   -2.4097450991
 C    0.7786009317   -2.0040743744    0.2674032459
 O    1.0721545142   -0.6623997516    0.2905563480
 H    0.9169453263    1.7280798160   -0.2094583892
 H   -0.7304455044    1.8411561623   -0.4432891124
 H   -2.1294463160   -0.6319169925   -0.4139291188
 H   -0.5518072634   -4.3274782031    0.0887478325
 H   -2.0265201544   -3.5786269447    0.6817985550
 H    1.6030906770   -2.6688986174    0.4593721881