18

 C    0.3902659596    1.3656719806   -0.4441032496
 N   -0.1357012182    0.0948930965    0.0573997232
 C    0.5126166998   -0.3128221259    1.3001431581
 C    1.9342297934   -0.6182386174    1.0950861514
 N    3.0541361882   -0.8533222348    0.9388851755
 C   -1.5919584497    0.1150066720    0.1747404514
 C   -2.3242402341   -0.0409417961   -1.1680733030
 N   -1.6022287052   -0.6810418014   -2.1226069241
 O   -3.4661488334    0.3466602255   -1.3097768715
 H    1.4689914106    1.2855484819   -0.5997950397
 H   -0.0784122076    1.5974681305   -1.4029419196
 H    0.1954876953    2.2022321369    0.2495560364
 H    0.4397955064    0.4487093500    2.0988330642
 H    0.0251160728   -1.2178404787    1.6774181006
 H   -1.9106911807   -0.7302069693    0.7955774949
 H   -1.9815853503    1.0283055486    0.6501340012
 H   -0.6594267123   -0.9727342507   -1.9232641346
 H   -2.0226985345   -0.8616955984   -3.0184377246