21

 C   -0.1278968186    1.4451135331    0.1193315631
 C    0.0155335713   -0.0764561372    0.0105472745
 C   -1.3355871557   -0.7127849790   -0.3074810253
 C    1.2232726368   -0.4830730014   -0.8867675999
 C    2.1233157085   -0.5900631695    0.3692748466
 C    0.8467939278   -0.6390607568    1.2549427800
 O    0.8055420129    0.0662003783    2.4729935000
 C    0.4507818830   -2.0560856775    1.6195173547
 O    0.6755468158   -3.0275671150    0.9424997896
 H    0.8353984568    1.9475688823    0.2656512694
 H   -0.5580324088    1.8450869413   -0.8049226145
 H   -0.7905586849    1.7245464593    0.9452269670
 H   -1.7245732875   -0.3195877434   -1.2537963723
 H   -1.2615106900   -1.7986046398   -0.4054419888
 H   -2.0757395485   -0.4880328493    0.4697337503
 H    1.0712644432   -1.4591782579   -1.3507612041
 H    1.5196369468    0.2373174999   -1.6533884486
 H    2.7844815272   -1.4551166033    0.4384230547
 H    2.7003667233    0.3186926108    0.5622720349
 H    1.0661345077    0.9771556155    2.3088787724
 H   -0.0848845971   -2.1251367704    2.5913331463