18

 C   -0.1189921898    1.4649125507   -0.1288956924
 C    1.2537403263    0.8423540086    0.0183616490
 C    2.1761619630    0.2209640141   -1.0376819363
 N    1.4595086221   -0.9111512416   -1.6615842658
 C    0.8077292369   -2.0296429034   -0.8488575776
 C    0.6823391838   -2.1137500451    0.6526661671
 C    0.0819152361   -1.0219005672    1.1485791960
 C   -0.0077612216   -0.0197417160    0.0358913561
 C    0.0613258718   -0.8226347369   -1.2663444836
 H   -0.4437010692    2.0959119292    0.6936577081
 H   -0.4709968665    1.7993834182   -1.1020640344
 H    1.7091497386    1.0247083143    0.9866032304
 H    2.4645986837    0.9031865658   -1.8481243849
 H    3.1018261365   -0.1163456907   -0.5586273139
 H    0.8011442256   -2.9483934783   -1.4251953139
 H    1.0122900731   -2.9743501019    1.2200507273
 H   -0.1019568669   -0.8010774506    2.1937851127
 H   -0.7199394034   -0.7605052591   -2.0211547638