19

 C    0.1349472800    1.4950684877   -0.2048517369
 C    1.6822804311    1.4429191341   -0.1982406461
 C    2.0866855763    1.0167196906    1.1336699780
 C    2.0161186040    0.5660137912    2.2476191675
 C    1.4497250412   -0.0249424744    3.4514178305
 C    0.0543471316   -0.5765108706    3.0697104264
 O   -0.7505437518    0.4574429535    2.5155703171
 C   -1.3059258927    0.2215772292    1.2475765543
 O   -0.4031640677    0.2331782804    0.1720498116
 H   -0.1962367668    2.2781065262    0.4861950647
 H   -0.2220420700    1.7410658445   -1.2143786714
 H    2.0280541801    0.7351315364   -0.9611492500
 H    2.0740866928    2.4289266855   -0.4762800212
 H    2.0566712070   -0.8414482392    3.8612518007
 H    1.3428636970    0.7233919182    4.2458538226
 H    0.1807868797   -1.3943118725    2.3516629941
 H   -0.4459583940   -0.9679842763    3.9661159241
 H   -1.7756598232   -0.7699725701    1.2009654698
 H   -2.0676000646    1.0041433356    1.1316638042