22

 C    0.1657001873    1.5371767090   -0.1291802402
 C    0.2086465246    0.0129478579    0.0140978890
 C    0.5056478768   -0.4868607085    1.4408011894
 C   -0.5978821725   -0.1371339959    2.4492006145
 C    0.7302333007   -1.9853481268    1.4197385465
 N    2.0214815788   -2.4627609599    0.9214706967
 C    1.6776634699   -2.6816158914    2.3501612027
 C    2.4517772512   -1.9830124473    3.3394831519
 C    3.0775469666   -1.4188659612    4.1976529574
 H    1.1050390109    1.9899274176    0.2074856793
 H    0.0149296948    1.8260427620   -1.1741622843
 H   -0.6461225580    1.9840368607    0.4532612057
 H   -0.7448344864   -0.4152607277   -0.3272486452
 H    0.9838247347   -0.3878344600   -0.6494496887
 H    1.4438047569   -0.0262368635    1.7733878145
 H   -0.7483797848    0.9433212590    2.5209521097
 H   -1.5551152716   -0.5872932284    2.1582837678
 H   -0.3418563520   -0.5045262167    3.4476083313
 H   -0.1527214769   -2.5688297304    1.1524168351
 H    1.9167379944   -3.3379231265    0.4146462354
 H    1.4001432262   -3.6935760728    2.6388263778
 H    3.6401722283   -0.9169371692    4.9452950340