20

 C   -0.0151651103    1.5621202698    0.0648137285
 C    0.1528954012    0.0776348851   -0.0122198780
 N   -0.7986756963   -0.8676760469    0.6292758599
 C    0.6586411114   -0.9324566790    0.9614334540
 C    1.2825615450   -1.7525969676   -0.1413582262
 C    2.6298884174   -2.4058432328   -0.1640034994
 C    1.3708691774   -3.2379787575   -0.2862009823
 C    0.7312272691   -0.7434038556   -1.1913692169
 O   -0.1831548391   -1.2105489829   -2.1426062326
 H    0.9084461511    2.0767777291   -0.2207532082
 H   -0.8085790046    1.9024010280   -0.6106819214
 H   -0.2769931928    1.8808736221    1.0800278901
 H   -1.2643260013   -0.3587931109    1.3808738032
 H    1.0011063696   -0.7972486553    1.9808703089
 H    3.2470131166   -2.2707696166   -1.0471588076
 H    3.1901524942   -2.4631879688    0.7643407467
 H    1.0803420276   -3.8588130652    0.5548588093
 H    1.1242698516   -3.6494756226   -1.2597459487
 H    1.5247422083   -0.2179331364   -1.7309078658
 H   -0.9245101460   -1.5574145358   -1.6261303636