16

 O    0.2894736773    1.2629837155    0.4451022758
 C    0.2007716144   -0.1202173599    0.1760307382
 C   -1.1684824853   -0.4666708958   -0.3836746318
 C   -1.6214545240   -1.9367870148   -0.3074126619
 C   -2.6441868155   -1.4280098925    0.7459569913
 O   -2.1993534412   -0.0557174174    0.5590341794
 C   -4.0539839383   -1.6207943070    0.4557528789
 C   -5.2181096025   -1.7959976873    0.2134418164
 H   -0.4838136753    1.4765910165    0.9824568812
 H    0.9820498794   -0.3618382730   -0.5539597168
 H    0.3886584302   -0.7226558364    1.0812618409
 H   -1.3176787599    0.0310813243   -1.3487144326
 H   -2.0762220742   -2.3322213608   -1.2144812862
 H   -0.8803543865   -2.6421719882    0.0729869335
 H   -2.4291112044   -1.7645367218    1.7680417570
 H   -6.2484581042   -1.9451576614    0.0027402167