16

 C    0.7441576189    1.1693755939    0.2118711842
 C   -0.3254889620    0.1333655683   -0.0430415226
 O   -1.2368580228   -0.0838094008    0.7143779398
 C   -0.1886313592   -0.6889972310   -1.3659838674
 C   -1.5517289544   -1.2418939650   -1.7979006512
 O    0.3422067516    0.2157201817   -2.3366711580
 C    0.7643632133   -1.7737742509   -1.0983474005
 C    1.5564278594   -2.6556748697   -0.8948643675
 H    1.7383679520    0.7369776312    0.0671570725
 H    0.6472487609    1.9806122741   -0.5155013931
 H    0.6360605117    1.5582092397    1.2247938476
 H   -2.2189969866   -0.4087576161   -2.0315086885
 H   -1.4377382988   -1.8703953830   -2.6854863673
 H   -1.9937874639   -1.8326670296   -0.9946416828
 H    0.6539293123   -0.3063334642   -3.0837379491
 H    2.2518893078   -3.4374275384   -0.7104359762