16

 C    0.0467423313   -1.2579816152    0.2841961086
 C   -0.0022847274   -0.0589715708    0.2149481117
 C   -0.1120373776    1.3782464666    0.1104105626
 C   -1.3858163719    1.9019977368   -0.5300002020
 C   -1.4755619930    1.4800245234   -2.0113009764
 C   -2.6901071728    1.9723744135   -2.6540918828
 N   -3.6574639991    2.3700730850   -3.1453487059
 C    0.6536408970    2.2322533240    1.0418022155
 O    1.0876051744    2.0624586679   -0.3035937736
 H    0.1047874212   -2.3167395315    0.3534093976
 H   -2.2545007296    1.5241728586    0.0179773263
 H   -1.3935663105    2.9928454714   -0.4589271136
 H   -0.6044715698    1.8633399686   -2.5534271504
 H   -1.4494199625    0.3878732746   -2.0919685118
 H    0.2630847983    3.2176545102    1.2925923543
 H    1.2781221522    1.7630872968    1.7991122098