16

 N   -0.1613342527    1.2873089879   -0.3684312390
 C   -0.0285333150    0.0653161031   -0.0394321682
 C   -1.2789927674   -0.7889292816    0.0806736118
 O   -1.1558562095   -1.8540467430    1.0098247403
 C   -0.0378126524   -2.6531424684    0.7263791200
 C    1.2547165783   -1.8423192226    0.9183127949
 N    1.1709023893   -0.6247836289    0.1167167618
 C    1.4946423548   -1.5502879175    2.3479542470
 N    1.7207341701   -1.3057733205    3.4543826742
 H    0.7402825109    1.7579475950   -0.4757793708
 H   -2.1009436427   -0.1559932860    0.4120762673
 H   -1.5234475044   -1.1858398922   -0.9185976609
 H   -0.0555208166   -3.5032262284    1.4112557684
 H   -0.0595853255   -3.0230339514   -0.3111077498
 H    2.0996539487   -2.4426380234    0.5600863219
 H    1.9895311841   -0.0321239320    0.1616924412