17

 C    0.0576222308    1.5736763622    0.0673506933
 C   -0.0314467350    0.0429129282   -0.0560394572
 C   -1.4428002880   -0.4576992504   -0.1205839068
 C   -2.0302341286   -1.0590028213   -1.1709944339
 C   -3.4121270879   -1.4762794042   -1.0883015657
 N   -4.0283495465   -2.0577501654   -2.0549163605
 C   -4.0025281657   -1.1503788083    0.2191568589
 N   -3.4286360250   -0.5762424773    1.2122719788
 O   -2.0948025910   -0.2142954157    1.0514404365
 H    1.1029328872    1.8888458213    0.1259608179
 H   -0.3987216019    2.0624982614   -0.7985501304
 H   -0.4568857907    1.9221373157    0.9660993104
 H    0.4913193319   -0.3005397445   -0.9531132375
 H    0.4618641802   -0.4222005981    0.8060130967
 H   -1.4759534094   -1.2350027650   -2.0839346410
 H   -4.9939571137   -2.2663600027   -1.7907800846
 H   -5.0431771368   -1.4085084958    0.4094582451