21

 C    0.2823969568    1.6187297138   -0.0879733103
 C    0.0024891752    0.1315568634    0.0694434865
 C    0.7450754577   -0.8413267167   -0.9367428000
 C    1.3438679870   -1.5762978986    0.2859238192
 C    2.7480667470   -1.2753501094    0.8698818318
 C    2.0587207617   -0.2547479918    1.8588919759
 C    0.6713152084   -0.6349859043    1.2622407136
 C   -0.0269151652   -1.9086204441    1.7788988523
 O    0.6493083126   -2.7403191922    0.7788520112
 H    1.3567913033    1.8309171306   -0.1187274274
 H   -0.1493225703    1.9949663086   -1.0219414557
 H   -0.1481999250    2.1949182569    0.7383693583
 H   -1.0806289973   -0.0303891058    0.0661133434
 H    0.0978374579   -1.4600545600   -1.5615610197
 H    1.4831465662   -0.3444761139   -1.5745079154
 H    3.2051622532   -2.1423602916    1.3511502049
 H    3.4681717917   -0.8380261212    0.1728183172
 H    2.1791170413   -0.4812996185    2.9217382336
 H    2.3504104294    0.7862580612    1.7032256005
 H    0.2301694566   -2.2187900710    2.8000103268
 H   -1.1175411383   -1.9443664555    1.6594136232