17

 C   -0.1049908908    1.3925811961   -0.0828964407
 N   -0.0233160822   -0.0475817636   -0.0058445050
 N    0.0979051858   -0.8070603302   -1.1065563661
 C    0.1063247381   -2.0485631832   -0.6228490426
 N    0.1693685813   -3.1847468845   -1.4110248542
 C   -0.0086988384   -1.9907030155    0.7853471466
 C   -0.0214725712   -3.1321805379    1.7462490387
 O    1.0342681101   -4.0623784979    1.4756297098
 N   -0.0807942786   -0.7047714657    1.1402058116
 H    0.7620254356    1.7896387434   -0.6173847135
 H   -1.0148777610    1.6973169311   -0.6085604669
 H   -0.1219604413    1.7740361794    0.9370848358
 H    0.5420512283   -3.0162418877   -2.3348604892
 H    0.6299566893   -3.9510727814   -0.9372947631
 H    0.0197284553   -2.7521987643    2.7751401941
 H   -0.9390010425   -3.7225058572    1.6453837066
 H    1.8650329123   -3.5851477810    1.5783556980