13

 O    0.0146841030   -0.1048756689    0.0015156361
 C   -0.0028340080    1.1104377907    0.0057146159
 C    1.2097707566    1.9051487439    0.0004046970
 C    2.2208273411    2.5578320835   -0.0040611757
 C   -1.2260779623    1.8787101768    0.0164720674
 C   -2.2554963269    2.5066208569    0.0255127804
 C   -3.5147787862    3.2475070919    0.0372584022
 C   -3.3486496406    4.7009798749    0.0434019198
 C   -3.2257420205    5.8945241583    0.0485386536
 H    3.1173622465    3.1290526342   -0.0080314932
 H   -4.1110605274    2.9444623481   -0.8348326460
 H   -4.0999859532    2.9357907015    0.9137830413
 H   -3.1127549221    6.9505694681    0.0530736112