23

 C   -0.0780303590    1.6428898219   -0.0623996367
 C    0.1035986873    0.1208666765   -0.0089068280
 C    0.8054375335   -0.4817516751   -1.2462791950
 C    2.1870626939    0.1241387298   -1.4892814037
 C    0.7217810165   -2.0611949470   -1.3273242235
 C    0.5059762591   -2.8892300475   -0.0675494764
 C   -0.4541442526   -1.9547596720   -2.3469308968
 C   -0.1387254588   -0.4591657197   -2.4667678861
 O   -0.4413583165    0.3954189927   -3.2520750363
 H    0.8797272949    2.1683923464   -0.0128454825
 H   -0.5791520584    1.9471541483   -0.9860250681
 H   -0.6836121336    1.9840594063    0.7828126252
 H    0.6787801251   -0.1556651309    0.8843871598
 H   -0.8818130885   -0.3459438758    0.1101575789
 H    2.8250163666    0.0105681478   -0.6048748465
 H    2.6882820174   -0.3646285009   -2.3307425487
 H    2.1167355834    1.1893296536   -1.7245088685
 H    1.6166195197   -2.4254434339   -1.8430132571
 H   -0.4045152939   -2.5990804608    0.4656634593
 H    0.4133646066   -3.9510594418   -0.3200273025
 H    1.3467767303   -2.7896546736    0.6276006107
 H   -0.4008283282   -2.5372846157   -3.2699628312
 H   -1.4363824348   -2.1241695184   -1.8900799760