19

 C   -0.1781554762    1.6102381363   -0.0212414443
 C   -0.0263802105    0.0990012321    0.0164720041
 C    1.1938993098   -0.5664255439   -0.6286114339
 C    2.1607372113   -0.2389494091    0.5472800717
 C    2.5241487340   -1.7151504555    0.6273898398
 N    1.0434695183   -1.8181158821    0.2754640259
 C    0.7544047786   -0.5653414913    1.1671510655
 C    0.3701919971   -0.6999829083    2.6108472585
 H    0.7630045430    2.1185815644    0.2142165071
 H   -0.4998929803    1.9480446171   -1.0122428891
 H   -0.9300149062    1.9485444531    0.7000296958
 H   -0.9673127097   -0.4164080480   -0.2123233658
 H    1.4538398125   -0.6853225155   -1.6827660762
 H    2.7790992752    0.6530675035    0.6950307356
 H    3.1813221441   -2.1250583742   -0.1469648706
 H    2.7784428609   -2.1420258217    1.6031331167
 H    1.1166712577   -1.2694488106    3.1742615885
 H    0.2760881476    0.2863292418    3.0781595191
 H   -0.5914477472   -1.2151825183    2.7033033015