17

 C    0.0944833253    1.4833789333   -0.1719126017
 C    0.0320914490   -0.0202338582    0.0855056544
 C    0.4670878351   -0.8500739663   -1.1264061000
 O    0.5789300947   -0.4107064283   -2.2392176557
 N    0.7875934645   -0.4469653328    1.2530066033
 C    2.1176497334   -0.2944363878    1.4920765043
 C    2.3791180553   -0.9063267769    2.6994175836
 C    1.1302380666   -1.4117899977    3.1135898436
 N    0.1688379967   -1.1373864411    2.2357275225
 H    1.1193646713    1.8107786878   -0.3657653722
 H   -0.4990811519    1.7257209719   -1.0554526159
 H   -0.2949484785    2.0322484686    0.6881115522
 H   -0.9979462670   -0.3245872555    0.3087523584
 H    0.6684860491   -1.9172407883   -0.8870418695
 H    2.7583611836    0.2326683711    0.8027764374
 H    3.3295543165   -0.9741376838    3.2030448112
 H    0.8899092566   -1.9596310061    4.0129240639