17

 C    0.3899297178    1.5426228507    0.2496966679
 N    1.2327041978    0.4130776882   -0.1771672562
 C   -0.1862071970    0.1783789747    0.1406811851
 C   -0.4691820674   -0.6321595745    1.3471232820
 O    0.1435647932   -0.2961992577    2.6278199019
 C   -0.6795053546   -1.4559181501    2.9406953470
 C   -1.8400332951   -1.0554010287    1.9731906563
 N   -1.8511338953   -2.3437650568    1.2071432700
 C   -0.4078962031   -2.1786171966    1.5827747234
 H    0.6292477399    1.9320354811    1.2339171007
 H    0.0865320079    2.2847744961   -0.4838909281
 H    1.3552225017    0.4314488515   -1.1863735566
 H   -0.8732469906   -0.0221012198   -0.6785046984
 H   -0.6923400765   -1.8283883634    3.9656685381
 H   -2.7256927293   -0.4474161143    2.1614979845
 H   -2.2795096739   -3.0837923274    1.7685816212
 H    0.3813023145   -2.8793414429    1.3111208111