22

 C    0.3005175723    1.4777828919   -0.4648547877
 C    0.6196427291    0.0243646636   -0.1877035186
 O    2.0045240246   -0.3053751228   -0.4554030404
 C    2.0754440793   -1.1206366016    0.7296157016
 C    0.7392011616   -0.5480600907    1.2618157388
 C    0.9377664641    0.5110368210    2.3470304848
 N   -0.2501607866   -1.5939313850    1.5145150740
 C   -0.2981981798   -2.2756554114    2.8024638483
 C   -1.3989319927   -1.3636472616    2.3829197866
 H    0.9351440977    2.1545703563    0.1126508839
 H    0.4606898486    1.6900664131   -1.5268770531
 H   -0.7486342558    1.6925309102   -0.2342449415
 H   -0.0461075493   -0.6263910247   -0.7715712162
 H    2.0159626193   -2.1922007377    0.5008819407
 H    2.9778098335   -0.9152532695    1.3171891106
 H    1.7601800985    1.1759769901    2.0706377345
 H    0.0473892431    1.1307133018    2.4897793504
 H    1.1991711327    0.0578872061    3.3088887499
 H   -0.4208284177   -3.3541948730    2.7522465691
 H    0.3444774750   -1.9328096835    3.6105893569
 H   -1.4829391907   -0.4197862098    2.9156071973
 H   -2.3424075467   -1.7632849926    2.0211853801