19

 C   -0.1447476147    1.5538245212   -0.0283070195
 C    0.0133245495    0.0395941451   -0.0153530863
 O   -1.2596993294   -0.5564728496   -0.1686368539
 C    1.2113454272   -0.6589739702   -0.7547768499
 C    2.1401373369   -0.1478627346    0.3820900570
 C    0.8550814899   -0.6655658826    1.1111325016
 C    0.9433957225   -1.9023699266    0.1451210089
 C    0.5823782570   -0.6587584646    2.5186884379
 C    0.3466333232   -0.6389158480    3.6985220926
 H    0.7898589525    2.0996230873    0.1003024836
 H   -0.5771949348    1.8737584650   -0.9853543454
 H   -0.8328976962    1.8543391706    0.7674366696
 H   -1.7291493829   -0.0837480519   -0.8626881889
 H    1.4200565702   -0.6535783061   -1.8250082336
 H    3.0345454237   -0.7469906979    0.5623024531
 H    2.3668359996    0.9160223599    0.4427380435
 H    0.0213939271   -2.4523094569   -0.0223189779
 H    1.7980161595   -2.5602305476    0.3163107508
 H    0.1377361493   -0.6275454225    4.7393786369