22

 C   -0.0783401231    1.5211764240    0.0451601692
 C   -0.0479586422   -0.0022718479   -0.0243334387
 C    0.7622384565   -0.5272225447   -1.2047452042
 C    0.7308833627   -2.0441999059   -1.3412412568
 O    1.4784640610   -2.3860150783   -2.5001191506
 O    0.5795615455   -0.5367814244    1.1694628921
 C   -0.1710534492   -0.6773435982    2.2804044908
 C    0.6686798978   -1.2501338880    3.3953906001
 N   -1.4002661925   -0.3554334033    2.3074460811
 H    0.9362769431    1.9231729909    0.1312934626
 H   -0.5340913120    1.9293282266   -0.8623852567
 H   -0.6682034434    1.8488541348    0.9030381838
 H   -1.0730275681   -0.3849473501   -0.0566805008
 H    0.3653602247   -0.0848485146   -2.1253481014
 H    1.8036404156   -0.1974631978   -1.1136089450
 H    1.1564082309   -2.5042070353   -0.4381308411
 H   -0.3137525314   -2.3873802335   -1.4258469431
 H    1.5049522086   -3.3446958358   -2.5672362664
 H    1.5145868938   -0.5887150985    3.6060193264
 H    0.0792574374   -1.3778304534    4.3046982744
 H    1.0834220177   -2.2178011151    3.0969106035
 H   -1.7975708337   -0.5465081114    3.2239520507