19

 O   -0.1535865964    0.0147676039   -0.2098486226
 C    0.0150564071    1.1508918526    0.1582176736
 C    1.3139258070    1.8919045443    0.0652144181
 C    2.5919186941    1.1714643214   -0.4375781744
 C    2.9907952103    2.5549024468   -1.0241157666
 C    1.4784825485    2.8715710727   -1.1493650657
 C    3.5767443522    3.4143974155    0.1012204033
 O    3.0096774965    3.0815377481    1.3653648860
 C    1.6499730397    2.6841526348    1.3457108157
 H   -0.8323928793    1.7432065881    0.5792098406
 H    3.2469954328    0.7235991824    0.3119723457
 H    2.3449288829    0.4409129094   -1.2092534647
 H    3.6086721419    2.6040260783   -1.9232800715
 H    1.0379597314    2.4620206107   -2.0614520155
 H    1.1541585550    3.9078743014   -1.0107236734
 H    4.6527639420    3.2415123735    0.2105747883
 H    3.4268232876    4.4832271686   -0.1240419485
 H    0.9772650778    3.5542272643    1.4310023280
 H    1.5117739488    2.0647080433    2.2397098635