19

 C    0.1965111247    1.3106956251   -0.2258874587
 O   -0.1723112826   -0.0158178063    0.1224076070
 C    0.5565136190   -0.5393729078    1.1618514514
 C    1.9269835243   -1.0950896634    0.9848500698
 C    0.7874107495   -2.0431402136    1.3948702871
 C    0.4948481222   -1.8313180518    2.8503269277
 O    0.3885258926   -2.5556854484    3.7996659467
 C    0.2293283957   -0.3099424225    2.6582707150
 C    0.9744520203    0.7080135247    3.5121318654
 H    1.2593229621    1.3725903727   -0.4962063727
 H   -0.4122434346    1.5913721569   -1.0876137333
 H   -0.0000716806    2.0142077647    0.5944407484
 H    2.2308079050   -1.2367697638   -0.0476024546
 H    2.7417261715   -0.8795571597    1.6692610039
 H    0.5337697171   -2.8989305143    0.7821729924
 H   -0.8560504649   -0.1762784894    2.7559528815
 H    2.0558229483    0.6599180001    3.3512030590
 H    0.6475705082    1.7307158059    3.2989342254
 H    0.7881886422    0.5105932611    4.5725568186