17

 C    0.1154988048    1.3179981148    0.1152825705
 O   -0.2902299251    0.0058365505   -0.2143231812
 C    0.5074359735   -0.5911589259   -1.1846307420
 C    1.9362033753   -1.1487078391   -0.7984309178
 C    1.4638099747   -2.5182239024   -1.3076620670
 N    0.3169033301   -2.8903022517   -0.4378418564
 C    0.0766541197   -1.9999508519   -1.5826822160
 C    2.2110152139   -3.4893007543   -2.0322383370
 N    2.8308076286   -4.2720471421   -2.6188131681
 H    1.1255399956    1.3380270712    0.5501942369
 H    0.1035133151    1.9790150805   -0.7652937609
 H   -0.5931362971    1.6977111257    0.8540453430
 H    0.5925119025    0.0467414530   -2.0777801104
 H    2.7462516825   -0.7078889843   -1.3797973015
 H    2.1725312515   -1.1420890902    0.2666035799
 H    0.0066295779   -3.8236684265   -0.7097095985
 H   -0.6092860235   -2.2776488374   -2.3731093235