18

 C   -0.2803809619    1.7446120282    0.2256467262
 C   -0.1405175969    0.2443282408    0.1348888818
 O    1.1689984421   -0.2979225524   -0.1279257422
 C    0.5519376625   -0.5935407377    1.1401206660
 C    1.2734981109   -0.0781176657    2.3607429326
 O    2.4088694091   -0.8784212281    2.6466656860
 C   -1.2706170150   -0.4270103473   -0.6389439359
 N   -0.8792914315   -1.5080496935   -1.3619356616
 O   -2.4133675453   -0.0159385261   -0.5717703044
 H    0.4843654542    2.1917638637    0.8605348916
 H   -0.1988838527    2.1850794301   -0.7730914510
 H   -1.2713909381    1.9869243187    0.6145052522
 H    0.2290072203   -1.6317183257    1.2300008899
 H    1.5480351407    0.9762480208    2.2333796701
 H    0.6158156088   -0.1547321276    3.2331339412
 H    2.9976692117   -0.8143320245    1.8864353870
 H    0.1034503956   -1.6899447014   -1.4822764706
 H   -1.5586013546   -1.9689175822   -1.9437484989