18

 C   -0.0115481039    1.4467299523   -0.0623573544
 N   -0.0328469152    0.0026903925    0.0387746326
 C   -1.1837441822   -0.8331185487   -0.0025391290
 C   -2.5425022918   -0.2217703367    0.0558743033
 C   -0.8377962583   -2.1249927771   -0.0708909178
 C    0.6574508933   -2.2394075044   -0.0199102567
 O    1.2294798748   -2.9543730385   -1.0975441088
 C    1.1051069004   -0.7653844912   -0.0489120588
 O    2.2458473205   -0.3709467302   -0.1773488484
 H    1.0370992641    1.7491956754   -0.0526813755
 H   -0.4701269780    1.7967656338   -0.9942833471
 H   -0.5280219126    1.9147205506    0.7816204831
 H   -2.7137079560    0.4644713446   -0.7814771699
 H   -3.3033424420   -1.0034315965    0.0165265884
 H   -2.6867771974    0.3523747627    0.9786955471
 H   -1.5210520702   -2.9604027711   -0.0822986309
 H    0.9794024966   -2.6693963965    0.9462526935
 H    2.1417879280   -2.6410917009   -1.1658956509