13

 O   -0.1095430297   -0.0879669859    0.0018857651
 C   -0.0272232049    1.1139519432    0.0058337746
 C    1.2623912512    1.8986297944   -0.0018552035
 C    2.5033381551    0.9914083805   -0.0163674692
 C    3.7381338931    1.7641390325   -0.0234499613
 C    4.7412355157    2.4252703882   -0.0292569911
 C   -1.2529165604    1.9446656761    0.0192269274
 N   -2.2004002494    2.6072403229    0.0296803707
 H    1.2496470120    2.5700482093   -0.8702662295
 H    1.2645326022    2.5623959567    0.8725261765
 H    2.4759630626    0.3268360175    0.8543523468
 H    2.4611451550    0.3344874559   -0.8922965994
 H    5.6380158574    2.9940519987   -0.0347146971