18

 C   -0.0217085900    1.5293469019    0.0552755662
 C   -0.0008643954    0.0300728107    0.0192658438
 C   -0.9157869145   -0.8548871141    0.8175235384
 C    0.5768951649   -0.9695863909    1.0093423695
 C    1.2990374446   -1.7213088268   -0.1337939606
 C    0.4092213595   -2.2238355585   -1.2210956954
 C    0.7040256266   -0.7356063392   -1.1592688058
 C    1.3826207011   -0.0596919537   -2.2093240758
 N    1.9318509540    0.5073992233   -3.0581037973
 H    0.9629269482    1.9489946726   -0.1761791364
 H   -0.7321340577    1.9336229497   -0.6754246773
 H   -0.3195160763    1.8849898635    1.0462670503
 H   -1.4175988991   -0.3322326061    1.6268905732
 H   -1.5191870334   -1.6460981044    0.3873205502
 H    1.0548090871   -0.7701586710    1.9594781397
 H    2.3400868902   -2.0085376187   -0.0722192671
 H    0.9266078493   -2.7309349174   -2.0291417451
 H   -0.5893322091   -2.6022247407   -1.0393621604