18

 C   -0.1268344946    1.5705172204    0.0580267248
 C   -0.0080797690    0.0449046964    0.0004778739
 O   -1.3138904269   -0.5513673045    0.0103853411
 C    0.8225248696   -0.4634525569   -1.1641721387
 C    1.8213123647   -1.2590675605   -0.7868654776
 C    1.8908141963   -1.4324758889    0.7096666035
 C    0.7651295212   -0.5411215700    1.1839754337
 N    0.4496616307   -0.2333287274    2.3742672556
 O    1.2786524160   -0.8770238917    3.3055634733
 H    0.8585225507    2.0447881789    0.0833003513
 H   -0.6582914476    1.9451019976   -0.8254733379
 H   -0.6806915439    1.8598812185    0.9540041460
 H   -1.7987316589   -0.1950612345   -0.7427110139
 H    0.5771564859   -0.1988711817   -2.1876376304
 H    2.5201149921   -1.7459576404   -1.4579907382
 H    1.7446963636   -2.4730896831    1.0289665369
 H    2.8489240541   -1.1208125523    1.1445390493
 H    0.9274421360   -0.5604743699    4.1447838873