14

 O    0.5172359440    1.0498869527   -0.3237004157
 C    0.0833235404   -0.2451725053   -0.0392574654
 C    0.1504871499   -0.7554806755    1.4542805334
 C   -1.3691879917   -0.9184972170    1.4192994839
 O   -1.9392075911    0.3390954031    1.0807784297
 C   -1.4395634419   -0.4685795838   -0.0031958053
 C   -2.3875025915   -0.8919893598   -1.0517594357
 O   -2.0448462703   -1.2579264993   -2.1486323142
 H   -0.0223930070    1.6489370636    0.2072615741
 H    0.5807858713   -0.9221711154   -0.7353104225
 H    0.6911211779   -1.6987589005    1.5553524181
 H    0.5206124730   -0.0340879767    2.1864874993
 H   -2.0061433990   -1.6276648012    1.9354734142
 H   -3.4521750639   -0.8622443149   -0.7329558039