21

 C   -0.1474943796    1.5504163441   -0.0760272034
 C    0.0131497911    0.0276789533   -0.0666428264
 C    0.7172915353   -0.5558368346    1.1718404298
 C    0.8480075002   -2.0790639740    1.0735675066
 C    2.1039774275    0.0696860913    1.3914374862
 O    2.8608876354   -0.1218146919    0.2079077219
 O    0.0291525206   -0.1605606296    2.3989174869
 C   -1.2022443774   -0.6226804767    2.6630258640
 O   -1.7980858650   -0.3209465955    3.6564210792
 H    0.8212139139    2.0527119333   -0.1498469860
 H   -0.7439146007    1.8612135819   -0.9386547323
 H   -0.6495778386    1.9091327530    0.8270368397
 H   -0.9696959464   -0.4495297665   -0.1606072172
 H    0.5924483820   -0.2881957426   -0.9396278786
 H    1.6040444671   -2.3169525864    0.3213959684
 H    1.1705312700   -2.4950920963    2.0326535338
 H   -0.0876421334   -2.5621526935    0.7798721898
 H    1.9801639251    1.1335419989    1.6313932533
 H    2.5717225085   -0.4162919872    2.2596061693
 H    3.7448750418    0.2254002060    0.3547116612
 H   -1.6067272075   -1.2967715071    1.8887423739