19

 C    0.1311550874    1.6087204335    0.2024574633
 C   -0.1360330837    0.1582469839   -0.1535495584
 C   -1.3760936738   -0.0706258347   -1.0207387324
 C   -2.6509468965    0.2963282686   -0.2756060937
 O   -3.1635488447    1.3930608858   -0.3462961869
 C   -3.2198201168   -0.7439016357    0.5697854749
 C   -3.7055291082   -1.6128712162    1.2473954496
 C    1.0525832440   -0.7401804991   -0.4040328329
 C    0.2311588803   -0.9106716717    0.8510834045
 H    1.0171841840    1.6948672816    0.8385828453
 H    0.3044003471    2.2083762012   -0.6986252072
 H   -0.7132641751    2.0565133027    0.7356367956
 H   -1.3291591495    0.5606877396   -1.9145262995
 H   -1.4241268943   -1.1197467472   -1.3295087150
 H   -4.1433000540   -2.3678886197    1.8543498717
 H    0.9734400174   -1.4995263859   -1.1749623326
 H    2.0411792265   -0.3022541127   -0.3145175193
 H    0.6625585723   -0.5919603700    1.7938664592
 H   -0.4059291225   -1.7842431839    0.9304300938