15

 C   -0.5379939453    1.6022145626   -0.9520653964
 O   -0.7371015481    0.1959746548   -0.7834045018
 C    0.3769976241   -0.5208352415   -0.5471057806
 N    1.5358817562   -0.0270078599   -0.4716538315
 N   -0.0103634977   -1.8659702565   -0.4101372791
 C    0.8161754665   -2.9180576010   -0.1632692215
 O    2.0231033085   -2.8889362773   -0.0179964726
 C    0.0575057755   -4.2467132835   -0.0745317484
 O   -1.1345173787   -4.3347182287   -0.2105593277
 H   -0.0926260957    2.0376295515   -0.0540697042
 H    0.1233991573    1.7976620882   -1.7998226420
 H   -1.5298704853    2.0174576920   -1.1318779250
 H    2.2251869751   -0.7525378131   -0.2866857301
 H   -0.9951865609   -2.0838676700   -0.5019363222
 H    0.7236590384   -5.1071292075    0.1267416632