23

 C   -0.0345547064    1.5750342088   -0.1329904558
 C    0.0173450263    0.0881421437   -0.0086335019
 C    0.0287423594   -1.0189534206   -1.0392636041
 C    1.3053288299   -1.6195292244   -0.4548409006
 C    0.9043949966   -0.9090620744    0.8630250168
 C   -0.4247855358   -1.5941273078    1.3397896615
 C   -0.4581563393   -3.1137937601    1.5060793725
 C   -0.9543165011   -0.9149449361    2.6067963304
 C   -1.0390367696   -0.9839888501    0.0738502513
 H    0.9270178000    1.9884736912   -0.4604839299
 H   -0.7890825245    1.8729380137   -0.8698927463
 H   -0.2940826795    2.0573371753    0.8169501413
 H   -0.2601421599   -0.9442172510   -2.0810120267
 H    1.4469718790   -2.7052460877   -0.4406659676
 H    2.1888801391   -1.1513573195   -0.8995030347
 H    1.6570418649   -0.6252740441    1.5989091994
 H    0.2237006929   -3.4395780639    2.3009881318
 H   -1.4657652807   -3.4437737421    1.7852357665
 H   -0.1864445009   -3.6406414388    0.5887610566
 H   -0.9104262170    0.1755511215    2.5284465737
 H   -1.9966630323   -1.1949832597    2.7986747158
 H   -0.3667785013   -1.2142861814    3.4828195813
 H   -2.0913151099   -0.8919755425   -0.1735907011