17

 O    0.3197179952   -0.1812273046   -0.4668559275
 C    0.1851913957    0.9349780040   -0.0257875096
 C    1.2936035456    1.9139495950    0.0634216703
 C    1.1059921351    3.4147698943   -0.1650265882
 C   -0.2920029769    4.0033631347   -0.1551465864
 C   -0.8698345152    3.6819291082    1.2353805602
 O   -2.0176798072    3.8166271245    1.5632393743
 C    0.2646435813    3.1641148810    2.1384877051
 C    1.4409527077    2.9097527398    1.2151643290
 H   -0.8075736687    1.2765388200    0.3401307101
 H    2.2271302536    1.5074044944   -0.3118947538
 H    1.8607990622    3.8915249039   -0.7788560337
 H   -0.2441582915    5.0949577625   -0.2564654765
 H   -0.9660837983    3.6449105615   -0.9379304820
 H    0.5115293609    3.9556177220    2.8573090915
 H   -0.0776969639    2.3055025625    2.7226210253
 H    2.4419914646    3.0152669663    1.6159182918