18

 N   -0.0660746089    1.2940243363   -0.3273536958
 C   -0.0326277284    0.0618255924   -0.0526134231
 O    1.1135198886   -0.6419710871    0.2166811047
 C    0.8226217020   -2.0164593589    0.4888834447
 C    0.4538199705   -2.3274003767    1.9677190064
 C   -1.0448718780   -2.4310524467    1.5797030266
 C   -1.7769136862   -1.0672891018    1.4921857676
 C   -1.2286312156   -0.8508740141    0.0378018855
 C   -0.6462989732   -2.2873012094    0.0662655008
 H    0.8753364490    1.6904626727   -0.3087320912
 H    1.6243466574   -2.6124461595    0.0519541058
 H    0.8657616775   -3.2888087960    2.2862119054
 H    0.7345912134   -1.5632626302    2.6976431685
 H   -1.6058474275   -3.2731240571    1.9836119990
 H   -2.8627774780   -1.1845517280    1.4837313916
 H   -1.5140664228   -0.3070559853    2.2328161702
 H   -1.9781812623   -0.5910226606   -0.7065356478
 H   -0.8692445475   -2.9967452801   -0.7280419888