19

 O    0.1214947723    1.3765031120   -0.1381712089
 C    0.0716255658   -0.0409521992   -0.0020051786
 C    0.7593412942   -0.5038408508    1.2874631547
 C   -0.0865803738   -0.1958786105    2.4992921611
 C   -1.3928182220    0.0652982070    2.4292555193
 C   -2.1830446415    0.0554582945    1.1457399905
 C   -1.3888522035   -0.5554898833   -0.0303663259
 C   -2.0602090002   -0.2176009491   -1.3447144148
 O   -2.6267316342   -1.0156999325   -2.0481080684
 H   -0.0997359316    1.7565813207    0.7199360026
 H    0.6137511984   -0.4298172072   -0.8702177068
 H    0.9753507324   -1.5798215650    1.2356545107
 H    1.7311416309   -0.0013805094    1.3620959466
 H    0.4136583972   -0.1841429188    3.4642057731
 H   -1.9461117975    0.3021377080    3.3349532399
 H   -3.1153677141   -0.5040722136    1.2843631232
 H   -2.4963006465    1.0808251063    0.8965432931
 H   -1.3818538676   -1.6467271113    0.0621548179
 H   -1.9963982186    0.8571706421   -1.6229360791