16

 O    0.0574031553    1.5008322181    0.0086808535
 C    0.0240163507    0.1034468222    0.0074344162
 C   -1.3293372750   -0.6612837292   -0.0179246778
 C   -1.9588020540   -0.3061796479   -1.3755546067
 C   -1.5134808600   -1.5376198587   -2.0639752619
 N   -0.7452217289   -0.2739820205   -2.2851576619
 C    0.3325658312   -0.6759120275   -1.2823087456
 C   -0.6222431447   -1.8374713557   -0.8349381049
 O   -0.3237614268   -3.1026886401   -0.3930424126
 H   -0.3341112233    1.7965769994   -0.8218206622
 H    0.6531636955   -0.2396520281    0.8367643405
 H   -1.9666684435   -0.8070421725    0.8517025997
 H   -2.7750742456    0.3671801131   -1.6061293953
 H   -1.9290485481   -2.1362516927   -2.8650677258
 H    1.3216764070   -0.7655696793   -1.7282848885
 H    0.1493706502   -3.0474279207    0.4446533433