19

 C   -0.0068509476    1.5087795879   -0.1232970199
 C    0.0735734436    0.0115198203    0.0417630725
 N    1.3967381804   -0.6150331225    0.0112522530
 C    0.6169836265   -0.6678152241    1.2723868431
 C    1.1950797886    0.0745955304    2.4638269449
 C    2.3498064991   -0.6796143117    3.1179418691
 O    2.8179175772    0.1270106030    4.1864357492
 C   -0.0062058747   -1.9367026597    1.5929006560
 N   -0.4888954959   -2.9572167911    1.8482749996
 H    0.8493850115    2.0122927948    0.3280885793
 H   -0.0171597219    1.7605289907   -1.1888340963
 H   -0.9257117017    1.9001726403    0.3246217368
 H   -0.7335070365   -0.5347102212   -0.4440536640
 H    1.3713582254   -1.5117291769   -0.4674966658
 H    1.5625507612    1.0493159827    2.1375539700
 H    0.4104825720    0.2482188705    3.2082358607
 H    2.0022699490   -1.6606588030    3.4768753271
 H    3.1353759351   -0.8566252920    2.3677392405
 H    3.5392663090   -0.3373207083    4.6205864342