16

 N   -0.1511214472    1.2436607029   -0.4678599119
 C   -0.0695531764    0.0671685172   -0.0472059295
 O    1.0043214111   -0.6269918941    0.4788995141
 C    0.2091040837   -1.8487943071    0.6464940744
 C   -0.1456675903   -2.1374407014    2.0976328480
 C   -1.3084991363   -1.1510659439    2.3841772961
 N   -2.0401920808   -0.9846364061    1.1156740058
 C   -1.0410587088   -1.1069360359    0.0676619523
 H    0.7416941608    1.7330908123   -0.3802098727
 H    0.6609485427   -2.6725789433    0.0929624054
 H   -0.4935647150   -3.1743662082    2.1764846769
 H    0.7091616440   -2.0131368057    2.7671773609
 H   -1.9821133503   -1.4898329036    3.1737931167
 H   -0.9075204530   -0.1778871123    2.6886569824
 H   -2.7228346213   -1.7276971099    1.0097392147
 H   -1.4703266328   -1.4360634809   -0.8782519039