23

 C   -0.0353755676    1.5395871969   -0.0713038223
 C    0.0618112521    0.0128550147    0.0032720883
 C    0.6811360319   -0.5686379558   -1.2761477549
 O    0.7157962543   -1.9873719581   -1.2613798722
 C    1.4659339528   -2.4899881634   -0.1720247138
 C    0.8695847643   -2.0401129261    1.1684851117
 O    1.6247906145   -2.5355454890    2.2657950290
 C    0.8114294893   -0.5042482340    1.2596920229
 C    2.1958976891    0.1271716080    1.4820624160
 H    0.9438552599    2.0038015914   -0.2259147240
 H   -0.6813696558    1.8487224927   -0.8998251551
 H   -0.4572637615    1.9519793828    0.8512068865
 H   -0.9598266190   -0.3884645197    0.0558086980
 H    0.0824314757   -0.2922359900   -2.1496812670
 H    1.6966866113   -0.1655894338   -1.4297660126
 H    1.4373346484   -3.5826004999   -0.2556429831
 H    2.5205333784   -2.1766660239   -0.2339018838
 H   -0.1646243983   -2.4181718799    1.2113328033
 H    1.5836862196   -3.4969540492    2.2485235657
 H    0.2010834276   -0.2594390332    2.1388157483
 H    2.8510367767    0.0326137293    0.6106087472
 H    2.1037102685    1.1924867376    1.7098288761
 H    2.6929947575   -0.3584901870    2.3237359359