15

 O   -0.1561521359    0.1810936599    0.6423610240
 C    0.0857404168    1.0478300414   -0.1535398429
 C    1.3426481893    1.9010979183   -0.1040503368
 O    1.2957274591    2.8058117904   -1.1799020515
 C    2.4268769885    3.6569491861   -1.2306066894
 C    2.3181027256    4.5644450442   -2.3606958120
 C    2.2610570412    5.3346021275   -3.2908925126
 C    2.1903294770    6.1982992841   -4.3395957779
 C    2.1294792734    6.9655697924   -5.2695985834
 H   -0.5920544853    1.3006246388   -0.9975351088
 H    1.3838466956    2.4168883112    0.8703368746
 H    2.2237612294    1.2392516795   -0.1565999198
 H    2.5137227024    4.2368813346   -0.2955102018
 H    3.3520694403    3.0617088924   -1.3199098245
 H    2.0738229227    7.6395305292   -6.0883038771