19

 C    0.0406035939    1.4621115764   -0.3507406184
 C    0.0339123955    0.0458997744    0.2214603991
 O    0.5427593606   -0.0128066859    1.5434446701
 C   -1.3602958274   -0.5882623871    0.1601219904
 N   -1.8083487755   -1.0870958874   -1.1559867125
 C   -1.5980433835   -2.0539090595   -0.0727451132
 C   -0.4905248483   -3.0668331030   -0.2235215800
 C   -2.3296521285    0.0834314158    1.0005709064
 N   -3.0760130183    0.6542614668    1.6768574219
 H    1.0517412906    1.8742652290   -0.3054250345
 H   -0.2932717287    1.4563909704   -1.3922614703
 H   -0.6269007004    2.1195112104    0.2185828512
 H    0.6996052040   -0.5820573792   -0.3749628468
 H    0.0567337410    0.6234069375    2.0815654870
 H   -2.7960336345   -0.8948354979   -1.3021284555
 H   -2.4937389416   -2.4388691022    0.4122513089
 H    0.3415072767   -2.6708584601   -0.8079737849
 H   -0.1172276637   -3.3771837997    0.7568813402
 H   -0.8692104122   -3.9532498487   -0.7425516492