12

 O   -0.9120426086    1.1960142439    0.6157766684
 C    0.1228957577    0.8931607279    0.0997889819
 C    1.3357314331    1.8310570672    0.0063569419
 O    2.5319752613    1.1348441766   -0.3775622828
 C    2.7013134887    1.8355254439   -1.6317108449
 C    1.4164282404    2.6172000430   -1.3752830837
 O    0.7483431387    3.4214291993   -1.9242754597
 C    1.4926778979    2.6782748479    1.1796112134
 N    1.6376813125    3.3647992819    2.0974811546
 H    0.3146652560   -0.0818160971   -0.3944288256
 H    3.6102201674    2.4478029401   -1.6567095662
 H    2.6778951748    1.1669771454   -2.4999023474