17

 C    0.0019524528    1.5383178378    0.0143035322
 C   -0.0183706932   -0.0027364215   -0.0332326384
 C   -1.4589992998   -0.5476654852    0.0279528089
 C    0.6834717888   -0.4979191494   -1.2177539146
 C    1.2468788749   -0.9041395929   -2.2014817220
 C    1.9389968900   -1.3768363989   -3.3935088967
 O    1.9771249629   -2.8003160697   -3.3947927072
 H    1.0263306292    1.9197380036    0.0010827564
 H   -0.5271414995    1.9573232881   -0.8472591274
 H   -0.4889925823    1.8951195148    0.9253377183
 H    0.5172904384   -0.3709878973    0.8530565039
 H   -2.0409339231   -0.1942189476   -0.8288609850
 H   -1.4661995997   -1.6405224345    0.0139318672
 H   -1.9542091175   -0.2086986277    0.9437112851
 H    1.4207243992   -0.9939922852   -4.2882338969
 H    2.9568767958   -0.9534003051   -3.4121852185
 H    2.4414897529   -3.0723919792   -4.1930191453