15

 C    0.0220861291    1.4814740752   -0.1742003978
 N    0.0200784771    0.0268185254    0.0043707356
 C   -1.1423666096   -0.5231032295    0.7909374650
 C   -0.7699332077   -1.9821507222    0.8652693999
 C    0.5555794347   -1.9561925135    1.0916311799
 C    0.8757898224   -0.4835800946    1.1355779859
 C   -0.3314314744   -0.0015832942    2.0660099519
 O   -0.5094593952    0.6580912413    3.0328491264
 H    0.9859095172    1.7771335874   -0.5984847923
 H   -0.7569067956    1.7430036432   -0.8961142434
 H   -0.1464816141    2.0639136356    0.7460859137
 H   -2.1486382132   -0.2047775421    0.5277723214
 H   -1.4526911598   -2.8173570746    0.8243048398
 H    1.2445128102   -2.7645355666    1.2849148656
 H    1.8994993090   -0.1255048807    1.2190697083