15

 O   -0.3179826837    0.1800750061    0.3517638478
 C   -0.0876039946    1.2981458516    0.0323698394
 O   -0.9523203552    2.2043369470   -0.5501801988
 C    0.0931765866    3.2187931658   -0.6621454486
 C    0.0877238411    4.1782291632    0.5477562808
 C    1.0740013715    3.2237586977    1.2459949258
 C    2.1620542779    3.5282790187    2.1757223395
 O    0.9917933121    2.8055294844    2.5863788094
 C    1.0990284120    2.2638484202    0.0379627925
 H    0.1841867162    3.5930941078   -1.6788432136
 H    0.5077234651    5.1651148513    0.3379408527
 H   -0.8874969545    4.2869720785    1.0256259920
 H    3.0817566263    2.9459609390    2.1439108976
 H    2.2560436194    4.5342798172    2.5824572599
 H    2.0508818896    1.9098487716   -0.3519894064