18

 O   -0.0161450845    1.3249182214    0.1573619913
 C    0.0398433636   -0.0557651309    0.0269946580
 C   -0.3517830321   -0.7710246378   -1.2438521576
 C   -1.1647968329   -0.9440619559    0.0279360108
 N   -0.8340209729   -1.9968932298    1.0482697722
 C    0.6219134862   -2.3017998028    0.7455209373
 C    0.8636720266   -0.8156689279    1.0892711881
 O    2.0946012246   -0.2108232268    1.3271112383
 C   -0.2852281389   -1.0717294174    2.1318120408
 H    0.8917192701    1.6483185454    0.1090188386
 H   -0.8448645860   -0.1242704773   -1.9637851724
 H    0.2315285390   -1.5622900391   -1.6996424966
 H   -2.1860017176   -0.5856109369    0.0650709421
 H    1.0049707107   -2.9865322811    1.5067043970
 H    0.8444906291   -2.6999740975   -0.2431210591
 H    2.5168045756   -0.6385543265    2.0785561751
 H   -0.9353705054   -0.2368054312    2.3999263772
 H    0.0103450849   -1.6457561480    3.0151489789