19

 C   -0.4177734722    1.3580002591    0.0343512303
 N    0.0090794728   -0.0322847231   -0.0310348041
 C    0.0148942190   -0.7588593313    1.2397440146
 C   -1.3712711379   -1.0840436369    1.8152377537
 O   -2.2347753034   -1.6976931587    0.8904091491
 C   -0.0685268364   -0.7605651026   -1.1913768170
 N   -0.3106243180   -2.0215898066   -1.2017946701
 C    0.3154607615   -0.0547187237   -2.4832713518
 O    0.1844015804   -0.5880031322   -3.5540609985
 H   -0.3352240971    1.8448604252   -0.9375806113
 H   -1.4638828582    1.4434367610    0.3558573640
 H    0.2094415726    1.9053278514    0.7459809727
 H    0.5664550447   -1.6866349624    1.0697099371
 H    0.5721969116   -0.1559383839    1.9683931072
 H   -1.2084507075   -1.7076994687    2.7119875678
 H   -1.8636190183   -0.1654729876    2.1633979236
 H   -1.6899345996   -2.1762045013    0.2426556472
 H   -0.2101983295   -2.3715672761   -2.1552291294
 H    0.7823346854    0.9452534982   -2.3937477452