17

 C    0.0737841936    1.5694792298    0.0158833077
 C   -0.0827594301    0.0896105706    0.1277376357
 C   -1.3622141498   -0.7552547880   -0.0033127210
 C   -0.7032065418   -1.8167671957    0.9725411878
 O   -1.2749216788   -1.7950207502    2.2691959988
 C   -0.5449030235   -3.1722840479    0.4662643065
 C   -0.4583292680   -4.3040855708    0.0696413570
 C    0.5522086297   -0.9150794904    0.9969925468
 O    0.9844128795   -0.7524770896   -0.3500058401
 H    1.0875134292    1.8674631564    0.2961562882
 H   -0.1082408816    1.9026493024   -1.0120789289
 H   -0.6386570654    2.0837682527    0.6685226988
 H   -2.2355804554   -0.3134329720    0.4811817722
 H   -1.6017281138   -1.0868714921   -1.0154694514
 H   -2.0175222854   -2.4087355117    2.2731597019
 H   -0.3605992467   -5.2997990633   -0.2869601007
 H    1.2815739881   -0.8443769501    1.7961038509