21

 C   -0.0431441341    1.5763873926    0.0743515455
 C   -0.0038670300    0.0475724284    0.1377602437
 C   -1.3764416396   -0.5924727484   -0.1101960471
 C   -1.3726701970   -2.1208804992   -0.0194453628
 C   -1.1664820460   -2.7710721799    1.3650465066
 O   -2.4543852839   -3.4230637201    1.3049954941
 C   -2.7757529191   -2.8002863072    0.0540373955
 C   -0.5353573270   -2.7221788975   -1.1265175820
 O    0.3465396298   -3.5288330680   -0.9825433324
 H    0.9459231541    2.0065325168    0.2574130015
 H   -0.3813825397    1.9242698661   -0.9079893835
 H   -0.7291456037    1.9861564974    0.8239111867
 H    0.7183413908   -0.3325876433   -0.5962283539
 H    0.3711785602   -0.2701179595    1.1189952208
 H   -2.1017281944   -0.2033223723    0.6154919191
 H   -1.7477448101   -0.2941162853   -1.1014368050
 H   -0.3417419933   -3.4876602627    1.4190658742
 H   -1.1055294566   -2.0643348076    2.2020212664
 H   -3.6103836233   -2.0908578976    0.1375495809
 H   -3.0079294728   -3.5331605320   -0.7297780379
 H   -0.8184415043   -2.3595342510   -2.1438340705