17

 O    0.1849243115    1.3731802187   -0.2366722132
 C    0.0357936374   -0.0214117384   -0.0212192366
 C    0.6417638590   -0.5030927993    1.2969572280
 C   -0.1641129420   -0.1252381266    2.5139058844
 O   -1.3449686260    0.6157952616    2.2926469467
 C   -2.1101438685   -0.0977172414    1.3450657148
 C   -1.5843368996   -1.5016636414    1.1678635305
 C   -0.2837803512   -1.5200559063    1.9490157474
 C   -1.4222529636   -0.4739019594    0.0572505956
 H   -0.2535561133    1.8104349462    0.5036545022
 H    0.5386068207   -0.4977128325   -0.8695784183
 H    1.7196011040   -0.5743405055    1.3870983891
 H    0.3079616291    0.1174550818    3.4577666109
 H   -3.1598718741    0.1664970664    1.3748891024
 H   -2.2183647763   -2.3748916702    1.1002917292
 H    0.0554252443   -2.4070473910    2.4659978205
 H   -2.0094042217   -0.5216013727   -0.8526467935