20

 C    0.2110819139    1.3318453913   -0.3675829841
 C    0.0572727640   -0.1460629133   -0.0087172373
 O    0.8307445008   -0.5648704561    1.0978500557
 C    2.2175376683   -0.7084725018    0.8471927419
 C    2.8512622910   -1.3890271947    2.0285051679
 C    4.2547521644   -1.0648192846    2.3869576969
 N    3.1473401382   -0.6313142469    3.2518531058
 C   -1.3862753114   -0.5001159455    0.3411665989
 O   -2.3489603717   -0.0066764374   -0.1835060360
 H    1.1961716812    1.5443870657   -0.7903548146
 H   -0.5518229090    1.6017994830   -1.1015730626
 H    0.0687141944    1.9501788924    0.5235312433
 H    0.3106477339   -0.7634563675   -0.8927276860
 H    2.3738788341   -1.3068459885   -0.0668426134
 H    2.6936550876    0.2721050236    0.6837737085
 H    2.4783525037   -2.3928327287    2.2194249188
 H    4.8967908198   -1.8314670293    2.8103045238
 H    4.7755044701   -0.3221213813    1.7867860498
 H    2.9493444750    0.3556946073    3.1027274693
 H   -1.4664602982   -1.2818425178    1.1273268833