19

 C    0.0070925735    1.4179711404   -0.0061182795
 C   -0.0525327216   -0.0897106273   -0.0288789312
 C   -0.9089975658   -0.8535261896    0.9332816857
 O   -1.8388984058   -1.8283163135    0.5518730168
 C    0.5987217294   -1.0036127345    1.0313179682
 C    1.4105675947   -1.8948827059    0.0733366319
 C    0.4519741472   -2.3094719242   -1.0639931096
 C    0.5592414255   -0.7854253401   -1.2721589711
 O    1.9717080757   -0.8957890226   -0.8592734878
 H    1.0052838066    1.7609538439   -0.2978434635
 H   -0.7211837115    1.8584156086   -0.6975791424
 H   -0.2054603514    1.8119085430    0.9927482735
 H   -1.2963544241   -0.2099124179    1.7278019980
 H   -1.9413767944   -2.4381236920    1.2908766361
 H    1.1047281627   -0.6004007409    1.9026257469
 H    2.1590244353   -2.5586001628    0.5059468158
 H    1.0047725893   -2.8304262861   -1.8457438544
 H   -0.5060062323   -2.7682864471   -0.8461092550
 H    0.4198193970   -0.2930311013   -2.2349813685