15

 O   -0.0923593204    1.4411000978    0.4406687496
 C   -0.0504140080    0.0665780947    0.1340923017
 C   -1.4819467221   -0.4250797837   -0.2433389084
 N   -1.0269955036   -0.4935397607   -1.6835445876
 C    0.2895729927   -0.4443372731   -1.2405211858
 N    1.3745583789   -1.0758335905   -1.4606523849
 C    2.1457317585   -0.9597035959   -0.2029094558
 C    1.0919624967   -0.6545241441    0.9110332300
 O    1.1818182430   -0.8867054275    2.0816753331
 H    0.8020898195    1.8002185787    0.4352492972
 H   -1.7542061022   -1.3998714603    0.1704134281
 H   -2.2598339291    0.3176076901   -0.0618138411
 H   -1.3163796885   -1.2591179199   -2.2834567836
 H    2.6666706084   -1.8973836041    0.0118774948
 H    2.9086699263   -0.1689000815   -0.2308288674