17

 C    0.1742457786    1.5359235534   -0.5086228978
 C   -0.0562532663    0.0943547022   -0.1189126458
 C    1.0214984482   -0.9032552983   -0.1380624982
 O    0.5646944378   -0.3376762587    1.0980299183
 C   -1.4910673857   -0.3806604884   -0.2643618302
 O   -1.6867269640   -1.7709563171    0.0665600219
 C   -2.4622414603   -1.4921436586    1.2538157589
 C   -2.4024765897    0.0012817573    0.9216077977
 O   -2.8518910651    1.0112301701    1.3653380401
 H    1.2038618196    1.8242957327   -0.2857902057
 H   -0.0099807259    1.6867685921   -1.5776073256
 H   -0.4994006107    2.1950579322    0.0485357240
 H    0.7734195320   -1.9516809727   -0.2801266145
 H    2.0201491312   -0.5975341172   -0.4472913925
 H   -1.8855598360   -0.1289961253   -1.2578080023
 H   -3.4573796677   -1.9513455380    1.2320531579
 H   -1.9363562359   -1.7692789858    2.1750515638