22

 C   -0.7202369441    0.6747540984   -1.9004800988
 N   -0.2214645362   -0.2629140582   -0.9040621298
 C    1.2232410332   -0.4165009627   -0.6945824357
 C    2.2530734793    0.3719164332   -1.4642668706
 O    2.3707002861   -0.2279855829   -2.7494136228
 C    0.3615307920    0.1883690930    0.3703890398
 C    0.4315396913    1.6537389139    0.7593620016
 C   -0.0948188410   -0.7111554029    1.5120712869
 O   -1.4735252703   -0.5219698861    1.7830887637
 H   -0.1747123355    1.6247259669   -1.9806230059
 H   -0.6828485676    0.1878429362   -2.8789617240
 H   -1.7645678384    0.9104102926   -1.6717967854
 H    1.5261211011   -1.4572924117   -0.5742214172
 H    1.9800839520    1.4315969482   -1.5464201448
 H    3.2065334576    0.3241828549   -0.9137001013
 H    3.0713872619    0.2247924693   -3.2284103892
 H    0.5618525892    2.3293570116   -0.0868195492
 H   -0.4929188186    1.9283848865    1.2769813337
 H    1.2633775470    1.8223528763    1.4519413626
 H    0.1196652552   -1.7596382845    1.2604208981
 H    0.4385366964   -0.4673525258    2.4378245510
 H   -1.9246561108   -0.7255840463    0.9544184074