21

 C    0.0513923799    1.5712956072    0.1430871419
 C    1.5521465390    1.9858449189   -0.0335177813
 C    2.1790046384    0.7593194939    0.5830353047
 C    2.6674723351    0.6878307437    1.8238773112
 C    2.3699307505   -0.5482184419    2.6416243355
 C    0.8370518104   -0.7948653243    2.4841537037
 C    0.4979585866   -0.9888974556    1.0035685101
 C    0.0427857818    0.0391135235   -0.0475878086
 C    1.4731986585   -0.4363721341   -0.0029012259
 H   -0.3039818063    1.8710912225    1.1352608061
 H   -0.5983485471    2.0505792759   -0.5954361472
 H    1.7788040257    2.0926803217   -1.1013371751
 H    1.8075969940    2.9199013678    0.4743950026
 H    3.0137849228    1.5823723340    2.3366363563
 H    2.9114864743   -1.4354543736    2.2931971333
 H    2.6382021327   -0.4012305129    3.6920936657
 H    0.5307285818   -1.6847163242    3.0453528475
 H    0.2983383766    0.0526939132    2.9227413074
 H    0.1153759796   -1.9808433239    0.7735436957
 H   -0.6451166940   -0.3551848042   -0.7887634173
 H    1.9443170793   -1.0535079875   -0.7607828161