15

 C   -0.3241606903    1.4417088135   -0.0199054997
 N   -0.0498522904    0.0061081912    0.0087544459
 C   -0.1626156293   -0.7132713268    1.2344791635
 N    0.2605550977    0.0264286698    2.3292426697
 O   -0.6297579163   -1.8175159926    1.3331844070
 C    0.2141296669   -0.7064571434   -1.1773120951
 N    0.0816695262    0.0467115064   -2.3341768208
 O    0.5218258421   -1.8744612367   -1.2066391980
 H    0.5646334285    2.0340001704   -0.2778175158
 H   -1.1185032481    1.6651333899   -0.7395091203
 H   -0.6687718435    1.7561895848    0.9636095285
 H    1.0430624425    0.6516163143    2.2086290073
 H    0.2839424037   -0.5212687068    3.1764521235
 H    0.2167611402    1.0434155801   -2.3236990934
 H    0.4668362400   -0.4272133043   -3.1363833323