20

 C    0.3786496503    1.4571879941    0.0223633850
 C    0.0066343172   -0.0273093108   -0.0220404106
 C    0.8732879041   -0.8410256244   -1.0295090467
 C    1.8159152505   -1.2364855592    0.1405626856
 C    0.6699405146   -0.8666281810    1.1153947528
 O    0.9288624969   -0.2868942985    2.3656875856
 N   -1.4378057451   -0.2008063497   -0.1110039731
 C   -2.1637799805    0.0967565487   -1.2180991552
 O   -1.7006109467    0.4944878323   -2.2684109963
 H    1.4647812435    1.5986702050    0.0494108527
 H   -0.0011453594    1.9516873014   -0.8741707372
 H   -0.0551776938    1.9384674375    0.9046323226
 H    0.3230688930   -1.6961076293   -1.4256450969
 H    1.2993540361   -0.2796737226   -1.8608186398
 H    2.1964484214   -2.2585076315    0.1795016427
 H    2.6619762411   -0.5480148936    0.2377575681
 H    0.0508708898   -1.7469242977    1.3204970084
 H    1.5485932420    0.4391618875    2.2393808155
 H   -1.9339789306   -0.4619413366    0.7277392137
 H   -3.2480305243   -0.0788075016   -1.0634721569