14

 O    0.0029715539    0.0069886804   -0.1392185270
 C    0.0081683527    1.1995824796    0.0119631177
 N   -1.2264482218    1.9139273462    0.1524708188
 C   -1.2321463452    3.1955491139    0.0728070466
 N   -0.0677722593    3.8814234375   -0.1227799086
 C    0.5680726463    5.2136306592   -0.0326026812
 C    1.9460294271    4.4561361428    0.0141211874
 C    1.1134706499    3.1835119211   -0.0185324107
 N    1.2458920523    1.9236411040    0.0831047470
 H   -2.1554079225    3.7661479154    0.1647059550
 H    0.3918576839    5.8399743803   -0.9092180435
 H    0.3097634078    5.7580615573    0.8785403046
 H    2.5872340694    4.6084855811   -0.8553063338
 H    2.5265942553    4.5992067910    0.9264265576