19

 C    0.3071822661    1.4312465132    0.2015255347
 C    0.0754226433   -0.0559908523   -0.0755347375
 C    0.7087531946   -0.5156765733   -1.3920441488
 O    2.1576296039   -0.3306530067   -1.3760269613
 C    2.4033666940   -1.7505883154   -1.3282401347
 C    0.9193349640   -2.0743613080   -1.5246868156
 O    0.3971333185   -2.9068635320   -0.5262975788
 C    0.0988715691    0.1127958643   -2.5566763186
 C   -0.4257049372    0.5913283806   -3.5275646339
 H    1.3777090145    1.6532002622    0.2095425606
 H   -0.1630895160    2.0555638893   -0.5639968134
 H   -0.1094987440    1.7116692107    1.1732141543
 H    0.4975897506   -0.6674018870    0.7273145292
 H   -0.9980543934   -0.2787404854   -0.1115781211
 H    3.0891958132   -2.0772765259   -2.1166332318
 H    2.7811257611   -2.0775607826   -0.3517970188
 H    0.6710337129   -2.4329012454   -2.5289581610
 H   -0.5079395166   -3.1380115304   -0.7578031213
 H   -0.8791782187    1.0287477039   -4.3827114923