13

 N    0.0934410318    1.3768204629    0.1935065007
 C   -0.0621668177    0.0105809274    0.0676215665
 C   -1.1304051437   -0.8431204427    0.0396801950
 N   -2.5252326960   -0.9290100250    0.0279707769
 C   -2.7387230422   -2.1954217825   -0.0167307643
 O   -1.6321587671   -3.0352591741   -0.0394060933
 C   -0.5874908524   -2.1538415192   -0.0038483841
 C    0.7616193662   -2.0881999581   -0.0070142161
 O    1.0748962518   -0.7274545986    0.0425982541
 H    0.9167771777    1.7314445753   -0.2761238482
 H   -0.7355765301    1.8896123161   -0.0730432419
 H   -3.6914752584   -2.7026587313   -0.0394922195
 H    1.5944702102   -2.7634483802   -0.0412171757