22

 C    0.1029984036    1.6593781385   -0.2623089052
 C    0.0082883874    0.1741019384    0.1186861438
 C    0.5123875941   -0.7276361160   -1.0194602180
 C    0.8565578039   -0.0788358344    1.3696881255
 O    2.0510889240    0.1555291959    1.3990328950
 N    0.1774837608   -0.5749353786    2.4510919936
 C    0.8426093359   -0.9634161636    3.6588977392
 C    1.2820117424    0.1020512267    4.6249973912
 C    0.1042150807   -0.7800381974    4.9576397334
 H    1.1502337271    1.9371419301   -0.4083311997
 H   -0.4456360219    1.8563034391   -1.1886050420
 H   -0.3111089442    2.3014114596    0.5217599149
 H   -1.0406439354   -0.0720506153    0.3300631280
 H    1.5729639998   -0.5346853829   -1.2023905350
 H    0.3993279086   -1.7883642910   -0.7725887096
 H   -0.0436068832   -0.5325786276   -1.9417156249
 H   -0.7772682520   -0.8695596408    2.3225624757
 H    1.4889324503   -1.8328227667    3.5658208241
 H    2.2160272454   -0.0514482903    5.1522906953
 H    1.0804347168    1.1290276448    4.3464556990
 H   -0.8839306515   -0.3343297055    4.9117478355
 H    0.2167371576   -1.5439884231    5.7183279902