18

 O    0.2654853223    1.4172061787   -0.1198840826
 C    0.1610980765    0.0166898049   -0.0560590297
 C   -1.2712218092   -0.5245439292    0.0130573617
 C   -2.1353307344   -0.1057328679   -1.1792881670
 O   -2.2750083838    1.3062502559   -1.2855659500
 C   -1.3115330503   -2.0579073036    0.2645029797
 N   -2.0094219565   -2.2264532485    1.5496587518
 C   -2.2843540422   -1.0576571430    1.9498598119
 O   -1.9290431382    0.0185222531    1.2057823306
 H   -0.3894478914    1.7236536140   -0.7622783252
 H    0.6492011226   -0.4780590548   -0.9159821254
 H    0.6967344591   -0.3037487730    0.8449032769
 H   -1.6684811021   -0.4442376385   -2.1100929385
 H   -3.1189071859   -0.5910495496   -1.0990413008
 H   -2.6493311047    1.6061925264   -0.4474464021
 H   -1.8479178758   -2.5974585943   -0.5247627183
 H   -0.3067823666   -2.4915780347    0.3259350224
 H   -2.7958769893   -0.8139243558    2.8745755447