17

 C   -0.1258970368    1.3992613329   -0.0624087481
 N   -0.0449284542   -0.0416800572    0.0208928098
 N   -0.1440493769   -0.7932609467   -1.1089119824
 C   -0.0276613758   -2.0292149453   -0.6478488738
 C   -0.0760547379   -3.2252061735   -1.5382118145
 N    0.1393835834   -2.1114668456    0.7050650561
 C    0.1242353953   -0.8471887264    1.0958891981
 C    0.2704324395   -0.3722836046    2.5033632728
 H   -0.0264994710    1.8234006923    0.9374527442
 H    0.6745801561    1.7870072985   -0.6983544183
 H   -1.0877915941    1.7002282394   -0.4863377922
 H    0.8500396778   -3.8037040098   -1.4609677469
 H   -0.8969567944   -3.8897315505   -1.2504571036
 H   -0.2162429862   -2.9171421838   -2.5757265761
 H    1.1457243982    0.2743328030    2.6287973019
 H   -0.6085364106    0.1880644780    2.8401205685
 H    0.3909039276   -1.2435364307    3.1477444246