17

 C   -0.4122836886    1.3521367179    0.0982466882
 N    0.1451610375   -0.0038702790    0.0878517028
 C    1.4767950218   -0.2906252259   -0.4267620627
 C    2.4258619404    0.7541817334   -0.9294749476
 O    3.2029535093    0.5044562570   -1.8209924947
 C    1.1408466598   -0.4389123118    1.0490080022
 C    1.7466966562    0.4812651870    2.0792759002
 N    1.9749877798   -0.1214223859    3.2796284715
 O    1.9987340767    1.6597199371    1.8870320310
 H    0.2516890995    2.1223335019    0.4969886331
 H   -0.6991474450    1.6021834850   -0.9269716291
 H   -1.3219971362    1.3277272714    0.7057888641
 H    1.5513233538   -1.2114197697   -1.0029432798
 H    2.3762437406    1.7467248688   -0.4537033270
 H    0.9869474547   -1.4611080489    1.3943037348
 H    1.7882168862   -1.0938601781    3.4469981279
 H    2.4038185236    0.4243836098    4.0090186250