13

 C    0.0051111223    1.4601946717    0.0489957650
 C    0.0169595297   -0.0284172074   -0.0356889185
 C   -0.1152389593   -0.8024642349   -1.1677991869
 N   -0.0332417401   -2.0997971680   -0.6782069300
 N   -0.0606230564   -3.3906348272   -1.0485283061
 N    0.0807559192   -4.1046181108   -0.0215088226
 O    0.2152178682   -3.2578476635    1.1382149915
 C    0.1371059322   -2.0083926049    0.6730182677
 N    0.1766541570   -0.7959430983    1.1284152535
 H    0.9423443380    1.8291028981    0.4782463898
 H   -0.1273052058    1.9105474237   -0.9375704595
 H   -0.8052183071    1.8025594408    0.7008245574
 H   -0.2508951979   -0.5726336795   -2.2086451413