14

 O   -0.2605839037    1.3482908246    0.0562172233
 C    0.0217882575    0.0231634841    0.0054298748
 C    0.0826396131   -1.0503193452   -1.0362463195
 N    1.3217890193   -1.6094086517   -0.4779621002
 C    0.9546567960   -0.9575230918    0.8152003040
 C   -0.3874834922   -1.6071815179    1.2729077736
 O   -0.8126407557   -1.9952594566    2.3278814420
 C   -1.0404079854   -1.1582651403    0.0057896809
 O   -2.3488785069   -1.1431873601   -0.3653597809
 H    0.4717237770    1.8400301458   -0.3361891727
 H   -0.1563318449   -1.0264430408   -2.0932150568
 H    1.3063728642   -2.6309592527   -0.4115200498
 H    1.7395002821   -0.7146468420    1.5269072249
 H   -2.8785768203   -0.8953367153    0.4031316464