13

 N    0.2002459788    1.4295203439    0.0055584029
 C    0.0198494106    0.0292006982   -0.0187708736
 C   -1.0951043836   -0.7836102437   -0.0296724179
 O   -2.3736970546   -0.2918484017   -0.0163258507
 C   -0.6629264866   -2.1368802776   -0.0554996725
 C    0.7179741364   -2.1149261781   -0.0597078911
 N    1.1168450148   -0.8117830737   -0.0375744408
 H   -0.2256732595    1.8428256096    0.8297807217
 H   -0.2366471134    1.8722266786   -0.7973470618
 H   -2.9822443510   -1.0355060569   -0.0302236515
 H   -1.2864312296   -3.0187486303   -0.0692047575
 H    1.4316737467   -2.9221694080   -0.0765755052
 H    2.0618992112   -0.4700009003   -0.0349436920