17

 C    0.0713309383    1.3949999753    0.0517060034
 O    0.3469418197   -0.0096594698   -0.0217865790
 C    0.6590688107   -0.5967435201    1.1518431702
 O    0.7312451840   -0.0114898653    2.1999496631
 C    0.8537340965   -2.0919722202    0.9496800372
 N    1.6522618305   -2.6637454730    2.0126070833
 C    0.9492086721   -2.9908671366    3.2462279901
 C    1.4021755966   -4.0689434677    2.3251672692
 H    0.9434072953    1.9390191148    0.4228767501
 H   -0.1674401643    1.7047118130   -0.9657178127
 H   -0.7721500592    1.5888512450    0.7193698081
 H   -0.1585785007   -2.5352677272    0.8712705001
 H    1.3442333315   -2.2597996763   -0.0137846290
 H    1.4895905044   -2.7772821046    4.1627830150
 H   -0.1192104162   -2.7891918567    3.2929985631
 H    0.6369705797   -4.5926422277    1.7537203149
 H    2.2832880911   -4.6613649428    2.5529149531