20

 C   -0.0504106385    1.5028012056    0.0062696703
 C    0.0811892073   -0.0047874684   -0.0400213095
 C    1.1956535066   -0.6190748929   -0.7819137424
 O    1.2265939651   -0.5356160292    0.6438309393
 C   -1.2219182858   -0.7527479492    0.0570396118
 C   -1.5007764356   -2.0519323057    0.6998081490
 C   -0.7226997687   -2.3025053573    1.9903810474
 C   -1.2420745020   -0.9243233932    2.4621225452
 N   -2.1152528977   -0.7537753940    1.2354977950
 H    0.9306414165    1.9763211981   -0.0782462013
 H   -0.6855132128    1.8596174045   -0.8115049195
 H   -0.5125612593    1.8214804481    0.9456277502
 H    1.0851838779   -1.6239737016   -1.1868248579
 H    1.9104453077    0.0177745034   -1.3015179439
 H   -1.8246034946   -0.5767395790   -0.8351352669
 H   -2.1140192780   -2.7957664233    0.1980349523
 H   -1.1559934422   -3.1226470507    2.5664817906
 H    0.3536113528   -2.4424891373    1.9024691819
 H   -1.8774887367   -0.9644762802    3.3483640385
 H   -0.4961179322   -0.1367272378    2.5949281799