17

 C   -0.0081146092    1.4080533732   -0.1302505256
 N    0.0408345441   -0.0438231199   -0.1034027743
 C   -1.0500411749   -0.6692666215    0.0403481123
 N   -2.3350192920   -0.1739181102    0.2409972512
 C   -3.4035455337   -1.1363383608    0.0234966681
 C   -2.6285319593   -2.4150305940   -0.2877117044
 O   -3.0465153798   -3.4101443673   -0.8190113863
 C   -1.1698427038   -2.1884990722    0.0948742654
 O   -0.2754526249   -2.8984179689   -0.7022437395
 H    0.9766549272    1.7995054113   -0.3963908260
 H   -0.7289921983    1.8006330714   -0.8671945381
 H   -0.2767734368    1.8299720415    0.8506414583
 H   -2.5142031255    0.8130245071    0.1660358342
 H   -4.0397157757   -1.2767848480    0.9085151502
 H   -4.0575599406   -0.8893068349   -0.8219954370
 H   -1.0801631263   -2.4752895584    1.1620912920
 H   -0.7753151305   -3.6436716185   -1.0652566306