19

 O    0.6506367364    0.7232198629   -0.9530773084
 C    0.1575155559   -0.2678989112   -0.0850429682
 C    0.1878884474   -0.0412310480    1.4516141380
 C   -1.2472387351   -0.6402069782    1.5603310685
 C   -2.3213922098    0.2695439907    2.1823477863
 C   -2.7552567366    1.1222324844    1.0106334491
 C   -2.2410284276    0.7103520004   -0.1495323415
 C   -1.3762234619   -0.5199224695    0.0101350371
 O   -1.8842103605   -1.6589194405   -0.6568810900
 H    0.2264859119    1.5544092734   -0.7109448391
 H    0.6592662330   -1.1984158648   -0.3663505587
 H    0.9825423913   -0.5449123127    2.0050410184
 H    0.2092144023    1.0240440914    1.7049222638
 H   -1.2610902854   -1.6678820370    1.9231319393
 H   -3.1727790978   -0.2900115855    2.5923680107
 H   -1.9194255708    0.8686042303    3.0092208949
 H   -3.4308603329    1.9642895072    1.1252252410
 H   -2.4401131405    1.1578085606   -1.1185294666
 H   -1.8373202393   -1.4947263740   -1.6055023746