17

 N   -0.3924150560    1.2901385227    0.0757920940
 C    0.0151754455   -0.1061250395   -0.0495766261
 C    0.8983928052   -0.3600165112   -1.2163081326
 N    1.5903110578   -0.5207875758   -2.1291423161
 C    0.7303470098   -0.5490810319    1.2267409879
 N    1.9109761758    0.2488007348    1.4694351895
 C   -0.1269701525   -0.9506187473    2.3879407528
 C    0.6417623439   -2.0067096012    1.6205721340
 H    0.4271544571    1.8220692129    0.3597357450
 H   -0.7016633215    1.6544996482   -0.8198208678
 H   -0.8783018904   -0.7266470831   -0.1847378672
 H    2.1535348897    0.2657224508    2.4522635277
 H    2.7092520940   -0.1141266721    0.9566316939
 H    0.2186409869   -0.6885141024    3.3828053526
 H   -1.2033244519   -0.8987501606    2.2703242905
 H    0.0868098773   -2.6913863208    0.9874771571
 H    1.5143258094   -2.4431070633    2.0943016649