14

 O   -0.1406969862    1.3787349643    0.1756859986
 C    0.0364973655    0.0022026353    0.0095676336
 C    0.8367351910   -0.2788143117   -1.2651314636
 O    1.2084124934    0.6205385458   -1.9733069113
 C    0.7112874382   -0.6389504583    1.1875443519
 C    0.3160545910   -1.5706893905    2.0954300178
 C    1.4567443489   -1.7211561594    2.9286230191
 N    2.4490923122   -0.9532208428    2.5522614331
 O    1.9799776201   -0.2652983084    1.4393648381
 H    0.3488382409    1.7940975997   -0.5534968226
 H   -0.9356631769   -0.5060398666   -0.1123976979
 H    1.0421831836   -1.3422238228   -1.4931344154
 H   -0.6405978900   -2.0599871989    2.1692811299
 H    1.5866419082   -2.3593429358    3.7911367187