19

 C    0.0957106677    1.5175613845    0.0109323967
 O    1.2241030494    0.6336242040   -0.0066915483
 C   -0.0817906858    0.0653682904    0.0222432094
 C   -0.4828168105   -0.7995360923    1.2255934669
 C   -1.1327193678   -1.9971897356    0.4930144182
 C   -2.5113896668   -1.5869004355   -0.0736514598
 C   -2.0838669072   -0.6907069385   -1.2760037102
 C   -0.5418585653   -0.7708451172   -1.1706956846
 O   -0.3272359067   -2.1070821584   -0.6926955092
 H   -0.0390728836    2.0878678541    0.9295115074
 H   -0.0682979797    2.0827022999   -0.9070120968
 H    0.4164669068   -1.1088034705    1.7641275061
 H   -1.1560967033   -0.2950371706    1.9232392015
 H   -1.1100717261   -2.9405217693    1.0378234223
 H   -3.0640610526   -2.4663570215   -0.4108267553
 H   -3.1275961065   -1.0606438659    0.6598097593
 H   -2.4206678423   -1.1107573073   -2.2259495680
 H   -2.4578162765    0.3338030379   -1.2065748845
 H    0.0212610067   -0.5968950280   -2.0867192713