17

 N   -0.0660235352   -1.1481505204   -0.0620743313
 C   -0.0420830275    0.0090555469   -0.0220087584
 C   -0.0018594030    1.4241430344    0.0391070980
 C   -1.0104988068    2.3550254131    0.6993873690
 C   -0.2988556507    3.2975797001    1.6687003371
 C    1.2156486151    3.0674085473    1.3906211614
 C    1.2336091753    2.3719864854    0.0285112795
 N    0.5606621010    3.1927419189   -1.0325261888
 C   -0.6985309274    2.4975309102   -0.7787434180
 H   -1.9829291568    1.9436483225    0.9451112845
 H   -0.5911758626    4.3383126472    1.4925449793
 H   -0.5598363635    3.0648565383    2.7039590500
 H    1.7929093988    3.9976932844    1.3813543446
 H    1.6596801070    2.4122453683    2.1482545957
 H    2.1925082583    1.9586612703   -0.2853215171
 H    0.5347264726    4.1900493173   -0.8220742296
 H   -1.4466063844    2.3745895359   -1.5538894960