23

 C    0.3865510642    1.4412707339   -0.2495827750
 C   -0.0467391300   -0.0048049528    0.0177722945
 C   -1.5676304037   -0.1199201987   -0.0852600556
 C    0.7959124245   -1.0169668343   -0.8228625200
 C    1.7465606577   -1.2122828065    0.3871102490
 C    0.6573646747   -0.5751884881    1.3013942866
 O    1.0731095871    0.4169231419    2.2132329789
 C   -0.1481058400   -1.6263205779    2.0613639706
 O    0.7038757485   -2.0915622464    3.1096701667
 H    1.4726108696    1.5575615428   -0.2132302425
 H    0.0421877568    1.7538053815   -1.2419204803
 H   -0.0378628362    2.1208230894    0.4946164696
 H   -1.9027946840    0.1959755403   -1.0798393494
 H   -1.9210238711   -1.1450010764    0.0649806444
 H   -2.0682920352    0.5233570863    0.6474054630
 H    0.2348659386   -1.9240727673   -1.0667009816
 H    1.2370591976   -0.6283588468   -1.7442753301
 H    2.0645431111   -2.2282549407    0.6310471514
 H    2.6266132148   -0.5681064659    0.3364504828
 H    1.3406477204   -0.0575317361    3.0114881132
 H   -1.0560093035   -1.1652788429    2.4740863892
 H   -0.4457639187   -2.4537244239    1.4022200443
 H    0.1734192368   -2.5877986015    3.7387179903