18

 C    0.4076333856    1.3802337319   -0.3677807202
 C    0.1105577478   -0.0474631297    0.0323657308
 O    0.8385826657   -1.0202156756   -0.7531705957
 C    1.4215591609   -1.6390771006    0.4165536607
 C    2.9370676808   -1.6479416875    0.3093722788
 O    3.3239331806   -2.3601250303   -0.8475402571
 C    0.7187491657   -0.6160577753    1.3585118712
 C    1.5634329810    0.2708037105    2.1395705323
 N    2.2307625912    0.9843271372    2.7583194667
 H    1.4715973272    1.6099885004   -0.2691060016
 H    0.1118000420    1.5338680772   -1.4098709126
 H   -0.1580606621    2.0785513603    0.2573518998
 H   -0.9669529135   -0.2460533143   -0.0247202198
 H    1.0492379095   -2.6629055175    0.5401902184
 H    3.3172529213   -0.6155945039    0.3019583818
 H    3.3770135846   -2.1611574486    1.1711021186
 H    2.8747677773   -1.9366533258   -1.5893392709
 H   -0.0229460656   -1.0696264285    2.0180489588