16

 O   -0.3454128919    0.1575667892   -0.5591089828
 C   -0.1235938010    1.1817411173    0.0298369652
 C    1.2130615699    1.8994827545    0.0121153333
 C    1.4701222787    2.6680034861    1.3174473372
 C    1.6074978844    1.7813168581    2.4731147828
 N    1.7120556894    1.0597282480    3.3693371464
 C    2.4040555734    1.0923392814   -0.5491237282
 O    2.6061350669    2.0381540617   -1.6225813759
 C    1.4293971684    2.7718794518   -1.2677424966
 H   -0.9236848143    1.6981542298    0.6085315366
 H    2.3838112608    3.2639269496    1.2208483755
 H    0.6506157607    3.3718722461    1.5103095800
 H    3.2787198396    1.0138876061    0.1052691094
 H    2.1179088902    0.1029898202   -0.9181006649
 H    0.6370680724    2.6816506439   -2.0210436521
 H    1.6319499825    3.8338824762   -1.0797820859