16

 C    0.0565226151    1.4629482161   -0.0745756325
 N    0.0487193419    0.0166102216   -0.0684930138
 C   -1.0421026789   -0.6362196882    0.0138912933
 N   -1.0768816392   -2.0061573600   -0.0530402936
 C    0.1761726329   -2.7537764613   -0.0379206896
 C   -0.0806302992   -4.1871414052   -0.0526693855
 C   -0.3036757657   -5.3670578562   -0.0519670661
 C   -2.3639050071   -0.0327738510    0.1527666873
 N   -3.4004729152    0.4640411292    0.2769442635
 H    0.7025891556    1.8208556523    0.7350058714
 H    0.5001134789    1.8178578465   -1.0122517763
 H   -0.9330558521    1.9267518949    0.0378891488
 H   -1.8976782990   -2.4763172677    0.2928191051
 H    0.7695990812   -2.4565633139   -0.9103590485
 H    0.7805555227   -2.4801541640    0.8395387764
 H   -0.4878950618   -6.4131846130   -0.0567965599