21

 C   -0.2999620750    1.5095350213    0.2339754186
 C    0.3030544600    0.1622397338   -0.1782107894
 C    0.9394059821   -0.5577039421    0.9914860648
 N    0.0514954205   -1.2479564164    1.9511103442
 C    1.0136881862   -2.0342922271    1.1567542783
 C    0.3729216462   -3.0552612812    0.2118992568
 C    0.4852052716   -4.4713393425    0.7887544920
 O   -0.9809162864   -2.7270851255   -0.0444291997
 H    0.4595409541    2.1770341866    0.6575530240
 H   -0.7496510783    2.0195829970   -0.6231433345
 H   -1.0787401532    1.3674058429    0.9899471584
 H   -0.4616039389   -0.4785619843   -0.6230590368
 H    1.0740974378    0.3176962014   -0.9443127036
 H    1.7698349616   -0.0105587047    1.4407839016
 H    0.3577277701   -1.1275254558    2.9108681177
 H    1.8955143823   -2.4096864101    1.6735497650
 H    0.8973291052   -3.0241426338   -0.7531490201
 H    1.5321676539   -4.7784503792    0.8927116698
 H    0.0104200081   -4.5224213603    1.7749301708
 H   -0.0209836821   -5.1810098325    0.1295141031
 H   -1.2728044658   -2.2457647374    0.7472157690