16

 N    0.0857565311   -1.1064596647    0.0656301721
 C    0.0691213403    0.0475157672    0.0437977815
 C   -0.0033728790    1.5078414622    0.0241488019
 O    1.3220726270    2.0140985744   -0.1299607207
 C    1.3944984947    3.3547186309   -0.1018845340
 N    0.4105862858    4.1508206287    0.0547865172
 C    0.9970029346    5.5005801404   -0.0071410158
 C    2.5383617774    5.2964216158    0.0956095440
 N    2.6560729420    3.8848234686   -0.2989502230
 H   -0.6397239932    1.8460626306   -0.8004652083
 H   -0.4491027843    1.8800249872    0.9525449463
 H    0.7259545890    5.9740431652   -0.9593481455
 H    0.6068165519    6.1336476031    0.7942386571
 H    3.1042292611    5.9473179448   -0.5751100572
 H    2.8979882050    5.4574458553    1.1209339356
 H    3.4396701364    3.3443809003    0.0384857687