18

 C   -0.3328991511    1.3827944004   -0.0041803936
 C    0.0496760330   -0.0691941690    0.0821260911
 N   -0.6417459965   -0.9913883343    1.0003894357
 C    0.7957674888   -0.7053986323    1.1941068434
 C    1.6965332019   -1.7799987359    0.6223451401
 N    1.1326059031   -2.0194759135   -0.7114350669
 C    0.5049535442   -0.7893127589   -1.1952215806
 C   -0.5976312655   -1.0757481998   -2.1271053281
 N   -1.4549757402   -1.2529392145   -2.8809448208
 H    0.4604316822    1.9778000719   -0.4695058968
 H   -1.2424265178    1.5124775630   -0.6009757614
 H   -0.5211017187    1.7934158063    0.9927020413
 H   -1.1863054117   -0.4424303703    1.6626124770
 H    1.1207899417   -0.1377695451    2.0595690267
 H    2.7323425151   -1.4000284742    0.6109331586
 H    1.6802889469   -2.7077173611    1.2054562707
 H    1.7917430387   -2.4103747136   -1.3705009821
 H    1.1974632858   -0.1067825292   -1.7204272744