20

 C    0.3008297425    1.1247376256   -0.6402168282
 N   -0.0189915278    0.0327566291    0.2743132316
 C   -1.0035115874    0.3251941352    1.3113340682
 C   -1.3543972029   -0.5378918572    0.1496988356
 C    1.4659593229    1.9175637301   -0.1320515615
 C    2.8346909184    1.4136084078    0.3570068617
 C    2.9278317132    2.6904456670    1.2654248190
 C    1.5590273758    3.1190800048    0.7210048311
 O    1.6827473187    3.2135187859   -0.7060868629
 H    0.5566437071    0.6834831766   -1.6126015629
 H   -0.5468110824    1.8123506671   -0.8068180602
 H   -0.8098951776   -0.1116408393    2.2867393864
 H   -1.4360651800    1.3242756258    1.3368563737
 H   -2.0223306052   -0.1141752014   -0.5988066964
 H   -1.4204043168   -1.6165237659    0.2598797158
 H    2.7595046276    0.4895519860    0.9322557349
 H    3.5911329111    1.3059399527   -0.4240449362
 H    2.9117647678    2.4492001627    2.3308931159
 H    3.7441062954    3.3867707951    1.0596548374
 H    0.7906482595    3.7268654422    1.1865210170