19

 C   -0.0959717173    1.4801534193   -0.0175568712
 C    0.0332255837   -0.0210586316    0.0004689001
 O   -1.1525698256   -0.5876207633   -0.4843621133
 C   -1.3530292005   -1.9944004026   -0.3857511761
 C   -0.8055399149   -2.6012480832    0.8744409006
 C    0.1367494168   -1.9900671616    1.5994204379
 C    0.7308379221   -0.7103733751    1.1660521240
 C    1.3752904379   -0.6595134510   -0.2378922266
 O    1.5126899529   -1.8170220108   -0.9994557691
 H    0.8266854226    1.9539351642    0.3284131536
 H   -0.3051858257    1.8296860895   -1.0335707625
 H   -0.9160037467    1.8021235363    0.6319085975
 H   -2.4404959625   -2.1330624163   -0.4222367244
 H   -0.9337405378   -2.4950909201   -1.2712027219
 H   -1.2272362363   -3.5521354566    1.1864311178
 H    0.4980877560   -2.4334894713    2.5228816997
 H    1.1894868224   -0.0993988110    1.9367424435
 H    2.2262395613    0.0106929798   -0.3481041673
 H    1.3723215515   -2.5766531946   -0.4191246023