18

 O    0.1400383326    1.3735750714   -0.0807583520
 C    0.1093202742   -0.0258845531   -0.0372355011
 C    0.1836501517   -0.6377249487    1.4039850654
 N   -1.2988872453   -0.4006085455    1.4587349116
 C   -1.3260421242   -0.6269514015   -0.0176853612
 C   -1.3086566923   -2.1202648309   -0.3837266555
 O   -1.0389314680   -2.1871846385   -1.7840372793
 C   -0.2473899039   -2.8258849377    0.4395622504
 C    0.4934928626   -2.1121812776    1.2890793134
 H   -0.5079398326    1.6802063521    0.5666723579
 H    0.8090666241   -0.4020725680   -0.7812586651
 H    0.7692850180   -0.1101171672    2.1601815659
 H   -1.8048662369   -1.0958607177    2.0050137075
 H   -2.1043488737   -0.0892492304   -0.5667793542
 H   -2.3014297166   -2.5593837385   -0.1797624512
 H   -0.9746855782   -3.1137529647   -2.0368401916
 H   -0.1162883866   -3.8971183227    0.3052457335
 H    1.2929228550   -2.5504465209    1.8789184957