17

 C    0.0699484500    1.5578108431    0.0311501902
 O    0.0957753574    0.1359218827    0.1202393100
 C    0.5878148240   -0.5241712691   -1.0161267643
 C    0.3912501908   -2.0739323746   -0.9265905615
 C   -0.2873627384   -2.1046710138   -2.3271302238
 C   -0.3938609987   -0.5781704327   -2.2521730799
 O   -1.0710880705    0.2478201085   -2.7856487904
 C    1.9353272149   -0.1281610669   -1.4134922535
 C    3.0374878915    0.1917201281   -1.7745171657
 H    1.0797415803    1.9666378320   -0.0973058309
 H   -0.5635165773    1.8932524592   -0.7967691229
 H   -0.3453418991    1.9115692436    0.9768566962
 H    1.3037612672   -2.6555596708   -0.8077487782
 H   -0.3052232598   -2.2967638974   -0.1168691187
 H    0.3887231283   -2.4159785621   -3.1294764209
 H   -1.2303083718   -2.6446522668   -2.4338070601
 H    4.0114989611    0.4774703468   -2.0881708457