21

 C   -0.0792643863    1.5549669290    0.0236418120
 C    0.0752943452    0.0359217714   -0.0257124392
 C    0.7949711819   -0.4439263572   -1.2850639857
 C    1.0267404639   -1.9500517326   -1.2154425115
 N    1.6622989041   -2.3366521524    0.0343014371
 C    2.2306108118   -3.6688110720    0.0925020470
 C    1.4948815862   -1.6408476797    1.2165812246
 O    1.9190289163   -2.0400099644    2.2911081589
 N    0.8546200662   -0.4207165446    1.1149493225
 H    0.8995933839    2.0430193009   -0.0153877422
 H   -0.6818074401    1.9069385315   -0.8191950042
 H   -0.5805998857    1.8693958091    0.9454915444
 H   -0.9333929044   -0.4133515073   -0.0135640391
 H    0.2047991733   -0.2024724474   -2.1742741701
 H    1.7564981230    0.0758973191   -1.3652229263
 H    0.0708526924   -2.4856014029   -1.3466633488
 H    1.6747538814   -2.2676292635   -2.0416464835
 H    3.0247322387   -3.7785437693   -0.6562600000
 H    2.6430314653   -3.8193622366    1.0886466167
 H    1.4708591603   -4.4399902322   -0.1017193389
 H    0.6530844626   -0.0279904889    2.0214312263