19

 C    0.2059392521    1.5734990570    0.1656707891
 C   -0.1450672730    0.1001414482   -0.0764758676
 C    0.6069101369   -0.5005708046   -1.2495246247
 O    0.3329553541    0.1274870526   -2.4819585402
 C    2.0045691510   -1.0541260243   -1.0705268947
 C    0.8399589873   -1.9773915260   -1.3910460244
 C    0.3503120448   -3.0114872540   -0.4019932655
 H    1.2766636125    1.6986409150    0.3612932033
 H   -0.0560911466    2.1904063120   -0.7006897503
 H   -0.3413856240    1.9729974801    1.0243728161
 H    0.0678162181   -0.4761510204    0.8293821531
 H   -1.2216219097    0.0069648531   -0.2666921927
 H    0.7698198456    0.9859101646   -2.4789340338
 H    2.7284896452   -0.8574868918   -1.8538270529
 H    2.4180919884   -1.0909514213   -0.0665994171
 H    0.8047128057   -2.2984846538   -2.4285054150
 H    0.4466804669   -2.6703732899    0.6328515041
 H   -0.7022580557   -3.2634807499   -0.5729886258
 H    0.9319231005   -3.9353826666   -0.4937772912