21

 O    0.1555741984    1.2399626081   -0.4088460424
 C   -0.0405312370   -0.1523021403   -0.2958100829
 C   -1.4741916065   -0.5342508104    0.1252986269
 C   -2.5284668760   -0.0282730126   -0.9073985120
 C   -2.7826593878   -1.2319005533   -1.8270645372
 C   -2.7856835364   -2.4181646368   -0.8531936228
 C   -1.6591433225   -2.0888483782    0.1520182963
 C   -1.7944555103    0.0537791955    1.4800587356
 O   -1.1087692688    0.8442829569    2.0863803382
 H    0.0400325021    1.5890053758    0.4847517998
 H    0.1712110495   -0.5809875039   -1.2818977097
 H    0.6689911145   -0.6047429827    0.4150406120
 H   -3.4628616699    0.2418993428   -0.3975053103
 H   -2.1614598235    0.8668789421   -1.4134702319
 H   -3.7102138525   -1.1391199997   -2.3988263321
 H   -1.9637381887   -1.3345499749   -2.5492149682
 H   -3.7500571093   -2.4632106114   -0.3335174072
 H   -2.6393482145   -3.3852916785   -1.3421168830
 H   -0.7162130747   -2.5609702597   -0.1447790623
 H   -1.8846330154   -2.4633343581    1.1562616902
 H   -2.7620550704   -0.2931989906    1.9120755930