12

 C    0.0235417008    1.3967495780    0.0076226402
 O    0.0216370673   -0.0219299243    0.0028533584
 C   -1.1994531882   -0.5903250400    0.0102438266
 C   -2.4553409786   -0.0594434834    0.0218317401
 O   -3.3640175651   -1.0596307459    0.0252913297
 N   -2.7071765335   -2.2769778572    0.0158584724
 C   -1.4288394900   -1.9956229912    0.0070082946
 H    1.0683915641    1.7086759038    0.0005560900
 H   -0.4839028310    1.7941196383   -0.8814578632
 H   -0.4699955140    1.7880954034    0.9071443866
 H   -2.8499966660    0.9419824973    0.0284441728
 H   -0.6971442759   -2.7900267687   -0.0014748581