18

 C   -0.1269241912    1.4995487826    0.1332897887
 C    0.0228129157   -0.0053137415    0.0482007704
 C   -1.2996721994   -0.7686677559   -0.1757031179
 N   -1.1183764479   -1.9886563325    0.5878683389
 C   -0.0203787928   -2.0447688546    1.4041639745
 O    0.2586586409   -2.9479061841    2.1622607324
 C    0.7903205507   -0.7767173586    1.1480557053
 C    1.8764098054   -0.9603025769    0.0695704571
 O    1.0164097797   -0.3907512568   -0.9415390789
 H    0.8447800503    1.9742122623    0.2939565050
 H   -0.5450434469    1.8922178950   -0.7999415152
 H   -0.7939427715    1.7821974350    0.9542589059
 H   -2.1651246213   -0.1932307064    0.1797118132
 H   -1.4286432611   -0.9645347556   -1.2459591621
 H   -1.7916821753   -2.7383304741    0.6022723384
 H    1.0724671463   -0.2781977830    2.0745140644
 H    2.7773498812   -0.3545864425    0.2264625744
 H    2.1687682974   -1.9904052325   -0.1591232844