20

 C   -0.6878087550    1.1873320304   -0.1966899439
 C    0.0315543382   -0.1277393720    0.0412590838
 O    0.5410900131   -0.3963293645    1.1066271011
 C    0.0779487737   -1.0926935546   -1.1336405917
 C    0.6433276773   -2.4637709660   -0.7505259129
 N    0.7888585089   -3.3545516300   -1.8931788112
 C   -0.2892702831   -3.9402056229   -2.4872238407
 C    0.0270832364   -4.9095854112   -3.6160648913
 O   -1.4320269025   -3.7080229931   -2.1285687524
 H   -0.3169162131    1.6779354545   -1.1031252757
 H   -1.7564201660    0.9994130111   -0.3532205933
 H   -0.5579785844    1.8443062671    0.6641527343
 H   -0.9261005046   -1.2136519424   -1.5543547432
 H    0.6835486805   -0.6324185830   -1.9273681265
 H    1.6191681843   -2.3480783879   -0.2754792735
 H   -0.0221302303   -2.9316256575   -0.0195747374
 H    1.7135898735   -3.5863271588   -2.2122224935
 H   -0.5925854951   -4.6578256372   -4.4797005214
 H    1.0784965964   -4.9096773463   -3.9156466194
 H   -0.2482622582   -5.9200279757   -3.2999445814