23

 C   -0.0609550612    1.5890639289   -0.1140868209
 C   -0.0061525629    0.0606277970   -0.0290333171
 O   -1.3300657089   -0.4432205348    0.1901121324
 C    0.6428818356   -0.5702230939   -1.2968102179
 C    2.1154837074   -0.8109749754   -0.9291475983
 C    2.0443133370   -1.3120761971    0.5263065147
 C    3.0120822708   -0.6576612348    1.5464478547
 C    1.9091406082    0.3851168090    1.8898457104
 C    0.8641165777   -0.4943475343    1.1313631371
 H    0.9133922790    2.0232406327   -0.3585435616
 H   -0.7570814456    1.8941605536   -0.9051428372
 H   -0.4069610271    2.0217543530    0.8290164440
 H   -1.8817352907   -0.1461684818   -0.5416646245
 H    0.1430976749   -1.5297442632   -1.4724208301
 H    0.5122411768    0.0445821627   -2.1943073728
 H    2.6159712736   -1.5113026324   -1.6042043620
 H    2.6744258429    0.1324797060   -0.9783452357
 H    1.9634412432   -2.4019719226    0.5621370403
 H    3.2354342765   -1.3162061033    2.3899593096
 H    3.9576265646   -0.2737731890    1.1523744449
 H    1.7121754248    0.5517511487    2.9514298682
 H    2.0841279828    1.3584682075    1.4268988718
 H    0.2205917606   -1.0493370365    1.8151906201