16

 C    0.0069312609    1.4891322054   -0.0302527858
 C    0.0457106535   -0.0237002612    0.0350670494
 O    0.0900649165   -0.6419947353    1.0783631574
 C    0.0262635385   -0.7029770097   -1.2458765990
 C    0.0095702035   -1.2572713651   -2.3214391544
 C   -0.0065731234   -1.9898467339   -3.5383246071
 C    0.0317218923   -3.4974912620   -3.5088245547
 N   -0.0542349555   -1.2850113422   -4.6193368936
 O   -0.0657124810   -2.0985378820   -5.7409701674
 H    0.8617521955    1.8629119608   -0.6040853439
 H   -0.8968460472    1.8198971344   -0.5532439149
 H    0.0260954536    1.8981268664    0.9808981446
 H   -0.8512949900   -3.9049754582   -4.0108962855
 H    0.9055303475   -3.8613653484   -4.0582759936
 H    0.0685070536   -3.8644802306   -2.4836741996
 H   -0.1017311084   -1.4603249584   -6.4627150718