19

 C    0.0637888472    1.2915093138    0.2762011728
 O   -0.0817589922   -0.0120634707   -0.2621233433
 C   -1.3583617458   -0.5252518386   -0.1575860472
 C   -2.5688743737    0.0044305180   -0.9298100077
 C   -3.5603651231   -1.0214626619   -0.3376565494
 C   -2.8817112260   -2.3739929988   -0.6605548722
 C   -1.5589349226   -2.0257261785    0.0091716263
 C   -1.9536330780   -1.0713883917    1.1253739076
 O   -3.3569302896   -0.8894212180    1.0831924000
 H    1.1225689861    1.5483957269    0.1994883575
 H   -0.5221263951    2.0334484213   -0.2834748653
 H   -0.2429017618    1.3281112500    1.3305567405
 H   -2.8365237395    1.0310694987   -0.6653602610
 H   -2.4614709108   -0.0831203841   -2.0143149277
 H   -4.6170763007   -0.9055858573   -0.5685611595
 H   -3.3942474001   -3.2148810219   -0.1856809975
 H   -2.7978059867   -2.5557299483   -1.7354474266
 H   -0.7176727254   -2.6987070188    0.0998713233
 H   -1.5039007124   -1.0292205702    2.1068934893