22

 C   -0.0602185200    1.6005114855    0.1068544910
 C   -0.0620692738    0.0769169651    0.2611540971
 C   -1.3330776192   -0.5712550381   -0.3055331427
 C   -1.3935200510   -2.0829904506   -0.1425451267
 C   -0.4005687599   -2.8769393627   -0.9720386712
 C   -1.7545016644   -2.6316975785    1.2313422423
 C   -2.7390739229   -2.7199102281    0.0897743383
 O   -3.8696741736   -1.8948641840    0.0818135434
 H    0.8518359320    2.0442323500    0.5186354031
 H   -0.1254660821    1.8919723837   -0.9475105313
 H   -0.9142599194    2.0514455719    0.6246870471
 H    0.8243295194   -0.3371886228   -0.2351609852
 H    0.0337477740   -0.1863052820    1.3224197505
 H   -2.2127405149   -0.1291502735    0.1724882691
 H   -1.4166392691   -0.3265819532   -1.3740644933
 H    0.6330012122   -2.6563049673   -0.6843092469
 H   -0.5499538576   -3.9543376562   -0.8481264910
 H   -0.5073203655   -2.6453037287   -2.0384886930
 H   -1.2732854997   -3.5382720574    1.5845420369
 H   -1.9805765488   -1.9067391431    2.0073131520
 H   -2.8992508944   -3.7003602759   -0.3610959063
 H   -4.4525042815   -2.1864285841    0.7902632470