13

 O    0.0976569533    1.4845422915   -0.0503636040
 C    0.0920076573    0.1053353904   -0.0608252891
 C    0.0179984180   -0.6414909150    1.3077797256
 O   -1.3714321345   -0.1349028836    1.4473915205
 C   -1.2822584123   -0.6266127801    0.0484952459
 C   -0.5687528703   -1.8954696538    0.5977945340
 C    0.2595981750   -2.7165441705   -0.2672074922
 N    0.9178140415   -3.3727509304   -0.9545913784
 H   -0.5492542511    1.7475852322    0.6207049254
 H    0.8066734614   -0.2524739259   -0.8029708434
 H    0.6633621652   -0.6001392903    2.1842489696
 H   -2.1783425163   -0.5676213793   -0.5679104182
 H   -1.2072794972   -2.4910066852    1.2500603745