18

 C    0.0721210227    1.5072601450    0.1326076513
 C   -0.0037811625    0.0184773404    0.0043554603
 C   -0.0533526992   -0.7216887609   -1.1166898127
 C   -0.0912691979   -0.2769789430   -2.5453190995
 C   -0.0159563554   -2.1769562924   -0.7602702733
 O    1.2008057553   -2.5745784417   -0.0798196976
 C    0.0449900281   -2.2711222450    0.7044172970
 C    0.0157703862   -0.8531143287    1.2531551539
 H    1.0161651033    1.8134562817    0.6018252385
 H    0.0009294147    2.0147975691   -0.8322307365
 H   -0.7316690909    1.8886384411    0.7756918287
 H   -0.1722729655    0.8080809270   -2.6428506875
 H    0.8111954931   -0.5964389203   -3.0820069118
 H   -0.9431129498   -0.7234424861   -3.0740185096
 H   -0.4470104313   -2.9383517452   -1.4052299198
 H   -0.3664649482   -3.1015726344    1.2719462629
 H    0.8866161149   -0.6443259453    1.8874503097
 H   -0.8750694675   -0.6864388114    1.8745006258