16

 C    0.1008892050   -1.1200596162   -0.0151021706
 C    0.0350553079    0.0815020553   -0.0235241505
 C   -0.0538149148    1.5049710731   -0.0335582167
 C   -1.1476833939    2.2547787935   -0.7798757628
 C   -0.7550738715    3.6595939139   -0.3963971014
 C    0.7150710021    3.7809232320   -0.2246836882
 C    1.2298476843    2.3576429739    0.0249614488
 C    0.3140354876    2.3110434808    1.2071125257
 N   -0.1751828163    3.7216725767    0.9846690246
 H    0.1596924633   -2.1800753756   -0.0082009777
 H   -1.1045877124    2.0929420656   -1.8613889308
 H   -2.1441747922    1.9811145775   -0.4200447915
 H   -1.3579071502    4.5182109846   -0.6694885371
 H    1.3131841657    4.6548884560   -0.4530612365
 H    2.2201931249    1.9559410582   -0.1300904252
 H    0.4095271005    1.9034497306    2.2037611700