18

 C   -0.1072393852    1.4516651930   -0.1034551509
 C   -0.0154227220   -0.0643183485    0.0657875059
 C   -1.3770516209   -0.6964388469    0.3434268146
 C    0.8842885779   -0.7818628493   -1.0067582811
 O    1.8331815583   -1.1569812252    0.0548127434
 C    1.0808133343   -0.5164822516    1.0172489448
 N    1.2774455604   -0.3744279646    2.2461603815
 C    0.3635914491   -1.9213441718   -1.7294643751
 C   -0.0774605809   -2.8528572825   -2.3476032827
 H    0.8726380983    1.8957249806   -0.3035689123
 H   -0.7783339545    1.7081847461   -0.9300395702
 H   -0.4996142018    1.9055459127    0.8108732264
 H   -2.0788198946   -0.4743804508   -0.4668316147
 H   -1.3059726275   -1.7818191109    0.4439829011
 H   -1.7829340407   -0.2920092127    1.2748929400
 H    1.3728002932   -0.0823822440   -1.6925563774
 H    2.1449335250   -0.8224865265    2.5460331784
 H   -0.4613468484   -3.6798827870   -2.8929901917