16

 C    0.0000766403    1.4033249591   -0.0113588233
 N   -0.0960800922   -0.0369051363   -0.0033908966
 C   -1.2589651457   -0.7110909040    0.0066304524
 N   -2.4034628544   -0.0683921688    0.0087538593
 N   -3.5074357709   -0.8470286748    0.0189555779
 N   -3.5835131209   -2.1566644748    0.0267375747
 C   -2.4494914534   -2.8159346109    0.0248745892
 C   -1.1576765881   -2.1827111911    0.0147550104
 N    0.0223135499   -2.7088161759    0.0120415599
 H    1.0538639583    1.6864625981   -0.0190349353
 H   -0.4880770839    1.8309086852   -0.8951812614
 H   -0.4777175696    1.8402052768    0.8736094193
 H    0.7193037070   -0.6331589102   -0.0033225288
 H   -4.3814926266   -0.3487270982    0.0200399676
 H   -2.5307389312   -3.8982581408    0.0315684827
 H   -0.0293564787   -3.7283781635    0.0183583720