17

 O    0.4501364421   -0.4247543996   -0.0561011030
 C    0.2736714190    0.7629505910   -0.0729261910
 C    1.3880174430    1.7879927305   -0.2029892683
 C    0.9399584827    2.9706996997   -1.0773297291
 C    1.9834022006    4.0163345691   -1.1227816493
 N    2.8020039593    4.8283134260   -1.2092459473
 N    0.5248373062    2.4552553688   -2.3800439156
 C    0.4526785526    3.3520167008   -3.5292415049
 C    1.5142435219    2.3093556978   -3.4470210583
 H   -0.7439275834    1.2008669799    0.0441734619
 H    1.6381737656    2.1502092469    0.8028432202
 H    2.2761149763    1.3029486628   -0.6151662060
 H    0.0514923651    3.4286991114   -0.6221091381
 H   -0.4142275951    3.2117560764   -4.1672943145
 H    0.7708264687    4.3837367237   -3.3973266576
 H    2.5272064473    2.6593201096   -3.2618313909
 H    1.4371147281    1.3923591351   -4.0221471581