14

 C   -0.0150377788   -1.2478929324   -0.1195823146
 C    0.0008407615   -0.0493060351   -0.0402075645
 C    0.0053575958    1.4065370083    0.0513396332
 C   -0.6117974980    1.9481969094    1.3419261749
 C    0.1923733016    2.8113733660    1.9625339015
 C    1.4919989471    2.9275522263    1.2342211997
 O    2.2153104914    1.6743817429    1.1789128004
 C    1.4093199627    2.0368685752    0.0665113791
 H   -0.0165964212   -2.3077107330   -0.1842987912
 H   -0.5434782423    1.8116542903   -0.8123873470
 H   -1.5808131245    1.6086860456    1.6865870729
 H   -0.0272753000    3.3354257018    2.8842047849
 H    2.1111895027    3.8180298725    1.2751794832
 H    1.9342573421    2.2025610123   -0.8697763324