15

 C   -0.2552558628    1.4326171182    0.0544492022
 C   -0.0124781971   -0.0579971980   -0.1046688277
 C    1.0277109398   -0.3950439179   -1.1515083434
 O    1.1880156941   -1.8162716184   -1.2584914706
 C    1.2176900723   -2.5340184733   -0.1138526539
 O    1.3641606120   -3.7178043934   -0.1272563643
 C    1.0560746596   -1.7573656719    1.2215887351
 O    1.4514417487   -2.2135910415    2.2509700046
 O    0.4474458934   -0.5529863677    1.1738276873
 H    0.6775318069    1.9563588652    0.2821715619
 H   -0.6800953611    1.8482601925   -0.8635430666
 H   -0.9565119838    1.6096120443    0.8727935089
 H   -0.9497416383   -0.5733834686   -0.3527151202
 H    0.7194960583   -0.0550622911   -2.1420643068
 H    1.9888357980    0.0709581317   -0.9004793763