15

 C   -0.1491439113    1.2501301204    0.2036793121
 O    0.0406287516   -0.1389694623   -0.0823907041
 C    0.6764884192   -0.3874648660   -1.2571320456
 O    1.0646699017    0.4492594361   -2.0226437699
 N    0.7787505891   -1.7657541638   -1.3805209492
 C    1.3553107900   -2.4962021075   -2.4207245837
 N    1.8885999700   -1.9532801609   -3.4428586782
 C    1.2722840387   -3.9188223419   -2.1955627236
 C    1.2161427978   -5.1092355267   -2.0321012216
 H    0.8117885575    1.7664801061    0.2705340898
 H   -0.7512097396    1.7268741966   -0.5738949004
 H   -0.6676120965    1.2848460920    1.1620045766
 H    0.3851848523   -2.2970090366   -0.6205381562
 H    2.2418269869   -2.6771156726   -4.0662536045
 H    1.1732363727   -6.1629033129   -1.8998958415