16

 C    0.0622672607    1.5824867383    0.0814060674
 C    0.1102833217    0.0859084910    0.0403919509
 N   -1.1268792293   -0.6956206625   -0.1580025047
 C   -0.7271850539   -1.6721717800    0.7783924524
 O   -1.2426787662   -2.6871059368    1.1442383978
 C    0.5584557069   -0.9186076427    1.0926768132
 C    1.3285476315   -0.7381182449   -0.2444055949
 C    1.4170387700   -1.8206500664   -1.2741065234
 O    0.5698123642   -2.0693138996   -2.0969591616
 H    1.0091413287    1.9928086105    0.4442304046
 H   -0.1186420109    1.9932637870   -0.9178210895
 H   -0.7440500434    1.9199021358    0.7386941711
 H   -1.4215553301   -0.9782992376   -1.0870027773
 H    1.0475481652   -0.7743988081    2.0462062025
 H    2.2824623193   -0.2392137119   -0.0746447914
 H    2.3606876856   -2.4079192420   -1.2328365672