19

 C   -0.0796743453    1.4310412332   -0.2107277294
 C    1.3113456945    1.9911844690    0.0309561329
 C    2.1389970319    1.4877426537    1.2096263091
 C    1.6393946930    0.8624038368    2.5037715105
 C    0.4876064610   -0.1054252396    2.4657527957
 C   -0.1773341294   -0.5337577212    1.3963605691
 C    0.1211102287   -0.0961493143   -0.0202162774
 O    1.4919668110   -0.3512912121   -0.3764885479
 C    2.2362872904    0.8120776829   -0.1340696700
 H   -0.8484763843    1.8174203340    0.4623800747
 H   -0.3813364783    1.6597387814   -1.2392274306
 H    1.5438786897    2.9669756646   -0.3806312486
 H    2.9910578844    2.1389754702    1.3990477566
 H    2.4910564250    0.3549083176    2.9828836548
 H    1.3769932511    1.6720599201    3.2024864989
 H    0.1955336073   -0.4828631807    3.4443679459
 H   -0.9974327915   -1.2349400722    1.5268141794
 H   -0.4886187324   -0.6772973340   -0.7172042148
 H    3.1573945033    0.8253644706   -0.7060388689