16

 C   -0.0810596735    1.5306676986    0.1342870060
 C    0.0274800315    0.0204345191   -0.0483946960
 C    0.7374213107   -0.4261534980   -1.2924210017
 N    1.2083324822    0.4395299832   -2.1259599580
 C    1.8547363839    0.0010975079   -3.2586022648
 N    2.3488385211    0.7614698303   -4.1329129051
 O    1.9580288039   -1.4183158953   -3.4298533220
 C    1.4275026865   -2.2020482593   -2.4924373301
 N    0.8233819504   -1.8192381006   -1.4337923009
 H    0.9073043926    1.9949962718    0.1737914197
 H   -0.6211380883    1.9904646566   -0.6969210497
 H   -0.6107454460    1.7605784745    1.0629384384
 H    0.5450250446   -0.4519326676    0.7978708051
 H   -0.9623907105   -0.4562294188   -0.0609687682
 H    2.7775431440    0.2204515801   -4.8824968600
 H    1.5630473468   -3.2567288825   -2.7230726925