18

 C   -0.8217728534    1.1864688996   -0.0911874646
 C   -0.0160348098   -0.1069555972   -0.0562878601
 C    1.0586021327   -0.2461053042   -1.1732315965
 O    1.6556705833    0.9793126441   -1.5821807638
 C    2.0716580392   -1.1791133646   -0.5492342694
 C    1.9385015426   -1.2494725921    0.7733725099
 C    0.7650079851   -0.4119956050    1.2680032263
 C    1.2519124042    0.7880258094    1.9575779154
 N    1.6567105776    1.7379809920    2.4786873698
 H   -0.1781836443    2.0629007458    0.0083744898
 H   -1.3550641146    1.2731583890   -1.0424324354
 H   -1.5613622156    1.2118901754    0.7152445213
 H   -0.6961066407   -0.9574425769   -0.1804338642
 H    0.6098799348   -0.6473540868   -2.0872546314
 H    2.2019761538    1.3042290802   -0.8567221627
 H    2.8522343673   -1.6577368519   -1.1291363535
 H    2.5808935351   -1.7889056715    1.4590455000
 H    0.1319573027   -0.9603472652    1.9746532393