17

 C    0.0138160646    1.4267123264   -0.2392957986
 C   -0.0143114855   -0.0749766665    0.1034679981
 C    0.6772149244   -0.3665103850    1.4393155201
 C   -1.4255043260   -0.5901412637    0.0665773905
 N   -2.0568444572   -1.0833886007    1.1227157930
 N   -3.2739751058   -1.3986118909    0.6143876246
 C   -3.3247488510   -1.0910639191   -0.6958855143
 N   -2.1762862073   -0.5771752539   -1.0814575292
 H    1.0463539069    1.7830292960   -0.3112711919
 H   -0.4876440832    1.6172399966   -1.1912253058
 H   -0.4928650775    2.0103899175    0.5371846844
 H    0.5264561076   -0.6008446698   -0.6949228063
 H    0.1657328695    0.1399267142    2.2633389733
 H    0.6809909705   -1.4364367778    1.6633430278
 H    1.7130103583   -0.0144465616    1.4112996973
 H   -3.9763278282   -1.8068916955    1.2084416512
 H   -4.1969992503   -1.2575324263   -1.3104889844