19

 N   -1.0744180018    1.5918354873   -0.3534418896
 C   -0.1183318327    0.4922290762   -0.2159390612
 C   -0.8203036747   -0.7267326814    0.2076622461
 N   -1.3567246055   -1.7065333568    0.5032468689
 C    0.7299047924    0.2166357576   -1.4877637965
 O    1.2705128407    1.4759616818   -1.8384273123
 C    1.8164774094   -0.8414596000   -1.2592202972
 C    2.5891894851   -1.1923419896   -2.5256496891
 O    3.2764506233   -0.0178796001   -2.9747816313
 H   -0.5587081658    2.3793101661   -0.7386516906
 H   -1.7764167986    1.3441371270   -1.0467489527
 H    0.5841658251    0.7675053685    0.5819343130
 H    0.0413885307   -0.1425843322   -2.2748991508
 H    2.0379286074    1.3044740685   -2.4048188409
 H    2.5186464659   -0.4748994469   -0.5003014274
 H    1.3595013682   -1.7594345846   -0.8740145471
 H    3.3082975701   -1.9963792266   -2.3170903617
 H    1.8957587810   -1.5531576316   -3.2996548217
 H    3.6368385598   -0.1814083531   -3.8511647179