16

 C   -0.1230343948    1.5000210331   -0.1661133156
 C   -0.0529998203   -0.0000700564    0.0102462263
 N   -1.2024958448   -0.6328882274    0.9725111726
 C   -0.3479338025   -1.9022675111    0.9074652789
 C    0.6906838122   -0.7852279397    1.0186397553
 C   -0.2378414198   -0.1921861883    2.1264534953
 O    1.9017021995   -0.9160311731    0.1722320570
 C    1.0726931952   -0.6162557177   -0.9367374628
 O    1.3599302841   -0.6969909234   -2.0807721103
 H    0.8762032715    1.9501643559   -0.1629345054
 H   -0.5773184204    1.7222531520   -1.1368352336
 H   -0.7304759182    1.9808990895    0.6031251680
 H   -0.4921545984   -2.5706829585    1.7573825031
 H   -0.4286860857   -2.4252876672   -0.0481992384
 H   -0.2103184733    0.8778453968    2.3174472961
 H   -0.3984019645   -0.7750459643    3.0347602735