23

 C    0.1867332606   -0.1408000651    1.9251628909
 C   -0.9454539748   -1.1629692939    1.7655011237
 O   -1.7074194808   -1.2631085900    2.9664969612
 C   -1.8630027202   -0.8741935094    0.5618488814
 C   -3.0782455658   -0.0315042513    0.8954773321
 O   -2.6771322374    1.1158487517    1.6541456371
 C   -1.2660908065   -0.7272949142   -0.8211908459
 C   -2.1307697199   -1.9217019186   -0.5053818865
 C   -1.5561273353   -3.3207661152   -0.4662658195
 H    0.7653974964   -0.3785084997    2.8227924671
 H    0.8639280180   -0.1542277515    1.0660868244
 H   -0.2189698549    0.8697783878    2.0202044397
 H   -0.4985055166   -2.1545184125    1.6430526162
 H   -2.0322507398   -0.3699836893    3.1409881917
 H   -3.5809469947    0.2748955746   -0.0332085882
 H   -3.7844345879   -0.6362979634    1.4811018194
 H   -3.4669810961    1.6179786653    1.8770951116
 H   -1.6475200231    0.0533869025   -1.4719209300
 H   -0.2007851349   -0.9073830788   -0.9308081167
 H   -3.1381791734   -1.8874804473   -0.9172963685
 H   -1.6103836648   -3.7814784872   -1.4587144401
 H   -0.5040850680   -3.3262678435   -0.1669464145
 H   -2.1048869702   -3.9633257611    0.2311724334