19

 C    0.6481684365   -0.8877238039    0.7439715229
 C    0.2646863637    0.1750312532    0.3324652650
 C   -0.2329239520    1.4532449875   -0.1939219838
 C   -1.1170534108    2.2075850403    0.8508898421
 C   -0.3096056248    3.3222108416    1.5307371336
 C    0.1912048552    4.3049087568    0.4336380017
 C    1.3137298275    3.2638388615    0.1932121116
 C    1.1724771217    2.8686580916    1.6881180609
 O    0.8543883506    2.2457279012   -0.6912061714
 H    0.9956247990   -1.8244241262    1.1042416530
 H   -0.8413615570    1.2246493318   -1.0762333627
 H   -1.9883794947    2.6417557967    0.3486698583
 H   -1.4871661911    1.4842332314    1.5825782157
 H   -0.8356238096    3.7266082964    2.3982782118
 H   -0.4683171732    4.5236862906   -0.4105978000
 H    0.5788338459    5.2349826281    0.8577780160
 H    2.2808043971    3.5832218221   -0.1988825845
 H    1.7380216572    3.5557447928    2.3222965627
 H    1.3875938089    1.8386078066    1.9754870773