14

 N    0.6223174465    0.3094142980   -0.9850376348
 C   -0.1665206685    0.2425325497    0.1229098032
 O   -0.0055464903    0.9533503836    1.1028663744
 C   -1.2454118323   -0.7698537164    0.0947176029
 C   -1.6824455331   -1.7379555110   -0.7995163067
 C   -2.7778550254   -2.3306239719   -0.1426419685
 O   -3.5352138043   -3.3344176559   -0.6258862159
 N   -3.0108783245   -1.7901043616    1.0512158400
 N   -2.0626679038   -0.8434049435    1.1682102346
 H    1.3076605571    1.0458048209   -1.0248687968
 H    0.3909709193   -0.1789837610   -1.8321120756
 H   -1.2831907754   -1.9963087644   -1.7658987188
 H   -4.2037096270   -3.5339808720    0.0416212892
 H   -1.9871919583   -0.2633875244    1.9885398629