19

 C    0.0986255483    1.4645481085   -0.5183410383
 C   -0.0434291927    0.0603455903    0.0504728760
 C    0.3622249914   -1.1580760206   -0.8274819211
 N    1.1560902465   -1.7580932731    0.2937709804
 C    2.6104456522   -1.4471893018    0.2029522711
 C    2.4560305719   -0.2253545476    1.1676056251
 C    3.0065975956    1.0534009519    0.7574858408
 N    3.4736471337    2.0591055808    0.4276712996
 C    0.9185121523   -0.5164386345    1.1268737803
 H    1.0824243528    1.6380612720   -0.9596184356
 H   -0.6522118453    1.6239510316   -1.2999663361
 H   -0.0584735593    2.2265192804    0.2519197322
 H   -1.0648380123   -0.0671845603    0.4231303968
 H   -0.4555585097   -1.8044348509   -1.1582518203
 H    0.9740660710   -0.9014958480   -1.7013219585
 H    3.2465672194   -2.2444384129    0.5960439182
 H    2.9495966639   -1.1889964650   -0.8050585403
 H    2.8492540277   -0.4502996452    2.1625901074
 H    0.4854898827   -0.6502185556    2.1219542022