19

 C    0.2674732382    1.4521964168    0.0607683271
 O    1.2616849833    0.4452705371   -0.1349613484
 C   -0.1036918662    0.0334574532   -0.0257531906
 C   -0.4752318021   -0.7604288077    1.1868501604
 C    0.2454033431   -0.5230388940    2.5341672152
 C    0.3528806686   -2.0678705492    2.7356038829
 C   -0.3280547178   -2.3071592250    1.3615231341
 C   -1.8626909804   -2.3028446877    1.4013979389
 O   -1.9147270389   -0.8562810081    1.3240940592
 H    0.2867112893    1.9438029968    1.0317641251
 H    0.0877381877    2.1050214619   -0.7915390279
 H   -0.5448419998   -0.3241321227   -0.9570464110
 H    1.2167472033   -0.0389928345    2.4116445623
 H   -0.3539979890    0.0262377570    3.2629947295
 H    1.3829031818   -2.4271253092    2.7787661793
 H   -0.1896594249   -2.4764155927    3.5924889621
 H    0.1665309492   -2.9629983315    0.6460562852
 H   -2.3509685604   -2.7623153142    0.5324427309
 H   -2.3304768149   -2.6870834663    2.3167319857