18

 C    0.2484357439    0.8478942648    0.4669934709
 O   -0.1122117057   -0.1157262567   -0.5066010500
 C   -1.3406748456   -0.7086762305   -0.2554665356
 C   -1.6004389673   -2.0899187341   -0.7193858244
 C   -0.3266747421   -2.9507924484   -0.5935616886
 C   -0.3354851186   -2.6317295506    0.8953272446
 N    0.2911987977   -3.0428514900    1.9170707644
 O    1.3311582737   -3.9200583549    1.5433771975
 C   -1.5410636392   -1.7669646695    0.8168510502
 H    1.2198104587    1.2502732745    0.1720651383
 H   -0.4811404671    1.6705517340    0.5085995955
 H    0.3296789511    0.3972367673    1.4649966533
 H   -2.1907701485   -0.0259074338   -0.3323194114
 H   -2.4680486886   -2.3519287408   -1.3110559794
 H   -0.5017780817   -4.0158493801   -0.7672530399
 H    0.5404528761   -2.6234730945   -1.1696852548
 H    1.6983556125   -4.1689683755    2.3979739459
 H   -2.3284566693   -1.6981147612    1.5569139936