16

 O    0.0120792448    0.0173384824    0.0380482585
 C   -0.0178363820    1.2098627245    0.0563019177
 C   -1.1179787266    2.2912082980   -0.0139768713
 C   -1.2906851998    2.6629155644    1.4437478574
 C   -0.1952351907    3.1539233916    2.0290020163
 C    0.9655378736    3.4158729190    1.0949944768
 C    0.3803300045    4.3530425860   -0.0038303205
 N   -0.0940467274    3.1597291433   -0.7683506991
 C    1.0002513687    2.3341808834   -0.0520934806
 H   -2.0379219122    2.1037133352   -0.5658393581
 H   -2.2282863105    2.4678930478    1.9505564593
 H   -0.1491138124    3.4577253026    3.0685186905
 H    1.9037395629    3.6665424097    1.5904307889
 H   -0.3767405220    5.0804607913    0.2976586553
 H    1.1510197727    4.8386842280   -0.6092565364
 H    1.9547895664    2.1738260327   -0.5563919345