17

 C   -0.0491345523   -1.0956096026   -0.0620431748
 C    0.0062640334    0.1048058726   -0.0118178035
 C    0.0638629402    1.5380749739    0.0450353428
 C    0.5675085225    2.1505099502    1.3414427280
 C    1.4362892701    2.1761490485    0.0811417298
 C    1.2989500223    3.7150721723    0.0429851271
 O    0.1801196890    4.2576785647   -0.7022689494
 C   -0.6187612055    4.3832716583    0.5069319744
 C    0.4760655563    3.6942157155    1.3445011903
 H   -0.1013794568   -2.1547865681   -0.1103253942
 H   -0.7048937835    2.0479448454   -0.5265571470
 H    0.6689728614    1.5316445250    2.2235313656
 H    2.3237981771    1.6069837156   -0.1642488132
 H    2.2212623840    4.2824809632   -0.0994112917
 H   -0.7788812239    5.4377949288    0.7616196556
 H   -1.5886686752    3.8800097648    0.4219318990
 H    0.8161156610    4.1757588318    2.2595376212