20

 C   -0.1402491154    1.4930533286    0.0303932872
 C    0.0277933194   -0.0212585567   -0.0096792399
 C    0.8697323839   -0.5899414789   -1.1978696024
 C    2.1319375713   -0.4166641008   -0.2996805393
 C    1.1522447470   -0.6167066494    0.8892096372
 O    0.8799397772   -1.9903339712    1.1402234422
 C    0.9689377473   -2.8118269827   -0.0231011080
 C    0.5471175945   -2.0883176046   -1.3233135426
 H    0.8068028091    2.0244934234   -0.1081018893
 H   -0.8218486679    1.8292226490   -0.7587927383
 H   -0.5604606637    1.8138081905    0.9901288227
 H   -0.9410132518   -0.5094228108    0.1424332168
 H    0.8281705170   -0.0703205295   -2.1590451157
 H    2.9646481777   -1.1151359331   -0.4102582054
 H    2.5237423080    0.6013010432   -0.3239231761
 H    1.3675938319   -0.1578926360    1.8576304991
 H    2.0017674977   -3.1724464455   -0.1316047263
 H    0.3432549513   -3.6877551764    0.1708761850
 H   -0.5248289520   -2.2134457366   -1.5157561494
 H    1.0821091874   -2.5422574924   -2.1657830576