18

 O   -0.2321881651    1.3725875251   -0.1102423763
 C   -0.0253288320    0.0017803867    0.0230137065
 C   -0.1306398143   -0.8882173109   -1.1973202496
 C   -1.1926236532   -0.9268878646   -0.1055211844
 N   -1.0533530385   -1.9439517626    0.8977608360
 C    0.2809058672   -1.9113024107    1.5066676428
 C    0.8013692397   -0.4874914589    1.2099082382
 C   -1.9924037041   -2.8596897065    1.2388476717
 O   -1.8416533447   -3.7211227334    2.0826698977
 H    0.5378500686    1.7510917091   -0.5488447968
 H   -0.4189234111   -0.3914709659   -2.1174351006
 H    0.5359416861   -1.7361103768   -1.3170820564
 H   -2.1960160784   -0.5739350053   -0.3082301152
 H    0.2018845710   -2.1395921209    2.5708016110
 H    0.9226699516   -2.6789490054    1.0575366353
 H    1.8802730070   -0.4781650727    1.0279170308
 H    0.5941580313    0.1865239493    2.0468392765
 H   -2.9322496612   -2.7243139458    0.6674035627