25

 C   -0.1518607765    1.3816024015   -0.6334554721
 C   -0.0885190270   -0.0719356421   -0.1532913874
 C   -1.4646465943   -0.6574582270    0.1932771839
 C   -2.3343126342   -0.9761722026   -1.0500076191
 C   -1.9229418630   -2.4654232939   -0.9308157000
 C   -1.4619259550   -2.1960273205    0.5280046113
 C   -0.2210960175   -2.9076917023    1.0505865906
 O   -2.1815067429    0.1680197310    1.1002717807
 C   -1.6501346458    0.2544480338    2.4041404829
 H    0.8472547879    1.7559894130   -0.8761888861
 H   -0.7713023140    1.4784874667   -1.5308318488
 H   -0.5852392041    2.0301374115    0.1321288978
 H    0.3692125428   -0.6985004117   -0.9280937895
 H    0.5759962207   -0.1456192113    0.7161222060
 H   -3.3883367477   -0.8152173646   -0.8137902578
 H   -2.0936351469   -0.4539985734   -1.9789142639
 H   -2.7028185496   -3.2158158950   -1.0776643839
 H   -1.0797127004   -2.7156752472   -1.5823415781
 H   -2.3056844706   -2.3721810942    1.2048897254
 H    0.6411359658   -2.7546908700    0.3934292722
 H    0.0590136346   -2.5641285331    2.0523656440
 H   -0.3974306426   -3.9877640969    1.1111102922
 H   -1.5576319643   -0.7332368740    2.8788461267
 H   -0.6661626897    0.7441380509    2.4322396330
 H   -2.3496444956    0.8553152913    2.9911794600