14

 N    0.1035964252    1.4029231169    0.1601223198
 C   -0.0060709134    0.0362206673    0.0420478308
 C   -1.1097706038   -0.7883547927    0.0191203722
 N   -0.6157858744   -2.1066951351   -0.0058787273
 C    0.7522007557   -2.1418256902   -0.0118824417
 O    1.5212035872   -3.0754313032   -0.0254783053
 N    1.1040139492   -0.7658837512    0.0044408785
 C   -2.5059788371   -0.4948481914   -0.0083450996
 O   -3.3832882109   -1.3440343746   -0.0361934547
 H    0.8358819686    1.8243808613   -0.3961806522
 H   -0.7697192700    1.8998588002    0.0604147059
 H   -1.2098165472   -2.9178154535   -0.0188821706
 H    2.0601318895   -0.4699945575    0.1090863575
 H   -2.7552845188    0.5907302137   -0.0054729234