17

 C    0.0411709995    1.5364462432   -0.2207539233
 O    1.4502605547    1.5512151502    0.2133352967
 C    1.2501690489    0.2603962760    0.7941609077
 C    0.4887193224    0.1024286950    2.1376825524
 C   -0.3429241307   -0.8545258037    1.2618262216
 O    0.6455009965   -1.8990864141    1.0182385443
 C    1.6081445075   -1.1602487649    0.2218700974
 C    0.7694453536   -0.8507482871   -1.0271400949
 C   -0.0484788253    0.0106093812   -0.0187457565
 H   -0.5806025401    2.1497671087    0.4398897391
 H   -0.0595910200    1.8897856613   -1.2507665337
 H    0.9815764803   -0.3398349097    3.0039917033
 H   -0.0147024576    1.0325627850    2.4044942512
 H   -1.2921417444   -1.3108266261    1.5394868269
 H    2.5724591559   -1.6671027616    0.2474327242
 H    1.2773479409   -0.2104432363   -1.7499662314
 H    0.2983302180   -1.7032703871   -1.5185777551