16

 N   -0.0054394445    1.2950535801   -0.5312830476
 C    0.0650765120    0.0057242579   -0.0497156022
 N    1.1026439124   -0.6809339976    0.2336681938
 C    2.3899458778   -0.0545851511    0.0939763785
 C    3.6131403789   -0.9628423906    0.3250642594
 O    4.1914993795   -0.5742865808   -0.9406755177
 C    2.9920583726    0.1101984985   -1.3340252580
 C   -1.2323158696   -0.6302667300    0.0972622319
 N   -2.2813876971   -1.1006900562    0.2131303104
 H    0.8128206761    1.8765362436   -0.4465118012
 H   -0.8893228670    1.7757481987   -0.4806507284
 H    2.4532597154    0.8773032147    0.6761576681
 H    4.2696983299   -0.7205498012    1.1672828030
 H    3.3457736421   -2.0259582282    0.3530126883
 H    2.4297224831   -0.4351969546   -2.1033884270
 H    3.1923357985    1.1306154669   -1.6830090815