15

 C   -0.0564852520    1.3964079725    0.0680648829
 N    0.0000373800   -0.0225776264   -0.2081544473
 C   -1.1596591057   -0.8754315617    0.0531081559
 C   -0.4946511671   -2.2902918769    0.0269453228
 N    0.9635749630   -2.0587725746    0.1619645284
 C    1.1138255301   -0.7956844187    0.0188470609
 C   -1.0105834204   -3.1764796237    1.0731692430
 N   -1.4499245003   -3.8589806066    1.8951081709
 H    0.9287929851    1.8378541249   -0.1017831284
 H   -0.7676177759    1.8880251566   -0.6033390106
 H   -0.3598950045    1.6081964693    1.1049480524
 H   -1.5984355842   -0.6504151122    1.0356869843
 H   -1.9349053899   -0.7574635662   -0.7082136470
 H   -0.6784511225   -2.7786414437   -0.9390314014
 H    2.0881239643   -0.3147339327    0.0328516233