18

 C    0.0097675536    1.0862632296   -0.1239599253
 C   -0.4491940080   -0.3553041325   -0.3768081469
 C   -1.5011510348   -0.8328585899    0.6065352186
 C   -2.8541868987   -0.1180686806    0.5876831614
 C   -3.5594996510   -0.2550730724   -0.6812453697
 C   -4.1270237549   -0.3780020789   -1.7336562370
 C   -1.4471790466   -2.2002393857    1.1389515825
 O   -1.0216418794   -1.0861244715    1.9334259974
 H    0.8264507528    1.3534456621   -0.8006764759
 H   -0.7978056009    1.8067694669   -0.2875262028
 H    0.3682882742    1.2026880275    0.9033203617
 H   -0.8502554190   -0.4519552567   -1.3922834870
 H    0.4109658910   -1.0289135760   -0.3049531548
 H   -3.4634971296   -0.5181376153    1.4054690267
 H   -2.7017359312    0.9448882529    0.8126147549
 H   -4.6366469049   -0.4833806365   -2.6592102338
 H   -2.3611324680   -2.6902631013    1.4726108843
 H   -0.6535649146   -2.8730568218    0.8172970357