18

 O   -0.0885873715    0.9895519587    1.3684755422
 C   -0.0432451686    0.0381754598    0.3413904032
 C   -0.6452932731   -1.2885937360    0.6861140394
 C   -1.3282024317   -0.4026908618   -0.3322667273
 C   -2.6406456106    0.2824494473   -0.0869597680
 C   -3.7183823127   -0.3733015257    0.7350870740
 N   -3.0408355694    0.8082446335    1.2390348904
 C   -3.1195493238    1.1607273409   -1.1990726183
 O   -2.6109677785    1.2267532184   -2.2902449844
 H   -0.2201198252    1.8573323226    0.9703939642
 H    0.8641979468    0.0589546148   -0.2599824278
 H   -0.1676194632   -2.1987537242    0.3424031155
 H   -1.0767316828   -1.3591165673    1.6802354736
 H   -1.2182817322   -0.6945763252   -1.3717250167
 H   -4.7656785949   -0.2330544487    0.4797012203
 H   -3.4693845743   -1.3524224584    1.1350739736
 H   -2.3141865311    0.5839553507    1.9138867206
 H   -4.0135008432    1.7631134104   -0.9250566146