18

 C    0.5549900074    1.6687019374    0.6574088927
 C    0.1890310089    0.2327008069    0.3235271249
 C    0.8548890439   -0.5825822788   -0.8223345780
 C    2.1540922594   -0.7369052703    0.0014823321
 C    0.9293419271   -1.0101044809    0.9107200479
 C    0.8649061215   -1.6152372887    2.2968141043
 C    1.4404252078   -0.7307426078    3.3065254927
 N    1.8988250144   -0.0155468023    4.0894991342
 O    0.3452066934   -1.8218584402   -0.1774347540
 H    1.6309507379    1.8567677786    0.6424788284
 H    0.0859289083    2.3521849904   -0.0583246064
 H    0.1886989609    1.9338530124    1.6541471408
 H   -0.8932000586    0.0740471507    0.3335266727
 H    0.7268729924   -0.4956275400   -1.9006260091
 H    2.7428508329   -1.6223175250   -0.2410967720
 H    2.7713296951    0.1411171520    0.1934243696
 H   -0.1803340695   -1.8254587410    2.5504585964
 H    1.3999961169   -2.5715547134    2.3034463930