15

 C   -0.0859074868    1.4297825450    0.1803750984
 N   -0.0592496402    0.0168807155   -0.1633068990
 C   -1.1751884740   -0.7578020846   -0.0745288198
 N   -1.2355889822   -2.0523838607    0.0069818477
 C   -2.6125062144   -2.3199079771   -0.0046844707
 C   -3.2954175251   -1.1494024013   -0.0835202887
 O   -2.3749971527   -0.1260289899   -0.1268797408
 C   -3.1436402300   -3.6287164493    0.0625892345
 C   -3.6014148274   -4.7402161720    0.1202180134
 H    0.8763721192    1.8700590313   -0.0879297939
 H   -0.8642348025    1.9329225004   -0.3968418993
 H   -0.2740941966    1.6144974916    1.2473432496
 H    0.7791120788   -0.4943829775    0.0656960351
 H   -4.3334262479   -0.8721320080   -0.1086641185
 H   -4.0021106181   -5.7220519534    0.1700703520