21

 O    0.0575419126    1.4890360081    0.0145440747
 C    0.0960491706    0.0732249112    0.1262016274
 C   -1.3320696342   -0.4555017034    0.0708053028
 C   -2.3478012479    0.2831199632    0.9873008902
 O   -3.1845056951    0.6227872764   -0.1358257905
 C   -2.2097287419    0.1253959904   -1.0735414922
 C   -1.4487415482   -1.9640425872    0.1783629699
 C   -0.4816311270   -2.9433184805   -0.4425201359
 C   -0.5805572183   -2.8286633844    1.0606686604
 H    0.9595751281    1.8189177721    0.0501683173
 H    0.6873107421   -0.3639061666   -0.6930172838
 H    0.5681999044   -0.2277877764    1.0739634672
 H   -2.8722202518   -0.3421651707    1.7202122342
 H   -1.9441618822    1.1744254328    1.4797570310
 H   -1.7353473914    0.9358440188   -1.6374426222
 H   -2.6386318591   -0.6090413164   -1.7662124174
 H   -2.4892376325   -2.2776925338    0.1337396144
 H   -0.8898817439   -3.8255481777   -0.9231930745
 H    0.4183722837   -2.5663305407   -0.9154373353
 H    0.2538720722   -2.3756521437    1.5843829283
 H   -1.0566743305   -3.6322087715    1.6117317739