15

 O    0.0034467391    1.4517989642   -0.1874952346
 C   -0.0361056020    0.0569719052    0.0126136932
 C   -1.4598197549   -0.4711137692    0.0777637194
 O   -2.0374410485   -0.2328635826   -1.2148175269
 C   -3.3787034279   -0.6215926126   -1.3279078368
 C   -4.2913488341    0.2384084990   -0.5331227172
 N   -4.9752183537    0.8966298010    0.1237857209
 C   -3.7520839156   -0.5819574867   -2.7527971492
 N   -4.0495460857   -0.5796897801   -3.8671948756
 H   -0.4631263307    1.6343563372   -1.0105561120
 H    0.5120315875   -0.4880770471   -0.7713686526
 H    0.4577032104   -0.1439396512    0.9687375080
 H   -1.4742288503   -1.5485807550    0.3003758261
 H   -2.0297254896    0.0660342756    0.8467858087
 H   -3.5221253040   -1.6570780376   -0.9748228415