21

 C    0.0544973230    1.5483566046   -0.0386739622
 C   -0.0393654760    0.0179447627    0.0204763789
 C   -1.4584021761   -0.5332398790    0.0464124895
 C   -2.3537338700   -0.1907349196   -1.1933863900
 O   -3.4207535487   -1.1413400281   -1.1450148587
 C   -3.1625947741   -1.9642518911    0.0320167511
 C   -1.6350346428   -2.0805074859   -0.0010635286
 C   -3.3643462477   -1.0761718940    1.2500596150
 C   -2.3429245186   -0.2126682585    1.2477288403
 H    1.0996532631    1.8722139355   -0.0354542196
 H   -0.4114152943    1.9472927035   -0.9456118296
 H   -0.4377089252    2.0174934879    0.8194586775
 H    0.4846285732   -0.4079101169   -0.8453335133
 H    0.4952256738   -0.3441969858    0.9077663667
 H   -2.7550344246    0.8282729587   -1.1566167796
 H   -1.7913759845   -0.3165619626   -2.1291558722
 H   -3.7683201932   -2.8646542484   -0.0534402176
 H   -1.2624721047   -2.5381035995   -0.9228315203
 H   -1.2097788130   -2.5765736107    0.8731607553
 H   -4.2358172986   -1.0761336139    1.8919159037
 H   -2.2022225511    0.6419594613    1.8983802039