17

 C    0.0231363436    1.3386572381    0.2595761120
 O   -0.0346954643   -0.0074254042   -0.2000398216
 C   -1.2828336402   -0.5678418229   -0.0707475220
 C   -1.8500799518   -1.1084639810    1.2136443274
 O   -3.0400797096   -0.8027426661    1.8533481337
 C   -1.6226731882   -2.0691029056    0.0538678068
 C   -2.6403612232   -1.8860534520   -1.1026525108
 O   -3.6282445674   -0.8830329787   -0.7488922509
 C   -2.3341304843   -0.4685797977   -1.2307433901
 H    1.0491258969    1.6800038358    0.1083486416
 H   -0.6580937575    1.9887832349   -0.3064211084
 H   -0.2329842755    1.4059539930    1.3246051795
 H   -1.0543989423   -1.2216863302    1.9486455869
 H   -3.6979823409   -0.7145679037    1.1505072947
 H   -0.9524104311   -2.9168805516    0.1169633148
 H   -2.9391921996   -2.6248905564   -1.8352110612
 H   -2.2949304345    0.1918248284   -2.0887664727