17

 C   -0.1571857215    1.1717743725    0.1140087625
 N   -0.2497104536   -0.2496462643   -0.1854289201
 C    0.5724656823   -0.7383821567   -1.0058154100
 N    1.6486194303   -0.2873122667   -1.7638093990
 C    1.9024773339   -1.5880802349   -2.4030271495
 C    0.7579686665   -2.1673610895   -1.5286710364
 O    1.2156095390   -3.1414744582   -0.6011498849
 C    0.3574029470   -3.4828181039    0.3936072573
 O    0.6461221789   -4.2994904898    1.2147382880
 H    0.8662028347    1.5696707721    0.0398316339
 H   -0.7971291162    1.7532193201   -0.5632746805
 H   -0.5177831267    1.3504984797    1.1307277919
 H    1.8087677399    0.6303126378   -2.1478319207
 H    1.7101750152   -1.6205878398   -3.4800491333
 H    2.8861308876   -2.0101325071   -2.1825593661
 H   -0.0980483476   -2.5455170215   -2.0950467784
 H   -0.5947230096   -2.9278622400    0.3542900855