13

 O   -0.0533669796    0.0155242725   -0.0007531511
 C    0.0226667699    1.2199597040    0.0074949240
 C    1.2800303259    1.9902736058   -0.0007283778
 N    2.4781156685    1.4021649711   -0.0187656611
 N    3.3465589388    2.4159928165   -0.0206340492
 C    2.7672388280    3.6397282228   -0.0046710711
 C    1.4003322059    3.4169363148    0.0087482248
 C    0.3692072836    4.3817510031    0.0276427329
 C   -0.5152469251    5.1986965604    0.0438620588
 H   -0.8826672889    1.8628208611    0.0225125155
 H    4.3325996823    2.2082106170   -0.0332856365
 H    3.3404432528    4.5522986623   -0.0039921509
 H   -1.2961424723    5.9181793784    0.0583170817