22

 C   -0.0556338722    1.6419491874    0.0451261338
 C    0.0015229555    0.1135122808   -0.0155827256
 C   -1.3895648408   -0.5260033543    0.0329014437
 C   -1.3335959129   -2.0590051848   -0.0028773774
 O   -0.6672365951   -2.5094617437    1.1520396745
 C   -0.3316060539   -3.8937498735    1.1448272416
 C    0.4103329380   -4.2060907445    2.4316253493
 C   -2.6987856492   -2.6327154055   -0.0912007742
 N   -3.7610760309   -3.0833276683   -0.1553384000
 H    0.9480628409    2.0758132008    0.0083666017
 H   -0.6279347109    2.0539531274   -0.7934520982
 H   -0.5324898472    1.9836258968    0.9702464577
 H    0.5110452907   -0.1995095137   -0.9368138206
 H    0.5980308474   -0.2742519903    0.8159305271
 H   -1.9156511639   -0.2280590575    0.9468489396
 H   -1.9977283737   -0.1844136790   -0.8124811395
 H   -0.7913835350   -2.3838233817   -0.9077302345
 H   -1.2447383748   -4.5012361816    1.0636886494
 H    0.2943821765   -4.1168330304    0.2657954603
 H    1.3207444463   -3.6051011188    2.5090544441
 H   -0.2196257739   -3.9912340229    3.2990405843
 H    0.6883271890   -5.2636556327    2.4580041527