10

 N    0.0096387107    1.3382874058    0.0452983207
 N    1.2932060687    1.7868901396    0.0229982806
 N    2.1010780688    0.7964847808   -0.0104958282
 N    1.3264873713   -0.3334591559   -0.0099555988
 C    1.3573959224   -1.7089405518   -0.0307070373
 N    0.1201353040   -2.1481706608   -0.0089999906
 N   -0.7726216914   -1.0816434616    0.0278199669
 C   -0.0012823677   -0.0244241927    0.0255155632
 H   -0.7494068887    1.9970951790    0.0730502664
 H    2.2551632319   -2.3012075824   -0.0602159530