18

 C    0.0973706030    1.5086863540    0.0537430942
 C   -0.0486557877    0.0243597610   -0.0586786588
 C    0.5461373583   -0.8639408834   -1.0941951235
 N    0.9948965198   -0.9646815240    0.3481019226
 C   -0.0475817572   -1.7221548626    1.1186547855
 C   -1.1909310980   -0.8969003777    0.4839873272
 C   -1.7391428629   -1.6461478371   -0.7304644230
 C   -0.5045099172   -1.7937916684   -1.6320082688
 O   -0.4166587629   -2.4654762070   -2.6291455252
 H    1.0972235716    1.8180116029   -0.2636819357
 H   -0.6375899344    2.0234678388   -0.5750165800
 H   -0.0490674867    1.8428514703    1.0865709064
 H    1.3469519479   -0.5423226714   -1.7492338498
 H   -0.0531374445   -2.8059882129    0.9558721930
 H    0.1101406803   -1.5155861815    2.1796233071
 H   -1.9385661773   -0.4627513990    1.1468698390
 H   -2.1862955027   -2.6174531998   -0.5003366780
 H   -2.4860112393   -1.0517800922   -1.2719154624