19

 C    0.0949298461    1.5501142850    0.1580543388
 C   -0.0746471613    0.0384953934   -0.0541565794
 C    0.6790324883   -0.4869004154   -1.2543839373
 C    0.8776864922   -2.0179755323   -1.5782497876
 C    2.0103895877   -1.4931850975   -2.5020905377
 O    1.3002434728   -0.7222263997   -3.4806852150
 C    0.3436777966    0.0167416965   -2.6725166744
 C    2.2293696442   -0.4629855389   -1.3703000134
 O    3.1312459727   -0.0058675120   -0.7351798733
 H    1.1526310148    1.8083662966    0.2604694310
 H   -0.3156592351    2.1257612550   -0.6776668850
 H   -0.4237825818    1.8715686622    1.0657069186
 H    0.2812238415   -0.4921855333    0.8370244330
 H   -1.1394581222   -0.2099065412   -0.1550227579
 H    1.2296418770   -2.5968252343   -0.7217360101
 H    0.0534776251   -2.5170569456   -2.0925257145
 H    2.7773523942   -2.1055321800   -2.9679216421
 H   -0.6774709774   -0.2337453806   -2.9855038486
 H    0.5034119447    1.0925630620   -2.8016755351