19

 C   -0.4373807704    1.5170712868    0.0901815244
 C    0.0255471916    0.0667318764   -0.0355369834
 C    0.7473317918   -0.3636902768   -1.3087073982
 C    1.9416875981    0.4974221850   -1.8339295083
 C    2.8817735414   -0.7301920286   -1.6556276165
 C    1.7782438493   -1.4285088319   -0.8367454771
 O    1.9360084488   -1.2113846302    0.5736872983
 C    1.0156793477   -0.3340848984    1.0658275114
 O    1.0230525663    0.0226911784    2.2081879396
 H    0.3747513581    2.2188298185   -0.1205264621
 H   -1.2569108269    1.7277804042   -0.6026388508
 H   -0.7820279940    1.7047036794    1.1100925291
 H   -0.8447311539   -0.5896402957    0.1108059456
 H    0.0783785082   -0.6959823676   -2.1032259852
 H    1.8394165807    0.8902966460   -2.8467776000
 H    2.1962268779    1.3276820021   -1.1708934904
 H    3.0749031952   -1.2537686271   -2.5955233988
 H    3.8273147557   -0.5741138005   -1.1331919880
 H    1.5951599544   -2.4930169400   -0.9993211196