23

 C   -1.2536176694    0.5174343642    0.2836069597
 O    0.0914359530    0.1975096723    0.0063539758
 C    0.7614595612   -0.4704725742    1.0676835042
 C    0.2065848367   -1.8078858209    1.3217638328
 C   -0.2480678115   -2.9031154176    1.5358193688
 C   -0.7944035207   -4.2277407607    1.7947483419
 C    2.2667748300   -0.5128614958    0.7158762344
 C    2.5248109439   -1.2744240229   -0.5897982080
 C    2.8431252953    0.9079696305    0.6673315378
 H   -1.3394983891    1.1738228757    1.1642526016
 H   -1.6431024024    1.0455408695   -0.5900863030
 H   -1.8591937976   -0.3817817102    0.4610571626
 H    0.6459310542    0.1262707493    1.9904978365
 H   -0.0236456089   -4.9044118191    2.1799351163
 H   -1.6028767848   -4.1912188518    2.5332121138
 H   -1.1988332475   -4.6750593844    0.8801439196
 H    2.7472416993   -1.0575557433    1.5386125579
 H    2.1333196145   -2.2940781067   -0.5352694872
 H    2.0417000309   -0.7704350229   -1.4313277253
 H    3.5986598339   -1.3307695771   -0.7940619130
 H    2.7013937677    1.4297262427    1.6203639968
 H    3.9167397981    0.8817779994    0.4564379003
 H    2.3543192933    1.4952517840   -0.1147050341