18

 C    0.0544808186    1.4427914824    0.1522403076
 C    0.0310201058   -0.0655971387   -0.1179991449
 C   -1.3725514482   -0.6426264913   -0.0706065187
 C   -1.6102056193   -2.1640933907   -0.1318721607
 C   -2.7332870416   -1.8986028333    0.9458742232
 C   -1.6559792150   -1.8520535695    2.0024679237
 N   -2.1011476918   -0.6167898631    1.2697641823
 C   -0.7972899889   -2.6703020821    1.0816210969
 O    0.0132718834   -3.5374488366    1.2415502284
 H    1.0770610273    1.8299802457    0.1285255159
 H   -0.5275070810    1.9885017488   -0.5984938008
 H   -0.3728565449    1.6695215609    1.1333281690
 H    0.4530031997   -0.2796063232   -1.1088887257
 H    0.6711221927   -0.5857879099    0.6045963781
 H   -2.0316935298   -0.1088245966   -0.7632885005
 H   -1.6582931956   -2.7444063909   -1.0494118548
 H   -3.7807912136   -2.1485014940    1.0357764736
 H   -1.7390703378   -1.8525024978    3.0801728175