16

 N   -0.4730294319    1.2516137760    0.3456756357
 C   -0.1644831045   -0.0990459144    0.0909502783
 C   -1.0427224025   -1.0701107917   -0.3295978391
 N   -0.3808675863   -2.2782164103   -0.3910420961
 C    0.9232904379   -2.0857179675   -0.0229734301
 C    1.0873613433   -0.7555407625    0.2916616201
 O   -2.3542978908   -0.9736817996   -0.7158738236
 C   -3.2821013612   -0.9222751621    0.2872988487
 N   -4.4993795217   -0.8079223214   -0.0076394110
 H    0.3258491342    1.8535049767    0.1890039589
 H   -1.2368281538    1.5764232247   -0.2363823711
 H   -0.7873928485   -3.1273483411   -0.7417727734
 H    1.6255768736   -2.9027184320   -0.0130778210
 H    2.0001364520   -0.2926750270    0.6348385835
 H   -2.8243286198   -0.9847849889    1.2814736781
 H   -5.0613486801   -0.7815754189    0.8407256121