17

 C   -0.0979962218    1.5740633820    0.2811301665
 C    0.0271670454    0.0817622023    0.0565034987
 C    1.3139546223   -0.5904759685   -0.4046017631
 C    2.5803349079    0.1614599109   -0.5975672130
 O    3.3794183548   -0.1184988179   -1.4582900157
 C    0.7826381410   -0.7625601904    1.0452588888
 O    1.4523220416   -0.1320439555    2.0765808085
 C    0.2859422134   -2.1115230748    1.3981134293
 O    0.4996551580   -2.5921013499    2.4881022295
 H    0.7343308586    1.9696622697    0.8644908128
 H   -0.1453765544    2.1075456271   -0.6728688748
 H   -1.0170832379    1.7883180836    0.8346226185
 H   -0.8619213617   -0.3844969997   -0.3618160501
 H    1.2151029105   -1.4372814814   -1.0764783302
 H    2.7580638920    0.9979891892    0.1049722342
 H    1.5131001336   -0.8012236720    2.7782228291
 H   -0.2769439333   -2.6510504047    0.6107906613