19

 C    0.0022379445    1.4605937738    0.0886724797
 C    0.0199177913   -0.0528849054   -0.0002537644
 C    1.1086470073   -0.6591845298   -0.8104861088
 C    1.0171593036   -1.8654976645   -1.3721318152
 C   -0.1852323480   -2.7586703159   -1.1910633822
 C   -1.0821612780   -2.2377270380   -0.0796058957
 O   -0.3410834553   -2.1713765705    1.1838572416
 C   -0.5411327073   -0.7685401372    1.2336547465
 C   -1.3414607788   -0.7228553916   -0.0341790578
 H    0.9492157989    1.8408351025    0.4878479026
 H   -0.1529466821    1.9140228851   -0.8966343072
 H   -0.8015712560    1.8116813043    0.7444188801
 H    2.0081908483   -0.0630515334   -0.9438899515
 H    1.8364283433   -2.2493496495   -1.9736541983
 H   -0.7564960340   -2.8597612622   -2.1264878927
 H    0.1398307929   -3.7730806986   -0.9257947131
 H   -1.9850338478   -2.8427210187    0.0511696305
 H   -0.6597001298   -0.2978465497    2.2037711363
 H   -2.2623345430   -0.2169341008   -0.2932903605