17

 C    0.1019261609    1.5148978438    0.0355577163
 C    0.0707069747    0.0607139718    0.0712977911
 C    0.0420995469   -1.1433868539    0.1124033296
 C    0.0514922594   -2.5834731749    0.1021472732
 O    1.1606714351   -3.1769190745   -0.5093544924
 C   -0.5002180811   -3.3635222713    1.2436875757
 C   -1.2866944285   -3.3572819212   -0.0592886799
 C   -2.5687204894   -2.6256270353   -0.1426259018
 O   -3.4796077976   -2.9323409477   -0.8734232945
 H    1.0686005517    1.8750992591   -0.3327343404
 H   -0.6766245124    1.9162797893   -0.6221662843
 H   -0.0503567019    1.9389975590    1.0339588220
 H    1.2403747172   -2.8050014856   -1.3953390690
 H    0.0158510391   -4.2828818260    1.4930466050
 H   -0.9105241582   -2.8113915777    2.0816671886
 H   -1.2128903572   -4.2390595800   -0.6853956433
 H   -2.6403631787   -1.7428605648    0.5317552441