18

 C   -0.2008324001    1.5301319128    0.1679977454
 C    0.0396999944    0.0412568722    0.0516173687
 O   -1.1802872108   -0.6221515177   -0.0765783170
 C   -1.0674025370   -1.9322026108    0.4929835048
 C   -0.1279164975   -1.7528523845    1.6888059115
 C    0.8562633619   -0.6893548588    1.1698766863
 N    2.0176933319   -1.2799165480    0.4890638135
 C    1.9007207003   -0.9539884951   -0.7323691862
 O    0.8629100058   -0.1943420466   -1.1399162228
 H    0.7489794621    2.0686125011    0.2053457605
 H   -0.7737526530    1.8827189954   -0.6931672779
 H   -0.7699115385    1.7437637055    1.0766500935
 H   -2.0743852022   -2.2589878080    0.7602000772
 H   -0.6547392686   -2.6343885240   -0.2439471582
 H   -0.6829118161   -1.3679061821    2.5497323264
 H    0.3860959245   -2.6695788232    1.9814522067
 H    1.1975407082   -0.0177373964    1.9613734587
 H    2.5916403947   -1.2340434018   -1.5210517011