16

 C   -0.0830497942    1.5310312224   -0.0304689930
 C    0.0153526461    0.0264027900    0.0233016623
 O   -1.2101094047   -0.5902160972   -0.4203800521
 C   -1.5117197967   -1.5172796385    0.5309943633
 N   -0.7936482742   -1.6402039707    1.5726372106
 C    0.3125763243   -0.7158826840    1.3756782652
 C    1.5857415837   -1.3056059008    0.7131199183
 O    1.1701777164   -2.0270109662   -0.4427214470
 C    1.2952168758   -0.6149369954   -0.5648670091
 H    0.8528042812    1.9848863144    0.3111202321
 H   -0.2733086491    1.8710841902   -1.0535002163
 H   -0.8949455132    1.8885019940    0.6089732327
 H   -2.4109129873   -2.0852979765    0.3195328027
 H    0.5148948665   -0.0944951937    2.2512137155
 H    2.5266132789   -1.5902145858    1.1690674982
 H    1.9507722266   -0.2306588422   -1.3390219434