21

 C    0.0119339447    1.6467893361    0.0788441221
 C    0.0500160618    0.1385688616    0.0803644259
 C    1.3079949179   -0.6646047020   -0.1987080536
 O    2.5355992003    0.0129398873   -0.0826398456
 C    2.8853370921   -0.0121803220    1.3093361856
 C    3.6677251246   -1.2860579318    1.6359148268
 C    3.6472002632    1.2545273722    1.6529378496
 O    1.6296249960   -0.0084026837    2.0050851210
 C    0.7113330490   -0.6783925523    1.1762043079
 H    0.9326367234    2.0672224089    0.4834857345
 H   -0.1159308217    2.0297276696   -0.9388810036
 H   -0.8224696590    2.0135130058    0.6855162948
 H   -0.8455315117   -0.3402725183   -0.3130344130
 H    1.3103444073   -1.5073037995   -0.8823704841
 H    4.6040282987   -1.3115848007    1.0718881421
 H    3.8953001368   -1.3282658681    2.7044944405
 H    3.0790290284   -2.1684383631    1.3713361501
 H    3.0514871956    2.1342370280    1.4033354417
 H    3.8767853246    1.2740381103    2.7211994598
 H    4.5841879058    1.2906716858    1.0916890299
 H    0.2195448322   -1.5325705542    1.6301682474