16

 O   -0.2950059639    1.3036333149   -0.1696538765
 C   -0.0375804189   -0.0639117752   -0.1543713852
 C    0.9042144362   -0.5005737136   -1.2828687587
 O    1.5268692050    0.2557104116   -1.9756831828
 C    0.5794567680   -0.5396635531    1.1641014047
 N    1.3583719411    0.4815845190    1.8614745716
 C    0.1331908989   -0.0512047786    2.5076143572
 C   -0.9774149584    0.8315945317    2.7326801620
 C   -1.9249814931    1.5224186089    2.9943891871
 H    0.4664620114    1.7322441241    0.2463889314
 H   -0.9914379074   -0.5907397970   -0.3076376238
 H    0.9835233728   -1.6088634175   -1.4039890194
 H    0.9632239758   -1.5590466469    1.1461128431
 H    2.1932130703    0.1002640063    2.2960534030
 H    0.2934607765   -0.7626353238    3.3163412327
 H   -2.7589257242    2.1492000392    3.1931612637