21

 C   -0.1904620846    1.6141043621   -0.1511023069
 C    0.0241513179    0.1223654840    0.0433985102
 C    1.1954331066   -0.6632116291   -0.6020713500
 C    2.4710139419    0.0765822054   -0.1515045255
 C    2.0950110837    0.2153687031    1.3564596357
 C    0.7206086540   -0.4908474014    1.2924994522
 C    0.0180366290   -0.8793186158    2.5682084184
 O    0.8260654848   -1.7395668403    3.3546540445
 O    1.0451362982   -1.6609334358    0.4571709808
 H    0.7131938797    2.2007728876    0.0331725430
 H   -0.5190493896    1.8240286117   -1.1748489138
 H   -0.9701571836    1.9850053843    0.5229255049
 H   -0.8998532218   -0.4341668279   -0.1377414159
 H    1.1499323924   -1.0765889104   -1.6101150052
 H    3.3577131313   -0.5401609801   -0.3110806131
 H    2.6198811184    1.0327732125   -0.6606190013
 H    2.7679099870   -0.3260903073    2.0218838389
 H    2.0274143674    1.2513232156    1.6996230853
 H   -0.1829627967    0.0097315434    3.1761485378
 H   -0.9477937065   -1.3480446083    2.3246462292
 H    1.0886146804   -2.4662787333    2.7773181305