23

 C   -0.1263495263    1.4659539913   -0.2389168181
 C   -0.0419478597   -0.0309489760    0.0044862247
 O   -1.3555752926   -0.5598212515    0.0378404610
 C   -1.4062886158   -1.9626494735    0.2312053973
 C   -2.8633615293   -2.3813224968    0.0554098191
 O   -3.3646350381   -1.8594140837   -1.1712522199
 C   -3.0196364865   -3.9079356904   -0.0237777002
 C   -4.4891642739   -4.3327005335    0.0216477043
 O   -2.3753649135   -4.3896845874   -1.1953525883
 H    0.8759594733    1.9033642397   -0.2654294802
 H   -0.6194639803    1.6745179164   -1.1929005847
 H   -0.6971046485    1.9533962998    0.5564444726
 H    0.5417882675   -0.5244263848   -0.7896195899
 H    0.4687303099   -0.2402618960    0.9583447341
 H   -0.7842987435   -2.4809662224   -0.5128578879
 H   -1.0441120432   -2.2334009785    1.2356038453
 H   -3.4512174367   -1.9911640030    0.9011642552
 H   -2.9595827625   -0.9874899124   -1.2653387012
 H   -2.4846475931   -4.3581175703    0.8220546367
 H   -5.0510023828   -3.8427570232   -0.7791504303
 H   -4.5660875446   -5.4150924864   -0.1084325068
 H   -4.9495752129   -4.0617194413    0.9780508761
 H   -2.6655000171   -3.7949114462   -1.9004336488