17

 C   -0.1712509142    1.8059522322    0.7097361408
 N   -0.0143630913    0.3888815285    0.4523377462
 C   -0.9752163166   -0.3649745360    0.1151209078
 N   -0.7749585126   -1.7371809565   -0.0559728772
 C    0.4244566912   -2.3943971265    0.1459190701
 N    0.5370115719   -3.6220206588   -0.1697363349
 C   -2.4238945116    0.0633330432   -0.1227888992
 N   -3.3583812780   -0.8420976197    0.3077842832
 O   -2.7133186376    1.1070213318   -0.6685042403
 H    0.2950675238    2.3677584044   -0.1085656235
 H   -1.2039638981    2.1527975162    0.8058510235
 H    0.3855100648    2.0539202953    1.6202001548
 H   -1.4874235548   -2.2721597525   -0.5313946666
 H    1.1834477157   -1.7471476411    0.5876250444
 H    1.4708590941   -3.9578992255    0.0573367081
 H   -3.1109881034   -1.5584065989    0.9711248279
 H   -4.3222239131   -0.5453369160    0.2752771950