14

 O   -0.1831734911    0.1986445008    0.3779685671
 C   -0.0083129386    1.3319840275    0.0234883151
 C    1.3901456546    1.9662559279   -0.0984308280
 C    1.4618401481    2.8115215381   -1.2809427592
 C    1.4768876188    3.4880333593   -2.2739930114
 C    1.6756099507    2.7052228298    1.2149028307
 C    2.4243633978    3.9633902111    1.2834852177
 O    0.9996662456    3.9381400759    1.4257004655
 H   -0.8449194767    2.0199206521   -0.2150018963
 H    2.1024328986    1.1351034505   -0.1691614893
 H    1.5008190227    4.0864813407   -3.1513985362
 H    1.6871055800    2.0376439926    2.0771010596
 H    2.9790196350    4.2037527462    2.1887708664
 H    2.7874686644    4.4154762276    0.3637962983