15

 O   -0.0192124371    0.0088910946    0.0166095617
 C    0.0144683158    1.1997671187   -0.0100657198
 O   -1.0936328199    2.0019391588   -0.0091196635
 C   -0.6372207366    3.3692779175   -0.0501029753
 C   -0.5249428929    3.9308255727    1.3716258251
 C    0.6756286506    3.3438092635    2.0746660955
 C    1.5035787551    2.5097957142    1.4445150939
 C    1.2062694167    2.1758586246   -0.0020614865
 O    0.6337671858    3.3111186537   -0.6552548456
 H   -1.3170796766    3.9330187235   -0.6905292058
 H   -0.4464930376    5.0243604186    1.3219548436
 H   -1.4479145444    3.7061394506    1.9199752008
 H    0.8407821428    3.6226220160    3.1110442699
 H    2.3498065575    2.0391318760    1.9312534674
 H    2.0590613909    1.8146099570   -0.5732248013