16

 O    0.5105140290    0.7452894748   -0.7559115605
 C   -0.0139691669   -0.2436678000    0.0650350529
 C   -0.0236331636   -0.0597518775    1.6119423911
 C   -1.4155522007   -0.6851800798    1.6257340155
 C   -1.9385412414   -1.8000926167    2.4149995322
 O   -2.4133414218   -0.4538229397    2.5841629700
 C   -1.5878075621   -0.4699789228    0.1027702746
 C   -2.2988520788    0.7500931066   -0.2339544677
 N   -2.7915422981    1.7598118081   -0.5096044516
 H    0.0156062648    1.5635878005   -0.6208783018
 H    0.4726221450   -1.1777688625   -0.2235718195
 H    0.7688144354   -0.5397238762    2.1884183989
 H   -0.0726630928    1.0014514696    1.8782815157
 H   -2.6532584968   -2.4924917527    1.9727779995
 H   -1.3524762447   -2.1938780917    3.2437974111
 H   -1.9774282665   -1.3085635700   -0.4782062204