13

 O   -0.0781228369   -0.0002153211   -0.1761167838
 C   -0.0575987269    1.1898790360   -0.0538751103
 N   -1.0740468005    2.1164247452   -0.1787076746
 C   -0.5776911621    3.4072158312    0.0178054605
 C   -1.4324541171    4.6328362136   -0.0263220928
 C   -2.1843295824    4.7591985786   -1.2802647086
 N   -2.7904490816    4.8302653393   -2.2607235139
 C    0.7250918979    3.2625695109    0.2916818133
 O    1.0706119856    1.9327650404    0.2664484051
 H   -1.9872023309    1.8653670898   -0.5178789252
 H   -2.1546611786    4.6370691405    0.8012396129
 H   -0.7991728215    5.5158470451    0.1031534502
 H    1.5016127650    3.9694563404    0.5265291973