19

 C   -0.1753296090    1.5465649167   -0.0760719117
 C   -0.0483168898    0.0626209566    0.0264038808
 C    0.0769541080   -1.0625518481   -0.9522168247
 O    1.2266374932   -1.6602952520   -0.3594413380
 C    0.8677528260   -0.9333832115    0.8631726206
 C    2.0305133719   -0.6146771869    1.7501462899
 C   -0.4138406378   -1.6717955230    1.3484851140
 C   -1.0565850938   -1.0726712370    0.0989052400
 O   -2.3929427853   -0.9641346458   -0.2231150576
 H    0.7562391570    2.0106040891   -0.4182721774
 H   -0.9638482941    1.8077306816   -0.7893673695
 H   -0.4437559492    1.9967986696    0.8865761782
 H   -0.0725930592   -1.1176477362   -2.0235896892
 H    2.7823468211   -0.0313922760    1.2108715163
 H    1.7034895655   -0.0448384331    2.6250255383
 H    2.5009100738   -1.5403466213    2.0993592773
 H   -0.3349289094   -2.7594894912    1.4524694287
 H   -0.8218315860   -1.2213456126    2.2575289374
 H   -2.6770318331   -1.7888246089   -0.6334170034