14

 O   -0.2091379272   -0.1166994069    0.0437754717
 C   -0.1237611057    1.0908029901    0.1374701975
 N   -1.1339291182    2.0520458239   -0.0348976571
 C   -0.6955728204    3.3741061072    0.1781296106
 C    0.6147777357    3.2525720494    0.4637968627
 C    2.0091804570    3.6640903273    0.9004516912
 C    2.3361940751    2.1165671484    0.8821847062
 N    0.9552211642    1.9131840201    0.4209384383
 H   -2.0665442505    1.7755897248   -0.2856834280
 H   -1.3609936232    4.2163823715    0.1085698254
 H    2.5783368569    4.2545785084    0.1791276449
 H    2.0812540906    4.1337069830    1.8836497813
 H    3.0958663418    1.7995503688    0.1638217962
 H    2.5443167039    1.6753979240    1.8601763991