18

 C    0.3042288841    1.8216814132   -0.5666570807
 O    0.5945117566    0.5656450772    0.0248769032
 C    0.6755000629   -0.4729138937   -0.9013964963
 C    0.9611934074   -1.8809924255   -0.3136389420
 C   -0.1158102627   -2.5102666517   -1.2558788667
 C   -1.0959856543   -3.5474824545   -0.7264809269
 C   -0.6361166910   -1.0759742516   -1.4676829850
 O   -1.7077645082   -0.6178450302   -1.7467757367
 H    1.0846138327    2.1115292774   -1.2877871669
 H   -0.6649211504    1.8102219234   -1.0783814023
 H    0.2797655174    2.5552487685    0.2421616964
 H    1.3696589935   -0.2309065633   -1.7258710879
 H    1.9829517608   -2.2499714880   -0.4027533577
 H    0.6466563768   -1.9150789371    0.7325520165
 H    0.3519123411   -2.8623039144   -2.1842454608
 H   -1.5660970957   -3.2035782529    0.2002236611
 H   -1.8913385456   -3.7299949657   -1.4550987614
 H   -0.5945587255   -4.4984651209   -0.5216793060