20

 C    0.1945910062    1.4797026081   -0.0741488551
 C   -0.0060497473   -0.0204293524    0.0660833441
 O   -0.2020173493   -0.5387413009    1.1417777301
 C    0.0550261169   -0.8309626121   -1.2222975583
 C   -0.2404438729   -2.3204105204   -1.0337727469
 C   -0.1194283483   -3.1086105113   -2.3201472436
 C    1.2253910401   -3.6197433337   -2.7780709699
 C    0.1741621195   -4.5856591519   -2.2861788637
 H    1.1306677049    1.6986590494   -0.5995159647
 H   -0.6139279033    1.9125768186   -0.6745886306
 H    0.2044318949    1.9467537129    0.9113549689
 H   -0.6378571412   -0.3784922974   -1.9461657191
 H    1.0523377853   -0.6872976303   -1.6628052873
 H    0.4452286011   -2.7271289633   -0.2821033311
 H   -1.2449262541   -2.4368149121   -0.6101133794
 H   -0.7898092071   -2.7819804522   -3.1125483945
 H    1.4573374523   -3.6047507190   -3.8373485873
 H    2.0809128468   -3.4373027982   -2.1350604970
 H    0.3267226087   -5.0473946215   -1.3160570289
 H   -0.3141131231   -5.2282644723   -3.0104909958