25

 C   -0.0101665779    1.5462533736    0.0573676092
 C   -0.0101543033    0.0423052912   -0.0049528937
 C   -0.0628025000   -0.6223523532   -1.1621756172
 C   -0.0294543285   -2.1279444054   -1.3293285350
 C   -1.4195915078   -2.6241981452   -1.7880455251
 C    1.0001658874   -2.4886919171   -2.4195076804
 C    0.3808785296   -2.7993486859    0.0013909884
 C   -0.2982105628   -2.1605333941    1.2163366980
 C    0.0682546380   -0.6756484806    1.3239165424
 H    0.8820523117    1.9189770924    0.5780265754
 H   -0.0324676560    1.9948170488   -0.9395528838
 H   -0.8746667913    1.9211867377    0.6209699765
 H   -0.1303884743   -0.0536743297   -2.0901946801
 H   -1.7359272639   -2.1088733679   -2.7014630747
 H   -1.3977309893   -3.6995570270   -2.0007007379
 H   -2.1842665541   -2.4410800992   -1.0278002391
 H    1.9966813533   -2.1176107646   -2.1590644970
 H    1.0648908465   -3.5751953213   -2.5488117053
 H    0.7213686295   -2.0537391448   -3.3859068959
 H    0.1598684996   -3.8724450053   -0.0458184131
 H    1.4689393525   -2.7099100039    0.1203861546
 H   -1.3869933132   -2.2599602115    1.1294980395
 H   -0.0119328173   -2.6879830824    2.1328989558
 H    1.0858636330   -0.5658014286    1.7302982539
 H   -0.5861096215   -0.1740349159    2.0493796948