23

 C    0.0090233983    1.5841741055    0.0037914878
 C   -0.0192838922    0.0535748719   -0.0121758208
 C   -1.4431212913   -0.5200693979    0.0306626138
 C   -1.4803954111   -2.0282887698    0.0152432337
 C   -1.0145114540   -2.8435686740   -1.2320723288
 C   -1.9758720259   -3.9278362564   -0.7577304291
 C   -1.9223545708   -3.9448582189    0.7785796906
 C   -0.9294665029   -2.8706257127    1.2087520581
 C   -2.7835569497   -2.9425130255    0.0505040385
 H    1.0343702203    1.9659173832   -0.0274673006
 H   -0.5273995465    1.9988661937   -0.8570999689
 H   -0.4662916904    1.9793166898    0.9086622479
 H    0.4917445981   -0.3133183911   -0.9114342595
 H    0.5522904715   -0.3327275800    0.8413423835
 H   -1.9551822563   -0.1526849658    0.9312774760
 H   -2.0158188364   -0.1332445579   -0.8241273475
 H   -1.3634905565   -2.3823022618   -2.1615586233
 H    0.0538742996   -3.0773402318   -1.3164668934
 H   -2.3417512842   -4.7856397282   -1.3076902765
 H   -2.2497465134   -4.8148991261    1.3335514912
 H    0.1420212013   -3.1053876670    1.2133863909
 H   -1.2125490692   -2.4303313069    2.1702633000
 H   -3.8416733286   -2.7269691524    0.0897581764