22

 C    0.0959129408    1.6272556816   -0.0468874254
 C    0.0585165272    0.1083350391    0.0362337814
 C    0.9508896216   -0.7405410471   -0.9221264110
 C    1.3093989755   -1.6965613409    0.2575815248
 C    2.6932526388   -1.4983641917    0.9287520739
 C    3.9622494755   -1.3832277148    0.0969965637
 C    2.1293484698   -0.2386301933    1.6570762771
 C    0.6818236619   -0.6447764019    1.2400244408
 H    1.1159746274    2.0165298244    0.0400306239
 H   -0.3049817150    1.9749359267   -1.0058407368
 H   -0.5035220124    2.0852963236    0.7482704915
 H   -0.9809773445   -0.2263368703   -0.0646907697
 H    0.4342043641   -1.2013558613   -1.7673660179
 H    1.8094968092   -0.1892769919   -1.3176697891
 H    0.9346505865   -2.7170514215    0.1575256638
 H    2.8244407459   -2.2998141363    1.6657774612
 H    3.8888922789   -0.5883584998   -0.6529478008
 H    4.8250382946   -1.1531042148    0.7324714593
 H    4.1798000855   -2.3189844902   -0.4306684564
 H    2.3179500937   -0.1881863207    2.7320779990
 H    2.4655992402    0.7046602810    1.2158375225
 H    0.0214622949   -0.9190238599    2.0649843145