21

 C   -0.2235454488    1.5086488446    0.0407046949
 C   -0.0574064984    0.0041363232   -0.1164276080
 C    1.1503158873   -0.5429175022   -0.9657916299
 C    1.6433992485   -1.2907193552    0.2851680708
 C    2.4638686549   -2.5378674374    0.3571126003
 O    1.8604499753   -0.2781184302    1.2862917385
 C    0.5138731022   -0.7726738701    1.0862224485
 C   -0.1861668100   -1.2597534039    2.3141727873
 O   -0.5062484251   -0.1858039916    3.1890003716
 H    0.7106181178    1.9567584108    0.3913479098
 H   -0.4927750770    1.9795060639   -0.9106525508
 H   -1.0067690351    1.7385269201    0.7700186494
 H   -0.9924033177   -0.4574387652   -0.4521817363
 H    0.8371088431   -1.2042318055   -1.7777433696
 H    1.8490556678    0.2040783326   -1.3519340030
 H    3.4851902986   -2.3458340978    0.0087192496
 H    2.5211749454   -2.9083146672    1.3839172382
 H    2.0353855892   -3.3205145781   -0.2771742907
 H   -1.1394990653   -1.7276496533    2.0465985995
 H    0.4342197056   -2.0177948587    2.8159267393
 H    0.3220172616    0.2700697011    3.3774176007