16

 N   -0.0162934630   -1.1157212756   -0.1972009545
 C   -0.0212975202    0.0321832633   -0.0763425338
 C   -0.0000700075    1.5004681314    0.0153762380
 O   -0.7238482107    1.8749262621    1.1657573822
 C   -0.7011470249    3.2820821268    1.3759674921
 C    0.6930186682    3.7695130008    1.7790397057
 C    1.7619320869    3.1666504103    0.8846550361
 O    2.1692391086    1.8293148420    1.2073890318
 C    1.4343093339    2.0248031270    0.0140565155
 H   -0.4907449408    1.8954147299   -0.8933303158
 H   -1.0347178913    3.7982477789    0.4608111512
 H   -1.4358290060    3.4768302287    2.1602301933
 H    0.7287065225    4.8625660742    1.7198541877
 H    0.9092432735    3.4883240633    2.8147035081
 H    2.5869354715    3.8148869227    0.5926684690
 H    1.9781053394    1.8576950441   -0.9157398466