20

 C   -0.2038556532    1.5576706473    0.2221274961
 C   -0.1435540022    0.0500728281    0.2567480116
 N    1.0585482889   -0.5898845845   -0.3045742887
 C    0.7862659448   -0.7246276936    1.1361991061
 C    1.7082901714   -0.1275376409    2.1377890156
 C    1.6349356721   -0.7693835427    3.3055647854
 C    0.6379758782   -1.9041628266    3.2652082443
 C    0.3722774424   -2.0787137080    1.7481188951
 O   -0.9139781856   -2.5483581770    1.3979210709
 H    0.7801976000    1.9949964069    0.4061598738
 H   -0.5459589060    1.9054718569   -0.7586276145
 H   -0.8995353719    1.9407819618    0.9768889226
 H   -1.0872602596   -0.4526388256    0.0494305621
 H    0.7981839973   -1.4547115390   -0.7763879947
 H    2.3392259104    0.7238761263    1.9151788112
 H    2.1947765006   -0.5124374354    4.1975184511
 H    0.9974824263   -2.8250455818    3.7355559107
 H   -0.2941850356   -1.6344489074    3.7857103885
 H    1.0573640765   -2.8413078752    1.3573213637
 H   -1.5609317150   -1.9498981396    1.7880912991