18

 C   -0.0083054775    1.3871303503   -0.0523923339
 O   -0.1673885625   -0.0053417150   -0.2093006915
 C    0.7063779112   -0.5934586038   -1.1652182632
 C    2.1296341921   -0.7725378001   -0.6214761950
 C    0.0946445393   -1.9020660317   -1.5650136085
 C   -0.4859094966   -2.3409969436   -2.7143901642
 C   -0.8386058358   -3.6831909587   -2.4153631689
 N   -0.4996799422   -4.0238058534   -1.1965114753
 O    0.0981154643   -2.8907814702   -0.6538127518
 H    0.9648273797    1.6585727671    0.3809251221
 H   -0.1207429889    1.9184206188   -1.0107827373
 H   -0.7949248451    1.7202019943    0.6285327922
 H    0.7346465860    0.0342442825   -2.0702860122
 H    2.7688557295   -1.2435306898   -1.3741523175
 H    2.5702907568    0.1930377575   -0.3608206121
 H    2.1116070593   -1.4062853350    0.2679163486
 H   -0.6418873638   -1.7922025658   -3.6278626289
 H   -1.3280948959   -4.4125299535   -3.0453155326