18

 O   -0.1662959834   -0.0328937920    0.0247456131
 C   -0.0438360038    1.1794310171    0.0278082247
 C    1.2082530170    1.8954048571   -0.0039926040
 C    1.2469634142    3.2562372213    0.0148942873
 N    2.4509400708    3.8827072546   -0.0682395207
 C    3.6397729985    3.0247512687   -0.0774482608
 C    3.4262722670    1.9050312964   -1.1365761379
 C    2.5533241925    1.2018810500   -0.0462936410
 C    3.4911725376    1.9015636256    0.9922525748
 H   -0.9423576988    1.8414089668    0.0614893137
 H    0.3598812000    3.8793524588    0.0723733260
 H    2.5393157687    4.8503068797    0.1896704025
 H    4.5347925768    3.6466034475   -0.1081563632
 H    2.9533068868    2.1822067826   -2.0806666227
 H    4.3588467047    1.3680736970   -1.3204020401
 H    2.4535795489    0.1181126873   -0.0440897786
 H    4.4315856435    1.3606864008    1.1145286204
 H    3.0772342189    2.1719464907    1.9661125167