16

 O   -0.3512898801    1.5164463458   -1.1288387814
 C    0.3075602333    1.0555891802   -0.2340080523
 C    1.1713443949    1.9117170771    0.7040521145
 O    1.8080750552    1.3498532246    1.5671710067
 C    1.1932221569    3.3904369996    0.4332190203
 C    2.0960453655    4.3088933392    1.2876937417
 N    2.8666502227    4.7821468998    0.0781954826
 C    3.5026931121    3.5782704700   -0.4833032825
 C    2.0706428142    3.8075209284   -0.7644475064
 H    0.3530161021   -0.0286378550    0.0018946431
 H    0.1730771235    3.7613310121    0.3174806499
 H    1.5634239439    5.1439446640    1.7440224719
 H    2.7118445188    3.8068357576    2.0382392446
 H    4.2038531278    3.8044098960   -1.2802523454
 H    3.8120283272    2.7797044440    0.1875697579
 H    1.6871388120    4.0607265766   -1.7462312752