20

 C   -0.0598825187    1.5654424552    0.0152285702
 C    0.0738009666    0.0432604877    0.0030869193
 C    0.7054642055   -0.5024872558   -1.2915286742
 C    0.9804105052   -1.9788948434   -1.1931199170
 C    1.2777398486   -2.5347161047   -0.0146240153
 C    1.6147980615   -3.9792068907    0.2050592155
 N    1.3021432041   -1.7404047814    1.1461120902
 C    0.8125729156   -0.4554519174    1.2477407854
 O    0.9250165109    0.1830378868    2.2753931662
 H    0.9190507071    2.0418538789   -0.1016452359
 H   -0.7014784025    1.9001570399   -0.8056129796
 H   -0.4831782147    1.9088661947    0.9604785931
 H   -0.9295932300   -0.4038084594    0.0869495391
 H    0.0396933730   -0.2848869559   -2.1335073285
 H    1.6394345894    0.0449447797   -1.4992906737
 H    0.9657844077   -2.5935207321   -2.0849488985
 H    2.6172141980   -4.0897493918    0.6383611041
 H    0.9089896600   -4.4518905373    0.8988527521
 H    1.5926277445   -4.5277525349   -0.7380431204
 H    1.7094524482   -2.1085954080    1.9934501780