21

 C    0.0721879450    1.4903613086    0.2158119419
 C   -0.0545381610   -0.0068959891   -0.1032486231
 C   -1.4781348478   -0.4879990656   -0.0725055470
 C   -2.1792700491   -0.9221439796    1.2300076074
 C   -3.6908666639   -0.8466972404    1.0149936617
 C   -3.4006786112   -1.3290369022   -0.4302837607
 C   -2.0179383974   -1.8951992418    0.0842252034
 C   -2.5858732210   -0.1699152148   -1.0747224285
 O   -3.1286243907    1.1258819710   -1.1847696581
 H    1.1115231564    1.8246075622    0.1410646681
 H   -0.5294969458    2.0845980579   -0.4782560091
 H   -0.2785087073    1.7055687883    1.2309491010
 H    0.3706234293   -0.2051754630   -1.0961847223
 H    0.5452323436   -0.5912473948    0.6066449789
 H   -1.6359308885   -0.9124830314    2.1669686240
 H   -4.2114386271   -1.6144231888    1.5937756408
 H   -4.2151484895    0.1100792452    1.1457122432
 H   -4.1516227566   -1.8668556940   -1.0047823301
 H   -1.5303084065   -2.8553554002    0.0048113894
 H   -2.2707561334   -0.4458349210   -2.0859668817
 H   -3.3311931474    1.4411767635   -0.2981587491