17

 C   -0.0407591401    1.4965326044    0.0218071047
 C   -0.0431132879   -0.0036712095   -0.0209216193
 C    1.1350873000   -0.8963969374   -0.3731280222
 O    0.6447215065   -2.0819436621   -0.9877890209
 C   -0.5656427836   -2.1928923173   -0.2646168996
 O   -0.1926268082   -2.1106777419    1.1136990117
 C    0.5817885811   -0.9182467835    1.0310062735
 C   -1.2536410610   -0.8227629301   -0.4858196759
 O   -2.4178417539   -0.6365490740    0.2790106370
 H    0.8676797214    1.8864121724    0.4924957032
 H   -0.1022989246    1.9228571647   -0.9856440177
 H   -0.9005861182    1.8598263137    0.5943163670
 H    2.1219407142   -0.5884057555   -0.6870261646
 H   -1.0928884926   -3.1177260405   -0.4804699363
 H    1.0821850202   -0.6262999771    1.9425741401
 H   -1.5100393922   -0.6556054022   -1.5342444086
 H   -2.2117780810   -0.9618494540    1.1652438778