20

 N   -0.1076211506   -1.2182677615    0.2786024487
 C   -0.0836492815   -0.0646123953    0.1875784563
 C   -0.0515920535    1.3657306923    0.0695596738
 C    0.5176596933    2.2016143416    1.2075032840
 C    1.2845026480    2.0944969900   -0.0767875026
 C    2.5807659986    1.3377657639   -0.1527174671
 C    3.1296782946    0.9115833305   -1.5456517440
 C    4.5571173677    1.2565850465   -1.0422257619
 C    3.9120340866    2.1116283306    0.0819119409
 H   -0.8974076262    1.7788534937   -0.4692961173
 H   -0.0017715456    3.1233380718    1.4427441689
 H    0.8957855220    1.6607624014    2.0677935826
 H    1.2311010287    2.9593060425   -0.7342536473
 H    2.5372366579    0.4651828110    0.5074026093
 H    2.9277425101   -0.1092003569   -1.8764256906
 H    2.8014332896    1.6040075676   -2.3282048702
 H    5.0659077499    0.3769253069   -0.6383722213
 H    5.2331172343    1.7596396356   -1.7368259955
 H    3.8173376011    3.1614097615   -0.2156362333
 H    4.3528820049    2.0734591662    1.0808969866