21

 O   -0.7764829195    1.4140851714    0.4206166599
 C   -0.0723316243    0.2038019469    0.1173962826
 C    0.7765818668   -0.3211595127    1.2950254900
 C   -0.0472243941   -1.4725775666    1.9522707064
 C   -1.3998731194   -1.4326877837    1.2523070702
 C   -2.5055196588   -2.4000134221    1.5260573128
 C   -2.6496396480   -0.9595918656    1.9649845597
 C   -1.1000113615   -0.9176690565   -0.1588054505
 O   -2.2116445948   -0.4733729824   -0.8964412291
 H   -1.2105831179    1.2906213550    1.2732836991
 H    0.5241174504    0.4478778191   -0.7645857949
 H    1.7467559105   -0.6816404801    0.9426645901
 H    0.9814164891    0.5006256869    1.9872461642
 H    0.4426848308   -2.4359995220    1.7701916787
 H   -0.1331423395   -1.3643518421    3.0370030467
 H   -3.1100580190   -2.7202410543    0.6836854181
 H   -2.3532747240   -3.1555310427    2.2901786808
 H   -2.5868496859   -0.7395500379    3.0262356162
 H   -3.3526734783   -0.3505618433    1.4076118742
 H   -0.6192612282   -1.7203331613   -0.7360308492
 H   -2.2674345944    0.4765695741   -0.7158803260