19

 O   -0.1547177880    1.6189347144    0.1793757481
 C    0.0814469698    0.2156362058    0.1598829043
 C   -1.2336891954   -0.5365285570    0.0923528758
 C   -1.7881860499   -1.1344523111   -1.1771125072
 O   -0.8595254355   -1.4744661629   -2.1857859511
 C   -0.2552343674   -2.7205490934   -1.9019208838
 C    0.8520648224   -2.7893709239   -0.8825692510
 C   -0.5771353444   -3.1028452328   -0.4809401993
 C   -1.5301414277   -2.0352060870    0.0082177551
 H   -0.5431847074    1.8537415076   -0.6698388205
 H    0.7290020374   -0.0501427886   -0.6823385961
 H    0.6168379405   -0.0058666875    1.0887281425
 H   -1.9843945954   -0.0242872061    0.6921535715
 H   -2.7668308819   -0.8679582839   -1.5656440645
 H   -0.2693996909   -3.4033386812   -2.7455424886
 H    1.5187286333   -3.6423508906   -0.9686185003
 H    1.3355099204   -1.8888977148   -0.5336610192
 H   -0.8244807296   -4.1215934732   -0.2074936101
 H   -2.3480781203   -2.3847021239    0.6272816244