17

 O   -0.0761895730    1.4007115583   -0.2687187547
 C    0.0004725389    0.0328999458    0.1164569259
 C   -1.4157621866   -0.5061838322    0.1118430113
 C   -2.0078152431   -0.7387605693   -1.3012726878
 O   -1.2185428271   -1.9842989856   -1.3793696706
 C   -1.5266968570   -2.0504668636    0.0595256846
 C   -3.0565642799   -2.3092958591    0.0001031890
 O   -3.8794272039   -1.1807318670    0.3307144152
 C   -3.4151353906   -1.3274054594   -1.0218350437
 H    0.8187338885    1.7492360447   -0.3154265975
 H    0.6254047643   -0.5464180856   -0.5753899997
 H    0.4233758447   -0.0712146148    1.1290881523
 H   -2.0416761252    0.0209221707    0.8297719392
 H   -1.8595382366   -0.0619928863   -2.1400637700
 H   -0.8918649598   -2.7375493632    0.6188222276
 H   -3.4952551696   -3.2926904901    0.1230992952
 H   -4.1703059739   -1.4529476433   -1.7889136664