16

 C   -0.0213263692    1.5845561044    0.1166374039
 C   -0.0067785603    0.0704761706   -0.0815890062
 N   -1.3520369482   -0.5087343070   -0.0733701059
 C   -1.9782834840   -0.9664714942   -1.1875904343
 N   -3.1730057174   -1.4532292356   -1.2398968632
 C   -3.8958816045   -1.5123385603   -0.0383079962
 O   -5.0287382882   -1.9401842909    0.0348634003
 C   -3.1687874055   -1.0111731820    1.1477934499
 N   -1.9692296667   -0.5327636938    1.1338119420
 H    1.0032143129    1.9666002815    0.1401317943
 H   -0.5574929213    2.0837215841   -0.6959317873
 H   -0.5071087055    1.8380632856    1.0620075930
 H    0.4519762877   -0.1985500262   -1.0367383472
 H    0.5628351455   -0.4182861105    0.7135444352
 H   -1.3813618466   -0.9027810116   -2.0975250984
 H   -3.6691224289   -1.0409383543    2.1111442202