12

 O   -0.1185514671    0.0672557339    0.0213712020
 C   -0.0094304812    1.2445143163    0.0663374922
 O   -1.0149189277    2.1874492083    0.2585772705
 C   -0.0805706741    3.2673428455    0.0189747427
 C    0.9358087672    3.2774588464    1.0882718628
 C    1.0830172173    2.2890040202   -0.1014437432
 C    2.2184318051    2.2285323801   -0.9468472842
 C    3.1823178525    2.1624690338   -1.6626149464
 H   -0.3928657121    4.0651326211   -0.6387955055
 H    1.6697888651    4.0762215627    1.0616119872
 H    0.6812158280    2.8967573242    2.0718146942
 H    4.0297308072    2.0979192174   -2.2995742422