17

 C    0.0599299314    1.3694736847    0.0627196819
 N   -0.0152087257   -0.0706361982    0.1296777454
 C   -1.1921337856   -0.7384393847    0.2116747976
 C   -0.9922689457   -2.2380737337    0.2118469171
 O    0.1005373368   -2.7437512586    0.1195766822
 N   -2.3139230665   -0.1150849610    0.2595812296
 C   -3.5842007809   -0.7820875742    0.4049840662
 C   -4.5508168113    0.1288426370    1.1579109869
 O   -5.5208432201   -0.2636017321    1.7492950207
 H    1.1086237863    1.6714640435    0.0728793743
 H   -0.4163890812    1.7568579887   -0.8464297743
 H   -0.4535578509    1.8218522803    0.9178504772
 H    0.8090029177   -0.6412429302    0.0340563177
 H   -1.9058614947   -2.8534957298    0.2816692962
 H   -4.0477454469   -0.9439361748   -0.5839326424
 H   -3.5872418435   -1.7536473400    0.9160341795
 H   -4.2796578091    1.2058251930    1.0970113641