18

 N    0.4108104818    0.6664620883   -0.8687421024
 C   -0.0766750568    0.1752905481    0.2960241420
 O    0.3986759635    0.3995876683    1.3972420276
 C   -1.2809794038   -0.7308130993    0.1204528288
 C   -2.2814161174   -0.7789483929    1.3006448230
 N   -2.3004975221   -2.2720575139    1.2667974067
 C   -1.2253021128   -2.2942770863    0.2495949339
 C   -1.7950501533   -2.3621863202   -1.1837606992
 N   -1.8094551553   -0.8668430163   -1.2598225472
 H    1.2314037139    1.2474362250   -0.8581195522
 H   -0.0483938829    0.4068745534   -1.7280082805
 H   -1.8287163963   -0.3523820866    2.1999847652
 H   -3.2602125377   -0.3167934713    1.1244333593
 H   -2.0142626286   -2.6802387165    2.1486553509
 H   -0.3238666779   -2.8585544841    0.4913930567
 H   -1.1340355051   -2.7983169652   -1.9407015477
 H   -2.7752458609   -2.8448249846   -1.2294583328
 H   -2.7300788784   -0.4604923560   -1.3937712122