26

 C   -1.7720066881    1.4227422522    1.7524857166
 C   -1.6755771573   -0.0975613330    1.5942143738
 C   -1.2682573331   -0.5179825336    0.1727859730
 C   -1.2099020247   -2.0271264957   -0.0452329444
 C   -0.0522745688   -2.7085795431    0.6851992920
 C    0.0381459196   -4.2286031121    0.5329253552
 C   -2.5000205085   -2.7438249019   -0.2998960814
 N   -1.5115339798   -2.6051100932   -1.3615881347
 C   -1.8400369462   -1.7822492391   -2.5129461325
 H   -2.0651630184    1.6998579703    2.7699099560
 H   -0.8113557419    1.9051331149    1.5399553398
 H   -2.5124245850    1.8472386196    1.0651060928
 H   -0.9580699857   -0.4904052381    2.3234583234
 H   -2.6417467927   -0.5563794901    1.8394539919
 H   -1.9768665574   -0.0674284047   -0.5292400073
 H   -0.2860035884   -0.0841880243   -0.0631099839
 H    0.8779055324   -2.2539026566    0.3156609215
 H   -0.1080154926   -2.4531858246    1.7503908532
 H    0.9632995809   -4.6006205637    0.9834631228
 H   -0.7939661325   -4.7365224911    1.0313953624
 H    0.0244742268   -4.5113794925   -0.5219426042
 H   -2.6785016315   -3.7521061011    0.0644989315
 H   -3.3978702895   -2.1268673942   -0.3616314473
 H   -2.5402516814   -0.9567624973   -2.3106222472
 H   -0.9237755253   -1.3583217697   -2.9373522273
 H   -2.2981350408   -2.4216343871   -3.2751183657