16

 C    3.0765979133   -0.1564912434   -0.0554031112
 C    1.5923514583   -0.5219971621   -0.1169619247
 C    0.6763285410    0.6890749936    0.1535228887
 C   -0.7444931085    0.3621441972    0.0995237895
 C   -1.9103047025    0.0644135311    0.0488870407
 C   -3.3231348861   -0.2839053000   -0.0097956254
 H    3.7076769109   -1.0289263779   -0.2499272063
 H    3.3288230004    0.6088695129   -0.7980508459
 H    3.3485281731    0.2377670281    0.9302614171
 H    1.3464723282   -0.9381152997   -1.1003995850
 H    1.3660201866   -1.3062551878    0.6141153760
 H    0.9209759831    1.1124493831    1.1375462149
 H    0.9014496275    1.4801843547   -0.5750830670
 H   -3.8447109639    0.2890553993   -0.7847692822
 H   -3.4631180219   -1.3469051120   -0.2364176557
 H   -3.8250214392   -0.0819277231    0.9432126049