21

 C    0.0963776586    1.2907754001    0.3875361606
 O   -0.0134906138   -0.0040809446   -0.1752918024
 C   -1.3039041799   -0.5175242395   -0.1425796650
 C   -1.8554497207   -1.0766970244    1.1555270660
 C   -1.5133211443   -1.9900183774   -0.0054290001
 O   -2.5815626996   -2.3907227210   -0.8174030835
 C   -2.7793779018   -1.3874051830   -1.8331084743
 C   -4.2243363016   -1.4381600614   -2.2933760041
 C   -2.3216309068   -0.0561030174   -1.1923438233
 H    1.1515541068    1.5694953214    0.3413062617
 H   -0.4908246950    2.0322110605   -0.1732546198
 H   -0.2357921833    1.3055387235    1.4350577440
 H   -1.1758583873   -1.0972006743    2.0016471808
 H   -2.9036424929   -0.9302694912    1.3944811698
 H   -0.6875244151   -2.6899992002    0.0729807649
 H   -2.1127372941   -1.6177672702   -2.6794364372
 H   -4.8991139651   -1.2095118800   -1.4624383976
 H   -4.3961202888   -0.7111189737   -3.0933997854
 H   -4.4724655925   -2.4329565930   -2.6737181517
 H   -3.1687904259    0.4807952524   -0.7509536733
 H   -1.8425652369    0.6003772733   -1.9232628101