21

 C   -0.1941197957    1.5758108656   -0.0039890252
 C    0.0037339483    0.0588575890   -0.0214764012
 C    0.7953806207   -0.4709474280   -1.2659015920
 C    1.9333503223   -1.3092847815   -0.6694189445
 C    2.9936421747   -0.5079927162    0.0992080376
 C    2.8478474641   -1.3363332807    1.3519130276
 C    2.2446418482    0.0481282352    1.3215694872
 C    0.8095785628   -0.4836281832    1.1712550391
 C    1.4861389419   -1.8214244153    0.7389273407
 H    0.7709073019    2.0948460419   -0.0192042047
 H   -0.7655181120    1.9123473250   -0.8755773784
 H   -0.7348344263    1.8995006062    0.8925371776
 H   -0.9862917371   -0.4157907972   -0.0063600323
 H    0.1506485451   -1.0727228691   -1.9156570464
 H    1.1854463459    0.3497766160   -1.8788535081
 H    2.3591504664   -2.0696090745   -1.3273244437
 H    3.8791043995   -0.0195710676   -0.2882536875
 H    3.5782848904   -1.7868561247    2.0070946658
 H    2.5882322313    0.9375020807    1.8340000940
 H    0.2649229079   -0.5218379307    2.1177509966
 H    1.0041742595   -2.7867488107    0.8790934078