16

 O    0.0179631731   -0.0629251102    0.3956442140
 C   -0.0056078313    1.1260819136    0.1309104852
 N   -1.1804127741    1.8080780580   -0.0909760017
 C   -1.2733689299    3.2614700294   -0.0721117374
 C   -0.0710078377    3.8751167348   -0.7657351514
 C   -0.2165596181    4.6584737912   -2.0096214290
 O   -0.0544503878    5.3075527158   -0.7498684105
 C    1.2101131667    3.1967911915   -0.4634310700
 C    1.2330308569    1.9338820003   -0.0300988997
 H   -2.0075840533    1.2782717696    0.1427619804
 H   -2.1974204009    3.5714549686   -0.5670104552
 H   -1.3026555541    3.6548949009    0.9564738675
 H    0.6245791033    4.7490231233   -2.6953456029
 H   -1.2024290165    4.7472266597   -2.4644560545
 H    2.1180433230    3.7707373696   -0.6263033766
 H    2.1542231207    1.4047941238    0.1823802918