16

 O   -0.1172441144    1.3864011035    0.1357828338
 N    0.0784524299   -0.0046130077    0.1430595977
 C   -1.0043210529   -0.6197489599   -0.0702702684
 C   -2.4871952922   -0.2067960932   -0.2855574834
 C   -2.6570667300   -1.6802251676   -0.6964934766
 C   -3.1333527309   -3.1510406531   -0.7978761696
 C   -1.6188385547   -3.0216066990   -1.2522684453
 O   -1.9955493677   -1.8438621209   -2.0279912501
 C   -1.3334155448   -2.1140484357   -0.0231299809
 H    0.7730536818    1.7186540390    0.2946757116
 H   -2.9660405733    0.0537409226    0.6636388847
 H   -2.7112414153    0.5469552901   -1.0416937922
 H   -3.3556780128   -3.6697900601    0.1377053938
 H   -3.8275023973   -3.3949077893   -1.6030617357
 H   -1.0013105005   -3.7797293115   -1.7399630315
 H   -1.3428447249   -2.5620757372    0.9727817221