15

 C   -0.2168141469    1.1891691122   -0.1933232245
 C   -0.0931076344   -0.2467169847   -0.0259297958
 C    0.0077513187   -1.4444856172    0.1150309732
 C    0.1182192872   -2.7893796415    0.2732102418
 C    0.2166491372   -3.9875816120    0.4143529498
 C    0.3318858046   -5.4269971851    0.5773694362
 O   -0.9479813454   -6.0857672467    0.6463663119
 C   -1.5482879640   -6.3573113143   -0.5325319795
 O   -2.6207273677   -6.8743830012   -0.5996056435
 H    0.0994926927    1.5002764749   -1.1951072800
 H   -1.2546930773    1.5117814754   -0.0544661704
 H    0.4001790753    1.7259403974    0.5358475942
 H    0.9306711868   -5.8608607854   -0.2349871769
 H    0.8280244391   -5.6760889855    1.5195778174
 H   -0.9374624359   -6.0611587163   -1.4073006339