16

 N   -0.1064661253    1.5169148529   -0.0361881772
 C   -0.0653788855    0.0881586799   -0.0494423870
 C   -1.3787338737   -0.6863426587   -0.0997519069
 C   -1.7361127397   -0.8443323976   -1.5777771145
 N   -0.7135451263   -0.0831058403   -2.3399812544
 C    0.2775139312   -0.7079847672   -1.3860094174
 C    1.6258318865   -0.9066855431   -1.8332500699
 N    2.7212136228   -1.0669519235   -2.1703829584
 C   -0.7756043110   -1.8023350000   -0.9403710658
 H    0.8226982903    1.9133154592    0.0598864318
 H   -0.5017968945    1.8485358225   -0.9122013899
 H    0.5655172495   -0.2871361271    0.7597431024
 H   -2.1248609357   -0.7711150998    0.6788635615
 H   -2.7489691536   -0.9818507177   -1.9301886064
 H   -0.5973243106   -0.5450295537   -3.2417417000
 H   -0.7277358645   -2.8732927557   -0.8049213579