19

 C   -0.3695475370    1.4701427114    0.0153688825
 C   -0.0248535803   -0.0107538620    0.0235254648
 N    0.7771073879   -0.3822020537   -1.1584319570
 C    0.8401189650   -1.8254585108   -1.3365114629
 C    1.3692163194   -2.4740477529   -0.0682351275
 C    2.6283535339   -2.0419212328    0.6128239786
 N    1.3177053038   -1.7193456224    1.1800465953
 C    0.8940106210   -0.3762849730    1.1919550237
 O    1.2706698795    0.4035895268    2.0307705671
 H    0.5389425639    2.0715270705   -0.0659980289
 H   -1.0312088041    1.7071561218   -0.8247287943
 H   -0.8740637132    1.7475909608    0.9428396224
 H   -0.9523672084   -0.6114284130    0.0904919391
 H    0.4076408144    0.0657085426   -1.9892408924
 H   -0.1513219021   -2.2697077716   -1.5467975524
 H    1.4882981349   -2.0616133419   -2.1882315739
 H    1.0804821838   -3.5168009546    0.0497876653
 H    3.2225685051   -2.7642555545    1.1652873795
 H    3.1819761327   -1.2155390407    0.1762070709