17

 O    0.2651731680    1.2543465420   -0.4106718339
 C    0.1051901966   -0.0744379803   -0.0057016589
 C    0.1997660286   -0.3631515908    1.5308224103
 C   -1.3092069431   -0.6470423562    1.5405939718
 N   -2.1031242211    0.6200285772    1.4718303523
 C   -2.5267780497    0.3175738219    0.0829057534
 C   -2.6487794194    1.4673724857   -0.8185724679
 N   -2.8147046013    2.3711546676   -1.5195877862
 C   -1.3539118715   -0.6828555849   -0.0190313303
 H   -0.2560544168    1.8133183855    0.1792263702
 H    0.7981740646   -0.6592537634   -0.6145521480
 H    0.7999779007   -1.2515477815    1.7497230225
 H    0.5410284190    0.4685485425    2.1518022955
 H   -1.7233113313   -1.4322494313    2.1774843272
 H   -2.8559679813    0.7197551979    2.1429420649
 H   -3.4750987912   -0.2363904326    0.0251714230
 H   -1.5044180206   -1.5783290292   -0.6180483260