19

 C    0.2663350464    1.3687824592   -0.1934011972
 C    0.0788709171   -0.1031487995    0.0775342664
 N   -0.0060182475   -0.6985513374    1.1972014256
 O    0.0057312264   -0.7807699999   -1.0843231303
 C   -0.1898783732   -2.2025458120   -0.9913107734
 C   -0.2477824373   -2.7550580284   -2.3854537995
 C    1.0266904192   -3.0720601753   -3.1248047162
 C    0.1519756529   -4.1908531286   -2.6192863941
 H    0.3372397716    1.9330380935    0.7378136232
 H    1.1747036063    1.5307254412   -0.7815910518
 H   -0.5718966462    1.7529496895   -0.7826905290
 H    0.0707766284   -0.0312181570    1.9612379236
 H    0.6339838482   -2.6435599995   -0.4185733879
 H   -1.1110069032   -2.3972268292   -0.4312426392
 H   -1.0730314708   -2.3782271805   -2.9827368579
 H    1.0602629531   -2.8847041510   -4.1920582001
 H    1.9649732558   -2.8894458748   -2.6115649240
 H    0.5028999186   -4.7652250557   -1.7681463653
 H   -0.4185424360   -4.7688773746   -3.3372938329