19

 C    0.0040285691    1.5536819760    0.0064280835
 C    0.0245674121    0.0464219115   -0.0331162284
 C    0.4069440245   -0.7760602943   -1.3075102144
 C   -0.3390175758   -1.9600378187   -0.6229449691
 C    0.4271665767   -2.1880222316    0.6876441689
 C    1.8348417327   -1.6787550805    0.8531110503
 C    0.6928563365   -0.7322080784    1.1157505783
 C   -1.2813280222   -0.8187847704   -0.1206112273
 O   -2.4504254726   -0.6386235164    0.0216967507
 H    1.0146964514    1.9689288485   -0.0686054874
 H   -0.5948964656    1.9613967934   -0.8140867220
 H   -0.4338152238    1.9105328115    0.9447760456
 H   -0.1222317961   -0.4164206219   -2.1927349780
 H    1.4637570709   -0.9013037407   -1.5394076318
 H   -0.6999830047   -2.8221539976   -1.1788164440
 H    0.0381888778   -2.9211485254    1.3837287461
 H    2.3360025463   -2.0343948075    1.7479000839
 H    2.5076192688   -1.5556071814    0.0130532528
 H    0.5002911040   -0.3937233260    2.1273344523