14

 C   -0.0155595081    1.5095467451    0.0938308499
 C   -0.0103593461    0.0258505841   -0.0012336024
 C   -0.0391238513   -0.8587728790   -1.0606443972
 N   -0.0194271465   -2.2004545255   -0.6746268901
 C    0.0208880876   -2.0946660228    0.6157560767
 O    0.0596743848   -2.9268484126    1.6942615579
 C    0.0887823675   -2.0668082894    2.7553049798
 N    0.0727837004   -0.8059675745    2.4680445173
 N    0.0291189244   -0.8253808356    1.0933390165
 H    0.8816644503    1.8908246774    0.5947602041
 H   -0.0499748171    1.9387698648   -0.9100861495
 H   -0.8832018321    1.8810159532    0.6510731451
 H   -0.0738394418   -0.5980231906   -2.1078745161
 H    0.1224905179   -2.4977283647    3.7416027380