14

 C    0.0015248905    1.4260595043    0.0718283856
 N    0.0170545126   -0.0194282822    0.0571661571
 C   -0.0180773985   -0.7719096126   -1.1254375379
 O   -0.0633460006   -0.3443819870   -2.2650898229
 N    0.0108192568   -2.0758253893   -0.6849388218
 C    0.0645192466   -2.1451031318    0.7220483548
 C    0.0662329210   -0.8655008207    1.1514182735
 O    0.1048200873   -0.2920138723    2.3756455443
 H    0.9023599749    1.8274898493    0.5457612394
 H   -0.0359482482    1.7441458618   -0.9713899533
 H   -0.8752372470    1.8081591628    0.6034930759
 H    0.0007146530   -2.8521868684   -1.3205777347
 H    0.0926772034   -3.0746804640    1.2605950278
 H    0.1313380082   -0.9843811901    3.0437721723