21

 C   -0.1098744101    1.5803524158   -0.0377992891
 C    0.0414610898    0.0674213851    0.0238437406
 O    0.8058146045   -0.4128874291   -1.0980662362
 C    1.8845356050   -1.2243353658   -0.5410311120
 C    2.8308866228   -0.2840958162    0.1845169043
 C    2.1714160837    0.1342149867    1.2719175853
 C    0.8074405469   -0.5283377782    1.2527668872
 C    1.1863980197   -1.9209678348    0.6466121251
 C    0.0631760323   -2.8898741189    0.2917049845
 H    0.8604383165    2.0796424217    0.0133731621
 H   -0.5899248772    1.8664617744   -0.9783279561
 H   -0.7380006974    1.9379778887    0.7858635858
 H   -0.9576067380   -0.3885359774   -0.0179411739
 H    2.2870783478   -1.8378318312   -1.3462819524
 H    3.7933796951    0.0475341145   -0.1830191653
 H    2.4871063978    0.8819195811    1.9886695811
 H    0.2349591351   -0.5212789178    2.1809943667
 H    1.9169899604   -2.4111001070    1.2949463425
 H   -0.5656875102   -2.5105536170   -0.5165220007
 H    0.4807129761   -3.8474335145   -0.0372173353
 H   -0.5729071104   -3.0921646703    1.1605866857