21

 C    0.2195527814    1.3755340884    0.2641908637
 C   -0.1171542955   -0.0891383902   -0.0866749001
 C   -1.6346031197   -0.2823828118   -0.1385186793
 C    0.5845354645   -0.5280856137   -1.3886349137
 C    2.0120768553   -0.9216591879   -0.9568257916
 C    1.8928113229   -1.2044760984    0.5770102361
 N    0.4643336100   -1.0544897258    0.8662670514
 C    2.3646338121   -2.5455740390    0.9549896879
 N    2.7574343633   -3.5891971758    1.2583981590
 H    1.2996753878    1.5547318082    0.2826460784
 H   -0.2179643124    2.0663670673   -0.4641674761
 H   -0.1803306126    1.6367917585    1.2504187253
 H   -2.0817124379    0.3461077826   -0.9155615784
 H   -1.8777505962   -1.3276748698   -0.3451200279
 H   -2.0986271076   -0.0074800431    0.8153478653
 H    0.0627680634   -1.3955462840   -1.8018414540
 H    0.5802319348    0.2584206338   -2.1472856078
 H    2.3807536973   -1.7942187751   -1.4972288749
 H    2.7263863324   -0.1122544204   -1.1214141696
 H    2.5272966625   -0.4893392860    1.1234366935
 H    0.2929213441   -0.8082534577    1.8348137830