13

 C   -0.0181989068    1.6011234048    0.0115456828
 C    0.0683570348    0.0679624852   -0.0067420359
 O    0.8352889429   -0.3960393687    1.0709591261
 C   -1.3240759807   -0.5812869207    0.0765951055
 N   -2.1625881990   -0.3654721210   -0.9659466539
 O   -1.6310023335   -1.2448641625    1.0539658541
 H    0.9931195126    2.0149573735    0.0264519465
 H   -0.5396982228    1.9954349566   -0.8670517364
 H   -0.5413976366    1.9394967885    0.9106867524
 H    0.5336459284   -0.2512898678   -0.9542550525
 H    0.2155454894   -0.9251985265    1.6026055670
 H   -1.8713147985    0.1278095167   -1.7913075621
 H   -3.0709381203   -0.7996818680   -0.9552034737