21

 C   -0.2369825933    1.5491427032    0.2488861236
 C   -0.0297585717    0.0677984544   -0.0389551288
 C    1.0152649608   -0.5672233935    0.8784338047
 O   -1.3168425259   -0.5531488123    0.1328270699
 C   -1.5009611768   -1.7938833660   -0.5103147677
 C   -2.7890592465   -2.4085267054    0.0490876192
 N   -2.5887568327   -2.6869686181    1.4670015987
 C   -1.5873414825   -1.6274411389   -1.9794327422
 N   -1.6501877166   -1.4941680526   -3.1256612023
 H    0.7004441026    2.0981481813    0.1222330368
 H   -0.9837286171    1.9698836607   -0.4288447461
 H   -0.5842362751    1.6919870434    1.2772775219
 H    0.2771026654   -0.0533564142   -1.0881630925
 H    1.9863195687   -0.0831449071    0.7351294812
 H    0.7215644328   -0.4513129286    1.9264160445
 H    1.1467401483   -1.6341966909    0.6763676749
 H   -0.6736539629   -2.4848279163   -0.2954063508
 H   -3.6171506510   -1.7191169014   -0.1809641376
 H   -2.9830954797   -3.3476596239   -0.4791057032
 H   -2.4538079743   -1.8069311263    1.9548256922
 H   -3.4208687126   -3.1177560074    1.8560050036