21

 C   -0.0999349542    1.4990022473    0.0294893788
 C   -0.0267983756   -0.0027582275   -0.0097417106
 C   -0.0368319920   -0.7064138809   -1.1435377913
 C    0.1057137678   -2.2069362781   -1.1388453684
 O    0.9053924151   -2.6721605323   -0.0569168566
 C    0.5240031492   -2.1688558718    1.1888610654
 C    1.4257836300   -1.1391933352    1.8210901988
 C    0.0505818906   -0.7434865327    1.2913254543
 C   -1.0288672345   -0.4229682106    2.3113800844
 H    0.7597584912    1.9197791250    0.5661590502
 H   -0.1138183946    1.9211030549   -0.9788549100
 H   -0.9971339345    1.8482063206    0.5544986040
 H   -0.1208450328   -0.2122180565   -2.1080786450
 H   -0.8849890329   -2.6941334519   -1.1224204121
 H    0.6138796781   -2.5483246944   -2.0462824662
 H    0.0520684381   -2.9111719326    1.8323195310
 H    1.5764684241   -1.1616488967    2.8959008379
 H    2.2912961611   -0.8508390665    1.2356270996
 H   -0.9488165504    0.6080748533    2.6724692633
 H   -2.0293796994   -0.5535728831    1.8837236202
 H   -0.9476363044   -1.0810509505    3.1821225420