18

 N    0.0513023504    1.4607158446   -0.1065888606
 C    0.0135327112    0.0367564148    0.0749255077
 C   -0.3491341173   -0.9317934875   -1.0367071985
 C   -1.3054806122   -0.7408708309    0.1310270254
 N   -1.2784771593   -1.7563761267    1.1736283998
 C    0.1468733716   -1.8835471757    1.5582584535
 C    0.8436710931   -0.5433361970    1.2140918025
 C   -2.5546785142   -0.0766893357   -0.1003961986
 N   -3.5366309129    0.5071060316   -0.2873688761
 H    0.7637565193    1.7242456293   -0.7803721073
 H   -0.8356287413    1.8142738422   -0.4525477803
 H   -0.6578704228   -0.4944609787   -1.9794370984
 H    0.1445390354   -1.8939404717   -1.1237003528
 H   -1.8079756910   -1.4008889272    1.9648356320
 H    0.2227070477   -2.1460774152    2.6153796976
 H    0.5944302288   -2.7076504494    0.9932440717
 H    1.8960750517   -0.6877211665    0.9497681191
 H    0.7998728717    0.1643097298    2.0479419832