16

 C    0.0171503662    1.4972596460   -0.1080739305
 C   -0.0331260642   -0.0021929259   -0.0463864973
 C   -1.1507427676   -0.7169119122    0.1321336564
 C   -1.1200171950   -2.2167538223    0.1865811956
 C    0.0929557136   -2.7135726242   -0.5857653195
 O    1.2974143961   -2.0495802873   -0.1804863927
 C    1.2901205071   -0.6940165759   -0.0828922123
 O    2.3365263754   -0.1068815304    0.0258032246
 H    0.6615459849    1.8939503957    0.6818582727
 H    0.4494112578    1.8356746185   -1.0557614928
 H   -0.9825188652    1.9270575938   -0.0066857154
 H   -2.1052133669   -0.2114580079    0.2596509573
 H   -1.0856464550   -2.5614511305    1.2298754513
 H   -2.0289775228   -2.6442551245   -0.2513949997
 H    0.2801228866   -3.7771409629   -0.4237089699
 H   -0.0564524107   -2.5483013002   -1.6610085777