17

 O    0.0857709229    1.3490658155   -0.7232666409
 C   -0.0045101563    0.0732366941   -0.1739710202
 C   -0.1880647708   -1.1360380860   -1.0692928469
 C   -1.3162183134   -0.6648961971   -0.1770456278
 N   -1.5261509195   -1.3774155404    1.0740582499
 C   -0.2028105956   -1.3752361334    1.7513317954
 C    0.6096990318   -0.1620954109    1.1994008605
 C   -0.3450669128   -1.3589376020    3.2050546085
 N   -0.4554510432   -1.3282902577    4.3548618400
 H    0.9482519405    1.4392330544   -1.1436854256
 H   -0.3138980005   -0.9212144502   -2.1247286659
 H    0.3271229526   -2.0676230922   -0.8569718924
 H   -2.2060655926   -0.2522973436   -0.6358102136
 H   -2.1825761211   -0.8447585557    1.6385010538
 H    0.3164771923   -2.3035492377    1.4871057197
 H    1.6823133064   -0.3765479970    1.1906124134
 H    0.4416918292    0.7330768401    1.8061428919