21

 C    0.2238031961    1.7350870337   -0.1665776759
 C    0.0706898581    0.2123507440   -0.0420720214
 C    0.6785807791   -0.5034952589   -1.2550396148
 C    0.6968022154   -0.3114486257    1.2573042330
 C   -0.0481057637    0.0687955684    2.5172275901
 O   -1.1308709604    0.6095269415    2.5408819241
 C    0.6429096169   -0.2957388331    3.8585545186
 C   -0.1324125385    0.0286734215    5.1114294434
 O    1.7388441146   -0.8060017589    3.8501771547
 H    1.2826941894    2.0196664019   -0.2014474337
 H   -0.2458346217    2.0981508736   -1.0863993269
 H   -0.2438930538    2.2532356688    0.6741634410
 H   -1.0017662187   -0.0150327163   -0.0039640311
 H    1.7566092492   -0.3151605908   -1.3248704715
 H    0.5333723048   -1.5875427045   -1.1969912102
 H    0.2208284171   -0.1528867728   -2.1856354730
 H    0.7524375570   -1.4102664741    1.2539702485
 H    1.7417683235    0.0059699935    1.3661295717
 H   -1.0948050770   -0.4931072723    5.1023880716
 H    0.4480364817   -0.2588416913    5.9881779551
 H   -0.3685026790    1.0969877617    5.1402910664