19

 O    0.1247514609    1.4955356009    0.1595304298
 C    0.0516395939    0.0814096947    0.0395915362
 C    0.6982492008   -0.6817206558    1.2220674883
 C   -0.1121986014   -1.9856692897    1.3719944664
 C   -1.5116869995   -1.6325111162    0.8856359640
 C   -2.1366539181   -0.3661586526    1.3557260526
 C   -1.3982190087   -0.3603911613    0.0261792798
 C   -2.1952500758   -0.2488653263   -1.2143568167
 O   -3.3658240720   -0.5385154451   -1.3080464226
 H    1.0508014089    1.7534356173    0.1078540362
 H    0.5147592467   -0.2364944525   -0.9101140700
 H    1.7657767013   -0.8638619203    1.0696710049
 H    0.6024245626   -0.0555991240    2.1146985930
 H    0.3020215275   -2.7745098171    0.7341954466
 H   -0.1035107840   -2.3663998915    2.3990644736
 H   -2.1713300613   -2.4205788492    0.5398191354
 H   -3.2141218670   -0.2910040831    1.2650342828
 H   -1.6961412618    0.1908211276    2.1746388175
 H   -1.6252516829    0.1161741243   -2.0987888581