19

 C   -0.3035157306    1.4970461139   -0.0406679828
 C   -0.0048849811    0.0157403448   -0.0362572588
 C    0.6758055045   -0.6638824113   -1.1849909139
 N    1.3392304864   -0.5469979733    0.1240110228
 C    2.4925030246    0.3601944838    0.1906463421
 C    3.1804556234    0.4460269666   -1.1602534321
 O    2.2716839996    0.8967347775   -2.1771088010
 C    1.1414281211    0.1453363968   -2.3527415950
 N    0.4917567149    0.1493498384   -3.4380320263
 H    0.3811372944    2.0683593302   -0.6709755862
 H   -1.3166700166    1.6590869021   -0.4211475650
 H   -0.2605947029    1.9065897849    0.9750664717
 H   -0.7560873061   -0.5757293184    0.4852629997
 H    0.3615665380   -1.6664301670   -1.4593654572
 H    2.2053651131    1.3649746222    0.5211609258
 H    3.1986228661   -0.0347025427    0.9307407343
 H    3.9974224498    1.1709553929   -1.1513856126
 H    3.5874422019   -0.5325480917   -1.4465723181
 H    0.9608838993    0.7443897902   -4.1244811173