16

 O    0.0483832161    0.0163848183   -0.2846368404
 C    0.0249362578    1.1971930610   -0.0928333931
 C   -1.0495448079    2.2257759067    0.3168654254
 N    0.0317905845    3.2578225467    0.4442138366
 C    1.0340724250    2.3100412114   -0.0790052587
 C    2.4843937797    2.3406938956    0.3775512910
 C    3.2080508127    1.1472161775   -0.2437217320
 O    2.7772399824    1.5458548404   -1.5828353317
 C    2.1362933676    2.6873842074   -1.0446076424
 H   -1.7885084795    2.4159542542   -0.4698743936
 H   -1.5702222360    2.0171577119    1.2562302155
 H   -0.1227756911    4.0427727792   -0.1818564558
 H    2.7909771199    2.9536683840    1.2139762321
 H    4.2983047397    1.2021198255   -0.1650292507
 H    2.8499616397    0.1484548367    0.0193776246
 H    2.1314814295    3.6106554235   -1.6160530567