14

 N   -0.1995537783    0.4046710000   -0.9218827778
 C    0.0490805351   -0.0176933136    0.3500440573
 O    0.9323265648    0.4379377745    1.0483076808
 C   -0.9239913440   -1.0976430786    0.8460607067
 C   -1.0060444432   -2.3005321653   -0.0664506415
 C   -2.2817757358   -2.9515767356   -0.3896853207
 O   -1.6416091406   -2.0927462281   -1.3387793097
 H    0.4403367144    1.0637103057   -1.3341003996
 H   -0.8553526986   -0.0865818279   -1.5088904562
 H   -0.5852628364   -1.3994407148    1.8396214167
 H   -1.9196934262   -0.6500675684    0.9442145193
 H   -0.0984763205   -2.9011892411   -0.1320845661
 H   -2.3023419923   -4.0049399904   -0.6629813634
 H   -3.2025322784   -2.5647145265    0.0443731739