21

 C    0.1065059259    1.5342134876    0.0038897363
 C    0.0405057714    0.0260480987    0.2447177753
 O    0.1497849898   -0.2729312109    1.6396703015
 C   -1.2914753117   -0.5661665319   -0.2280425590
 C   -1.3398273743   -2.0826130933   -0.2416863298
 C   -1.4512124693   -2.8642597042    1.0643840937
 C   -2.6300785510   -2.8040384500    0.1598337005
 C   -0.5775330951   -2.7561500892   -1.3176931827
 O    0.0705902158   -2.1936813349   -2.1687237618
 H    1.0480927597    1.9465651571    0.3844708635
 H    0.0515205930    1.7641359911   -1.0649383433
 H   -0.7172836287    2.0422208239    0.5162150744
 H    0.8547650505   -0.4608767651   -0.3098623631
 H    1.0096332444    0.0354672355    1.9415137626
 H   -2.0823973179   -0.1760521293    0.4231067525
 H   -1.4901045264   -0.2039443295   -1.2420176148
 H   -0.9069674926   -3.8004280508    1.1376498018
 H   -1.4343783934   -2.2600554265    1.9615057141
 H   -3.4649680181   -2.1648246975    0.4237732654
 H   -2.9053574268   -3.6946659318   -0.3956899459
 H   -0.6463246352   -3.8703151790   -1.2942267711