14

 C    0.0021574585    1.6331515356   -0.0866290671
 C    0.0338827075    0.1133339541   -0.0111989777
 C    0.6944560067   -0.6724815351   -1.1587550626
 O    2.0642654014   -0.3011678091   -1.1789064395
 C    1.6746155068   -1.3501476217   -0.2605884814
 C    2.3161979298   -2.6211528982   -0.3358589226
 N    2.8172508672   -3.6631285513   -0.3419756462
 C    1.0602273406   -0.5858475370    0.9350485330
 O    1.2291055663   -0.6119636393    2.1107172033
 H    0.9719678379    2.0221048959   -0.4056409127
 H   -0.7616949426    1.9758440067   -0.7910192083
 H   -0.2310865864    2.0525337281    0.8960814366
 H   -0.9530296920   -0.2994498729    0.2349073290
 H    0.2608671683   -1.0719671658   -2.0674627339