18

 C    0.6036606046    1.4894426635   -0.5345954852
 N    0.0865229155    0.1945840967   -0.1122913928
 C    1.0579802018   -0.8668389074    0.0948131234
 C    0.3640441755   -0.2664365435    1.2692885248
 C    1.1087024417    0.5376161458    2.2507914800
 C    2.4270439136    0.7795425103    2.5055632747
 C    2.4743025946    1.6736220539    3.6234222606
 C    1.1821510088    1.9045273235    3.9704072124
 O    0.3397277289    1.2265187347    3.1501472493
 H    1.5856504806    1.7445262987   -0.1087530358
 H    0.6886443627    1.4873353641   -1.6257500104
 H   -0.1073545363    2.2707167163   -0.2482963312
 H    0.7761800790   -1.8566989526   -0.2547430099
 H    2.1125359424   -0.6254641677   -0.0350788152
 H   -0.4828654363   -0.7973111881    1.6986162164
 H    3.2660296199    0.3584518941    1.9749355942
 H    3.3516558191    2.0778032109    4.1032731160
 H    0.7120403338    2.4921550469    4.7416896988