17

 C   -0.3376265571    1.1023565776   -0.1529535613
 O    0.5275527844    0.0061657156    0.1041966145
 C    0.9676487832   -0.6213396519   -1.0449513377
 C    1.5443515038   -1.9825490506   -0.8956024537
 C    0.1817885802   -1.8360472300   -1.5808568188
 C   -1.0582179458   -2.3099145921   -0.8411894372
 C    0.1546934333   -1.9879592632   -3.0111265064
 N    0.1303995226   -2.0934328273   -4.1638538375
 H    0.1591336371    1.8631247798   -0.7712131656
 H   -1.2571675484    0.7829895849   -0.6606289281
 H   -0.5921595615    1.5383667289    0.8148616081
 H    1.3959206656    0.0414135248   -1.7972052954
 H    2.4016127105   -2.2546442439   -1.4991068142
 H    1.5177962528   -2.4159649788    0.0980274206
 H   -0.9982945722   -2.0059376476    0.2057693296
 H   -1.9643199274   -1.8777972083   -1.2755517877
 H   -1.1473573212   -3.3991883781   -0.8864368091