19

 O    0.0188557098    1.3500128874   -0.2366288832
 C   -0.0029119836   -0.0457683196   -0.0320015163
 C    0.2764597508   -0.4809816562    1.4361644104
 C   -1.2583350673   -0.4972395013    1.6700484668
 O   -1.7459848638    0.7886577909    2.0496193442
 C   -1.4402899334   -0.6481806573    0.1346725378
 C   -2.6391538740    0.0105976817   -0.5506436635
 C   -2.4799778825    0.0077039045   -2.0550766927
 O   -3.1969918772   -0.5882646391   -2.8190327334
 H   -0.5049182102    1.7417600874    0.4751294634
 H    0.6282261891   -0.4795483565   -0.8105092201
 H    0.7137188582   -1.4814417931    1.4977579142
 H    0.8640774940    0.2112387089    2.0456733547
 H   -1.6819071602   -1.2786679488    2.3119611725
 H   -1.4675667319    0.9587191915    2.9557474334
 H   -1.4055839266   -1.7141520175   -0.1138297688
 H   -3.5681116817   -0.5063524262   -0.2927089113
 H   -2.7160689317    1.0511213176   -0.2166990054
 H   -1.6205648778    0.6107109857   -2.4222619126