14

 N    0.0243651907    1.2550353484    0.5051866834
 C   -0.0176906514   -0.0121062971    0.0838023421
 N   -1.1675855003   -0.6076088913   -0.0864120638
 C   -1.2920115767   -1.9184826893   -0.3954665563
 N   -0.5356288960   -2.9498412359   -0.1464084093
 C    0.7111951684   -2.8236602036    0.3915310552
 N    1.5842116009   -1.8710130141    0.3327276355
 C    1.3356439075   -0.6198364299   -0.1962723575
 N    2.1940080508    0.1350175478   -0.7659307359
 H    0.8924848081    1.7556846362    0.3909312193
 H   -0.8396425109    1.7552857125    0.6410454672
 H   -2.2469140843   -2.1502834707   -0.8697899668
 H    1.0484966260   -3.7271170820    0.9022521831
 H    3.0777447873   -0.3698376509   -0.8654220163