18

 C   -0.0388985412    1.4916265442    0.0601389262
 C    0.0130678224   -0.0363318562   -0.0169945125
 C    0.7291852799   -0.5267252818   -1.2664051291
 O    0.7304416542   -1.9461954855   -1.2556468178
 C    1.3754415478   -2.4933319261   -2.3795824319
 C    1.3426982496   -3.9480832946   -2.3078650058
 C    1.3294060355   -5.1543980605   -2.2726885770
 C    1.3128289147   -6.5191157815   -2.2301994885
 N    1.3001686389   -7.6800805132   -2.1965491136
 H    0.9665902668    1.9261144410    0.0788798635
 H   -0.5691754099    1.9181743740   -0.7983484319
 H   -0.5576628824    1.8185940025    0.9653852535
 H    0.5260663623   -0.4458414329    0.8602656627
 H   -0.9999405689   -0.4537467850   -0.0112938160
 H    0.2236786275   -0.1556773596   -2.1743744454
 H    1.7651214431   -0.1476616866   -1.2940467202
 H    0.8903467253   -2.1696984634   -3.3175971000
 H    2.4270429646   -2.1610390547   -2.4399164660