18

 C    0.0019861919    1.4745624305   -0.0200700362
 N    1.2385303180    0.6530164275    0.0586420272
 C   -0.0610176521    0.0064917213    0.0072989074
 C   -0.5577027562   -0.9287480978    1.0983670483
 C   -2.0346400986   -1.0307737247    0.7002019081
 O   -1.9778889269   -1.0313063705   -0.7498182306
 C   -0.5899237396   -0.9113143372   -1.0867874751
 C    0.1024661983   -2.2213742776   -0.6874451776
 O    0.0687249531   -2.1752123062    0.7566550434
 H   -0.2114013460    2.0531618827    0.8747231330
 H   -0.2328826052    1.9805688134   -0.9531383749
 H    1.6925169525    0.6200226692   -0.8523610930
 H   -0.3378268307   -0.6827685640    2.1355385413
 H   -2.4863440612   -1.9628762885    1.0538544980
 H   -2.6331386418   -0.1782242110    1.0458670748
 H   -0.4917316839   -0.6014591475   -2.1274333516
 H   -0.4507756292   -3.0944339619   -1.0485212731
 H    1.1431382276   -2.2789753475   -1.0338922093