18

 O    0.9917352123    0.2600700060    0.3343339231
 C    0.4875203350    1.2958093286   -0.0218010011
 C    1.2836800604    2.5646047459   -0.2589688899
 C    1.7054860308    2.6650777612   -1.7264080541
 C    0.6094103427    3.0693903574   -2.7143708809
 C    0.0500182558    4.3901692972   -2.4473992445
 C   -0.4038186635    5.4768777457   -2.2061721493
 C    3.1177786743    3.0095724024   -2.0277009852
 N    2.6159017495    1.6408430077   -2.2530234754
 H   -0.6045696298    1.3560184681   -0.2271283064
 H    0.6901478427    3.4447566278    0.0111228074
 H    2.1721827458    2.5194205695    0.3770222927
 H    1.0342028284    3.0327475005   -3.7231533239
 H   -0.1922190176    2.3188337525   -2.7007167912
 H   -0.8071572760    6.4391587875   -2.0086453414
 H    3.3594087328    3.5615368603   -2.9320699345
 H    3.7879084759    3.1944472999   -1.1926145510
 H    2.9099853606    1.0169754719   -1.5043211843