16

 O    0.0246354437    0.5337157376    1.0617227329
 C   -0.0706929595    1.2231984251    0.0903217297
 C   -1.4387851141    1.6896179128   -0.4262484689
 O   -1.4667960171    2.7229929493   -1.3657773976
 C   -1.2533824297    4.0157382876   -0.8264449774
 C    0.1564020111    4.1739289635   -0.2347035677
 N    1.1356838637    3.7843115836   -1.2243528291
 C    1.4013615216    2.5709819774   -1.4079608432
 O    1.0446068476    1.4494854493   -0.6831257879
 H   -1.8767117896    0.8099392174   -0.9122183055
 H   -2.0439368430    1.9085647186    0.4642736050
 H   -1.3821040289    4.7029544920   -1.6657882132
 H   -2.0067743248    4.2476506381   -0.0588037267
 H    0.3071277498    5.2260661351    0.0262078009
 H    0.2429003989    3.5985615501    0.7000127207
 H    2.1024457402    2.2610930725   -2.1785007219