14

 N   -0.0660564779    1.2772661200   -0.0991526082
 C    0.0049460714   -0.0704157948   -0.0395127623
 O    1.0421120746   -0.7063269401   -0.0731085277
 C   -1.3375384758   -0.8468169964    0.0609890959
 O   -1.0866818284   -2.1983672847   -0.0859034041
 C   -2.0128857739   -0.5423540082    1.4193244800
 O   -1.9578502653   -1.2941190276    2.3589364241
 C   -2.7370762531    0.7233760145    1.4805924098
 C   -3.3525268846    1.7590667354    1.5045744741
 H    0.7940994334    1.8017992460   -0.0836566100
 H   -0.9373748300    1.7636281985    0.0348714088
 H   -2.0118425364   -0.4835222337   -0.7295922291
 H   -0.1189031160   -2.2849131950   -0.0230517116
 H   -3.9078568480    2.6649043762    1.5563951504