21

 O    0.3266605058    0.0243720536    1.7334155421
 C   -0.1436319035    0.3816931146    0.4468527317
 C   -1.3620722112   -0.4661025981   -0.0265327582
 C   -1.8899431646    0.1272413504   -1.3087805371
 C   -1.5733860765   -0.1967249445   -2.5615727621
 C   -0.6457489969   -1.3045264991   -2.9954859860
 C   -1.0131942061   -2.6910098017   -2.4426612187
 C   -0.9060673281   -2.8496015331   -0.9492464636
 C   -1.0389795144   -1.9392678157    0.0173549513
 H    0.7437142239   -0.8397954594    1.6612587551
 H   -0.4444686498    1.4318737125    0.5163054413
 H    0.6519017937    0.3135632850   -0.3095706853
 H   -2.1267604051   -0.3100651317    0.7481405007
 H   -2.5652497582    0.9684575974   -1.1616803595
 H   -2.0278162397    0.3855306090   -3.3604277945
 H   -0.6361118848   -1.3570717849   -4.0891890497
 H    0.3848037943   -1.0727533190   -2.6950609604
 H   -2.0326062055   -2.9485399059   -2.7642382039
 H   -0.3618775626   -3.4392045183   -2.9121692980
 H   -0.7002146033   -3.8691792673   -0.6254007695
 H   -0.9195691874   -2.3025867738    1.0377171543