16

 C   -0.0494841436    1.5247683993    0.0724834696
 C    0.0268244268    0.0408502314   -0.0438954119
 C    0.1708351096   -0.8048920384   -1.1069452732
 O    0.4051919316   -0.7630491525   -2.4616273247
 C    0.2409986535   -2.1317862205   -2.8597986140
 O    0.4359760869   -2.9776935051   -1.7152625968
 C    0.1919303554   -2.1341469740   -0.6604939004
 C    0.0590760362   -2.1509451579    0.6957970687
 N   -0.0055242109   -0.8058353184    1.0671832010
 H    0.7956116455    1.9409569316    0.6346940324
 H   -0.0375224852    1.9725063084   -0.9238423801
 H   -0.9697442016    1.8551550075    0.5713397642
 H   -0.7814866689   -2.2764564705   -3.2426240390
 H    0.9865042861   -2.3777897022   -3.6190279823
 H    0.0349476554   -2.9399656224    1.4266236115
 H   -0.3641119067   -0.5084577063    1.9586235950