14

 C    0.0224281702    1.4915811361   -0.0432368315
 N    1.3631914712    2.0773118364    0.0447221486
 C    2.3826020348    1.3436338643    0.2383214899
 N    2.4214378262   -0.0353193470    0.3957338126
 C    1.2383040567   -0.7308318871    0.2057225266
 C    0.8630966922   -2.0335958663    0.1662408535
 O   -0.4684770135   -2.1046250819   -0.0640253421
 N   -0.9860549770   -0.8162153347   -0.1777086545
 C    0.0305137025   -0.0119074846   -0.0153214408
 H   -0.5816521843    1.8862966156    0.7847228272
 H   -0.4582942218    1.8575736581   -0.9584321364
 H    3.3643084100    1.8110910018    0.3084244263
 H    3.3089444392   -0.5075722957    0.4139149275
 H    1.3795242637   -2.9733852149    0.2720876230