20

 N   -0.0955709554   -1.1104907203   -0.0536650925
 C   -0.0130327051    0.0339444127    0.0848732666
 C    0.1163895140    1.4797590859    0.2484652497
 C    1.4469310135    2.0273282001   -0.3136146294
 C    1.5370613391    3.5290063251   -0.1394867193
 C    1.9063808820    4.2357364030    1.1415034427
 C    3.0148202865    3.4958145642    1.9045054892
 C    3.9337825041    3.5988360833    0.6442702974
 C    2.8089822724    4.3321152716   -0.0992917164
 H   -0.7327937375    1.9631526760   -0.2488643327
 H    0.0330565454    1.7222822502    1.3139362509
 H    2.2752561195    1.5182126010    0.1855011432
 H    1.5202389616    1.7688015484   -1.3759753386
 H    0.7495170939    4.0608043582   -0.6731510099
 H    1.2616920387    4.9938955365    1.5706702139
 H    3.4043678110    4.0776326857    2.7421244904
 H    2.7754785405    2.4920772553    2.2714108518
 H    4.7985161420    4.2406003545    0.8241970789
 H    4.2898326050    2.6638576534    0.2002041829
 H    2.9557461187    5.1727815153   -0.7673513887