20

 C   -0.2138489364    1.3644322010   -0.0332571913
 O    0.1573832701    0.0072330173   -0.1014524768
 C    0.6979950860   -0.5074874401    1.1058674134
 C   -0.3338725992   -0.7966106022    2.1829792647
 C   -0.4267697553   -2.1064823440    2.4322402172
 C    0.5449036648   -2.8966133853    1.6224381096
 C    1.2796160809   -1.8873638663    0.7854100987
 N    1.9877453962   -2.6429245133    1.7983960359
 C    2.5340882669   -2.0118554078    2.9886244068
 H    0.6322318187    2.0017558312    0.2702078530
 H   -0.5364352524    1.6607600087   -1.0344097882
 H   -1.0444119754    1.5388013477    0.6664184072
 H    1.4713270956    0.1885297160    1.4771738307
 H   -0.8818507578   -0.0161583371    2.6990760874
 H   -1.0873038568   -2.5603282529    3.1628507732
 H    0.2944780078   -3.8992629647    1.2889976370
 H    1.5696775338   -2.0568416624   -0.2475736613
 H    1.8853112755   -1.2624127511    3.4639159520
 H    2.7525515343   -2.7902299966    3.7265011335
 H    3.4789556528   -1.5290587381    2.7188950073