19

 C   -0.2186747465    1.5865335736   -0.0021901311
 C    0.0224019218    0.0743571945   -0.0520532755
 O    0.7125894563   -0.3112076021   -1.2396897970
 C    2.1265196121   -0.2533864687   -1.1543074246
 C    2.6386805054   -0.7481889513    0.1899982410
 C    1.7007926929   -1.6581471150    1.0328740496
 O    2.4120111334   -1.2270308745    2.2550843147
 C    2.1980198749    0.0051829400    1.4712337807
 C    0.7391648514   -0.4466233957    1.1902382114
 H    0.7245761967    2.1393123639    0.0601921432
 H   -0.7476658018    1.9126344774   -0.9015152442
 H   -0.8220235306    1.8541206080    0.8716693566
 H   -0.9478294827   -0.4319273133   -0.1291569419
 H    2.4984433252   -0.8897884792   -1.9642494638
 H    2.5014836243    0.7664300556   -1.3455621997
 H    3.6887069224   -1.0473662351    0.1861364674
 H    1.4742377754   -2.7190744580    0.9261212806
 H    2.5720551422    0.9402741676    1.8901808258
 H    0.1078544472   -0.4801584276    2.0805216770