19

 C   -0.6696530809    1.3737684934    0.0812846920
 C    0.0059162302    0.0067507674   -0.0049426720
 C    0.6834612741   -0.4256811050   -1.3201540885
 C    1.3777173166    0.7123966939   -2.0678353178
 O    2.0198282917    0.1375395879   -3.1965246952
 C    1.7059859555   -1.4492374685   -0.7951979358
 O    2.0785876177   -0.9929810333    0.5204643463
 C    1.1300506478   -0.1595586392    1.0212629231
 O    1.2139046367    0.3360529722    2.1083196160
 H    0.0233613539    2.1865552811   -0.1526554099
 H   -1.5207592098    1.4387357225   -0.6027059719
 H   -1.0271096218    1.5362989421    1.1008563206
 H   -0.7351346199   -0.7632945006    0.2548968636
 H   -0.0173201735   -0.9024538484   -2.0108511847
 H    0.6373499315    1.4648381025   -2.3744682704
 H    2.1042727884    1.2113861089   -1.4063870714
 H    2.5175283477    0.8260570068   -3.6466157576
 H    1.2739158471   -2.4526866042   -0.7080565629
 H    2.6073321469   -1.4979523595   -1.4064339033