18

 C   -0.0131813351    1.3895852324   -0.0049829201
 O    0.0085363759   -0.0156855384   -0.0192253617
 C   -1.2816443610   -0.5882139968    0.0144102957
 C   -1.1597160230   -2.1108577257   -0.0287437717
 C   -2.5383244151   -2.7589881031    0.1460955943
 C   -0.4737738562   -2.5764671991   -1.3188748481
 H    1.0232605947    1.7355774614   -0.0312559542
 H   -0.5469921256    1.8008562280   -0.8770089266
 H   -0.4952071290    1.7830173275    0.9047158602
 H   -1.8122987615   -0.2734605570    0.9300936832
 H   -1.8809465652   -0.2319815820   -0.8438231709
 H   -0.5275456676   -2.4002544660    0.8214313038
 H   -3.2111081441   -2.4826246832   -0.6746935065
 H   -2.4576167218   -3.8503839497    0.1511343867
 H   -3.0132054145   -2.4539449513    1.0847970804
 H   -1.0883150102   -2.3343851347   -2.1949282342
 H    0.4949068184   -2.0866742518   -1.4407603748
 H   -0.3171731891   -3.6600600207   -1.3126135653