15

 O    0.0019162426    1.4448189849   -0.0731571298
 C    0.0161144105    0.0462664533   -0.0078489484
 C    0.6767758975   -0.5628772799   -1.2572401334
 C   -0.0354130684   -0.0802282983   -2.5350461894
 C    0.5821960254   -0.6106241556   -3.7471152388
 N    1.0822878384   -1.0430322867   -4.6948202709
 C    0.7325455877   -0.4173520279    1.2466781301
 O    1.2054978033    0.3708088688    2.0280639184
 H    0.4702901683    1.7514711351    0.7200732384
 H   -1.0174886189   -0.3433964532    0.0597856989
 H    1.7285409044   -0.2605188126   -1.2925440042
 H    0.6461839314   -1.6565483047   -1.2010371328
 H   -1.0901988218   -0.3794363814   -2.5193202568
 H   -0.0143281691    1.0132329428   -2.5659995480
 H    0.7993526587   -1.5125745547    1.4047518866