14

 N    0.0277970093    1.3697138109    0.1533779807
 C   -0.0279333755   -0.0025052188    0.0488942117
 C   -1.1474214659   -0.7451958001    0.0155883647
 O   -1.0933799525   -2.1341209511   -0.0256934099
 C    0.1276568419   -2.6920245521   -0.0206742114
 O    0.0594652028   -4.0240923296   -0.0391649164
 N    1.2553864677   -2.0986776450   -0.0062811526
 C    1.2750212697   -0.7045865435    0.0075495530
 N    2.3408889602    0.0019783000   -0.0238122842
 H    0.9483775293    1.7212623776   -0.0813022000
 H   -0.7424740648    1.8962051283   -0.2277278743
 H   -2.1674542278   -0.3922026524    0.0258367554
 H   -0.8716576895   -4.2805049410   -0.0441723594
 H    3.1577097851   -0.6084583334   -0.0591009873