17

 O    0.0647701039    1.3385170427    0.4822781614
 C    0.0534824805    0.0898337642   -0.1858205790
 C   -1.3200430726   -0.5490679612   -0.1215069584
 C   -1.5454597400   -2.0529441046   -0.1773197191
 C   -0.4288719536   -3.0271411962   -0.2922984303
 O   -0.4819833050   -4.0042597128   -0.9984187764
 C   -1.7715482549   -1.2666277741    1.1285170342
 C   -0.8804187376   -1.3936960634    2.2473277194
 C   -0.1464259646   -1.4523948999    3.1995371332
 H   -0.0394734650    1.1553424905    1.4230440020
 H    0.3137899432    0.2964119614   -1.2286835443
 H    0.8202646919   -0.5832213883    0.2172736300
 H   -2.0914625007    0.0387815954   -0.6102366598
 H   -2.4427503981   -2.3858461414   -0.6879768667
 H    0.4660087039   -2.8146418395    0.3278156105
 H   -2.8166837477   -1.1542946052    1.4010481776
 H    0.4959942867   -1.5328002676    4.0417919557