17

 N   -0.4292165367    0.9221499153    0.7964262749
 C   -0.6600739794   -0.0678457521    0.0474103331
 O   -0.3587214598   -1.3134146951    0.4628921914
 C   -0.7929841417   -2.3811671324   -0.3858614139
 C   -2.2430768411   -2.7078591669   -0.1937197819
 C   -3.0061154843   -2.3883110472    0.9081197783
 N   -4.2642577481   -2.8936523998    0.7056461294
 C   -4.3223524483   -3.5336645311   -0.5050229882
 C   -3.0820174556   -3.4348296173   -1.0896333013
 H   -0.6862529865    1.7827187834    0.3172986184
 H   -1.0874893355   -0.0356938980   -0.9644110952
 H   -0.5838720896   -2.1363366021   -1.4372896625
 H   -0.1464908148   -3.2234946983   -0.1182749953
 H   -2.7512172802   -1.8416288230    1.8006379483
 H   -5.0342057116   -2.7897218251    1.3426781327
 H   -5.2340897742   -3.9945876755   -0.8491074891
 H   -2.8020954327   -3.8373966451   -2.0516310588