14

 O   -0.1002960467    1.3598999368    0.1346899644
 N    0.0595599120   -0.0492478262    0.0868667032
 C   -1.0906615722   -0.6312335811   -0.0513671996
 C   -2.3904805926    0.0230913508   -0.1485547277
 C   -3.5167544503   -0.7061383962   -0.2910879082
 N   -3.4883943938   -2.0793692330   -0.3501226079
 C   -2.2844987095   -2.7496659235   -0.2629746693
 C   -1.1226891945   -2.0827814728   -0.1197835586
 H    0.8096947040    1.6536287952    0.2365519644
 H   -2.4426274110    1.1004028938   -0.1051638681
 H   -4.5001455195   -0.2575113590   -0.3667049140
 H   -4.3433853297   -2.5950580771   -0.4565592622
 H   -2.3438571057   -3.8292130548   -0.3173223969
 H   -0.1876854105   -2.6241675330   -0.0530445195