17

 C   -0.0837557850    1.5491096674    0.1333101294
 C   -0.0090693734    0.0275736714   -0.0143941273
 C    0.7376083122   -0.4674516513   -1.2913474989
 C    0.0253272110   -0.0228402812   -2.5838028018
 N    2.1454526901   -0.0499932395   -1.3807381484
 C    0.7305258716   -1.9465593132   -1.2435474410
 N    0.7015367434   -3.0996192171   -1.1756993857
 H    0.9117450820    2.0052321497    0.1368390798
 H   -0.6673464054    2.0142100001   -0.6664622568
 H   -0.5629778345    1.8093624088    1.0812934732
 H    0.5023274226   -0.4002098306    0.8560512903
 H   -1.0196678552   -0.3969598366   -0.0147145860
 H    0.0475755136    1.0676105977   -2.6660400063
 H    0.5333340976   -0.4429939791   -3.4535918841
 H   -1.0176513755   -0.3482147902   -2.5874106036
 H    2.1898911279    0.9588750606   -1.4868600726
 H    2.6380856369   -0.2825193870   -0.5228520004