14

 N    0.1429991094    1.4748512800    0.1329429513
 C    0.3008238648    0.0517680663   -0.1469785537
 C    0.8512017266   -0.6446097711    1.0541116111
 N    0.6598044460   -0.3482907699    2.3016885363
 C    1.3598706704   -1.3509799142    2.9462355580
 N    1.9424102794   -2.2127330373    2.1410803106
 O    1.6041334306   -1.7376097842    0.8738273352
 C    1.4523719601   -1.4584819637    4.3564277390
 C    1.5252487682   -1.5427688529    5.5525087416
 H   -0.4214174803    1.9051476871   -0.5915997154
 H   -0.3504213692    1.5917268141    1.0127264752
 H   -0.6300520345   -0.4757984415   -0.4255314801
 H    0.9984511320   -0.0920097836   -0.9793909804
 H    1.5916354866   -1.6176851294    6.6102467913