17

 C    0.1965601598    1.4251026857    0.0000423681
 O    0.3148596742    0.0287102294   -0.1202822879
 C    0.5015681437   -0.6087441756    1.1291184632
 C    0.5488728255   -2.0877016983    0.9182828599
 N    1.4439812013   -2.8275332180    1.5608538627
 N    1.1691518763   -4.0989244386    1.1643235944
 C    0.1417625521   -4.1557334854    0.2886074046
 O   -0.2263096924   -5.3606686888   -0.1978043550
 C   -0.3043734410   -2.8660516709    0.0961408663
 H    1.1026798625    1.8779683377    0.4331625657
 H    0.0468703655    1.8286896366   -1.0044128573
 H   -0.6611227030    1.7114803334    0.6305695720
 H    1.4347960188   -0.2833131867    1.6135949230
 H   -0.3285112068   -0.3416011952    1.8078366541
 H    1.7224297431   -4.8672297218    1.5025262187
 H   -0.9585700218   -5.2342609462   -0.8089169777
 H   -1.1004589079   -2.5269283073   -0.5450644347