15

 C    0.0118605918    1.5003321245    0.0499461793
 C   -0.0113004202    0.0466064810    0.0191083707
 C   -0.0459355506   -1.1561188469    0.0148716155
 C   -0.0491996778   -2.6064058524   -0.0639957949
 O   -1.3470398779   -3.1119703733    0.2369518106
 C   -1.4371578328   -4.4343912851    0.5233510881
 O   -2.4833101491   -4.9693615032    0.7174547926
 C    0.4069187070   -3.0737941722   -1.4639310894
 O   -0.1181722213   -3.9757092545   -2.0515105291
 H    0.8694338711    1.8708223019    0.6212294360
 H    0.0717427202    1.9182418267   -0.9603095396
 H   -0.8972835142    1.8897452096    0.5199918873
 H    0.6902802228   -3.0182185781    0.6457663354
 H   -0.4526480264   -4.9337939184    0.5861545662
 H    1.2776861574   -2.5138208196   -1.8627421487