18

 C    0.0175331716    1.5917911010   -0.0718786877
 C   -0.1117176611    0.0685938429   -0.0205811389
 C    0.7146382065   -0.6018578741   -1.1267105271
 O    0.2665958720   -1.9005991649   -1.4723435934
 C    0.4777856763   -2.9759914075   -0.6410007462
 O    0.3605146711   -4.0766084377   -1.1223011645
 C    0.8053688762   -2.7648342666    0.7683992359
 C    0.6940614115   -1.6766211330    1.5690590282
 N    0.3308555224   -0.4023285556    1.2816498249
 H    1.0660458113    1.9000760508   -0.0036707983
 H   -0.3998262834    1.9806021078   -1.0039684564
 H   -0.5291878986    2.0577825436    0.7550374577
 H   -1.1619031463   -0.2129246802   -0.1928342579
 H    0.6103225324   -0.0204453589   -2.0460770358
 H    1.7745951180   -0.6106124666   -0.8432164655
 H    1.0957807174   -3.6870341379    1.2552049596
 H    0.9385175534   -1.8114102691    2.6197758763
 H    0.2074880792    0.2249212460    2.0582746791