16

 O    0.1343677353    1.4780581059   -0.2326647857
 C    0.0976761093    0.0693665803   -0.1136899041
 C   -1.3433720379   -0.4700750083   -0.0062889839
 C   -1.4094291668   -1.9571048021    0.0697873616
 C   -1.4119225142   -2.8422480443    1.1278899302
 O   -1.3877706325   -2.5341541837    2.4410950962
 N   -1.4469825486   -4.1152845307    0.6744367273
 N   -1.4643039701   -4.0934695110   -0.6364660403
 N   -1.4362741638   -2.8063382169   -0.9984010903
 H   -0.1451871411    1.8560196286    0.6072916191
 H    0.5727189506   -0.3223217429   -1.0194062361
 H    0.6869378919   -0.2888665097    0.7429836179
 H   -1.8100362661   -0.0586264843    0.8962903148
 H   -1.9199243385   -0.0944556895   -0.8593926354
 H   -1.4238669002   -3.3696280961    2.9236307366
 H   -1.4580815572   -2.5736434353   -1.9790073478