21

 C   -0.0647792868    1.6290666591    0.0223977265
 C    0.0604568561    0.1132422196    0.1102159703
 C    1.0521373782   -0.6576122379   -0.8032687254
 N    1.6851613807   -1.3636806890    0.3673993608
 C    2.2631284798   -0.2858925697    1.1902839927
 C    0.8060826580   -0.5229300449    1.2964481496
 C    0.1055128897   -1.0585780659    2.4919853904
 C    0.8070653692   -1.4433095030    3.7399301344
 N   -0.0209225553   -0.2266194594    3.7147830040
 H    0.9087082510    2.1245115503    0.0964909669
 H   -0.5150842659    1.9283158005   -0.9304252509
 H   -0.7009776287    2.0159633196    0.8258772980
 H   -0.9349476431   -0.3359618618    0.0330626871
 H    0.5824242039   -1.3787191897   -1.4747749793
 H    1.7627475322   -0.0497271962   -1.3751132862
 H    2.9033737980   -0.6595991660    1.9825691598
 H    2.6414268654    0.6077697915    0.6974278506
 H   -0.8157177204   -1.5896907293    2.2579183131
 H    0.4066083720   -2.2550913095    4.3403731670
 H    1.8866444578   -1.3417828807    3.7886014198
 H    0.5894449881    0.5831544123    3.6181606406