21

 C   -0.1181536389    1.4250715096   -0.2842899217
 C    1.2595641310    0.9077163134    0.0516525323
 C    0.0864716587   -0.0402686752    0.0092368278
 C   -0.4443669742   -0.6474212641    1.2633318075
 C   -0.3289993537   -2.1259359376    1.5551300498
 C   -1.6950996938   -1.4794088504    1.3709917696
 C   -2.4097825848   -0.9923758057    2.6195027498
 C   -1.3073805027   -0.1997994929    3.3574745503
 O   -0.3736468120    0.2285385138    2.3676729250
 H   -0.6218759372    2.0128901045    0.4736003718
 H   -0.3290019824    1.7179963320   -1.3069386239
 H    1.9984090217    0.8434530391   -0.7396015619
 H    1.6572975995    1.1572765951    1.0280911631
 H    0.0434581096   -0.7173439229   -0.8387287683
 H    0.0254032782   -2.7618484032    0.7505934548
 H   -0.0222051177   -2.4512151205    2.5440967129
 H   -2.2826579833   -1.7332381487    0.4960897003
 H   -3.2398017820   -0.3378798688    2.3329558614
 H   -2.8155840785   -1.7933351780    3.2455461421
 H   -1.6793448842    0.6881571096    3.8762985204
 H   -0.8031232032   -0.8343709591    4.0992839369