15

 C   -0.0150996776    1.4965913655    0.1098402930
 C   -0.0105932638    0.0139753922   -0.0028807553
 C   -0.0396603428   -0.8586716180   -1.0724081457
 N   -0.0205786570   -2.1995289109   -0.7026679948
 C    0.0200539952   -2.1164987762    0.6015119575
 N    0.0596317216   -2.9083114113    1.7291291477
 C    0.0890008584   -2.0465282618    2.8008555489
 N    0.0714920251   -0.7838699027    2.4580339683
 N    0.0285945370   -0.8415442793    1.0872792894
 H    0.8813277129    1.8721659169    0.6173481208
 H   -0.0486513895    1.9399579425   -0.8881784175
 H   -0.8821268053    1.8626583794    0.6723969695
 H   -0.0741550680   -0.5831652760   -2.1163953111
 H    0.0657572516   -3.9121273401    1.7551013124
 H    0.1230573122   -2.3883517902    3.8225340869