16

 O   -0.1003322155   -0.0202404548   -0.0046495398
 C   -0.0037240727    1.1789856847   -0.0745953905
 C    1.3119979944    1.9279057960   -0.1109669388
 C    1.4172460601    2.8597710827   -1.3364837122
 O    0.3494993583    3.8117268442   -1.3180559223
 C    0.8637152825    5.1425036982   -1.3597908609
 C    2.3572633270    4.9823488130   -1.3662804655
 C    2.6712520452    3.6927522622   -1.3617150320
 H   -0.9022638692    1.8300079468   -0.1209735773
 H    1.3820112351    2.5487156081    0.7919528564
 H    2.1292183446    1.2003093647   -0.1058904814
 H    1.3299735995    2.2450250384   -2.2477782552
 H    0.4942016671    5.6581183051   -2.2600931773
 H    0.4998110104    5.7102514285   -0.4898512718
 H    3.0424791044    5.8201512495   -1.3832297501
 H    3.6627281488    3.2588688826   -1.3736870213