17

 C   -0.2314059879    1.5150114760   -0.0649261475
 C    0.0995785348    0.0147272563    0.0333927715
 C    0.7970818937   -0.4998433352   -1.1851535375
 C    2.0463441394   -0.9458158855   -1.3483633541
 C    2.2907120503   -1.3586465752   -2.7770472388
 N    1.0136806890   -1.0820276866   -3.3909977297
 C    0.0864217222   -0.5826374191   -2.5067981043
 O   -1.0644475038   -0.2803909257   -2.7560130506
 H    0.6804781531    2.1129702332   -0.1614726001
 H   -0.8631742258    1.7043628356   -0.9357265047
 H   -0.7649127694    1.8499749115    0.8296228584
 H    0.7119992280   -0.1826917276    0.9198980267
 H   -0.8381438653   -0.5410769831    0.1552322577
 H    2.8149539533   -1.0233405928   -0.5894832854
 H    3.1074100642   -0.7803294358   -3.2340136781
 H    2.5674256934   -2.4208668902   -2.8506768728
 H    0.7917484907   -1.2527088158   -4.3565638305