21

 C   -0.1080999184    1.5913176761    0.0749827637
 C    0.0118271771    0.0489073307    0.0264469568
 C    0.6963375331   -0.4568080388    1.3193577810
 C   -1.3371279789   -0.5263488006   -0.0434067525
 C   -2.4421369963   -0.9984136626   -0.0706334981
 C    0.8093302192   -0.4410122202   -1.2223608024
 O    0.1940131971   -0.0494331768   -2.4504940153
 C    2.2903735534   -0.0385701287   -1.2755660381
 O    2.8791344665   -0.5330910866   -2.4594942358
 H    0.8747630140    2.0644354825    0.1542713867
 H   -0.6210659117    1.9861169609   -0.8077608197
 H   -0.6997529933    1.8895236206    0.9441386416
 H    0.0647923505   -0.2429615206    2.1852636494
 H    0.8577449715   -1.5379578416    1.2800102717
 H    1.6613356430    0.0345581475    1.4731439693
 H   -3.4167987049   -1.4181943377   -0.1093458417
 H    0.7620028221   -1.5349791708   -1.2365969367
 H    0.1267620483    0.9123126935   -2.4594680201
 H    2.3856540374    1.0599548443   -1.2137555153
 H    2.8461496301   -0.4646948428   -0.4353878978
 H    2.2085470603   -0.4138438481   -3.1453538467