18

 C   -0.0079863472    1.5951397322   -0.0479953548
 C    0.0025562521    0.0666393009    0.0271747512
 C   -1.4066208982   -0.5335757886   -0.0269441329
 C   -1.3796461953   -2.0710148608    0.1056469584
 O   -0.8020291818   -2.4739277968    1.3149421857
 C   -2.7783596443   -2.6508381511   -0.0061808216
 O   -3.2883114820   -3.2871288127    0.8860550560
 C   -3.4958271009   -2.4066417785   -1.2664367115
 N   -4.0400950215   -2.2148992943   -2.2684284165
 H    1.0088422618    1.9971508428   -0.0101458325
 H   -0.4715534671    1.9466765524   -0.9763502784
 H   -0.5685034285    2.0291203253    0.7872129910
 H    0.5976006234   -0.3415219116   -0.8003599788
 H    0.4877916588   -0.2628008894    0.9513010891
 H   -2.0183572706   -0.1293044817    0.7894211605
 H   -1.8964007239   -0.2595300576   -0.9695383265
 H   -0.8018668154   -2.4783877478   -0.7437694992
 H   -1.4746327494   -2.9840667928    1.7909042210