19

 C   -0.0753369890    1.5571502594    0.0606371073
 C    1.4407066407    1.3453260314   -0.0490313060
 O    1.7639018655    0.6485415993    1.1787834964
 C    0.6857817340   -0.3288397537    1.2969023632
 C   -0.0471645565   -0.0194988412    0.0035812418
 C   -1.0843191378   -0.7877335587   -0.7774227861
 C   -0.7472518665   -0.3407866540   -2.2353935448
 O    0.5449340680    0.3035095709   -2.2303603995
 C    1.1524298214    0.1328438792   -0.9736726027
 H   -0.4458841530    2.0251160864    0.9750635079
 H   -0.5209906698    2.0054150778   -0.8252601860
 H    2.1808669422    2.1235031263   -0.2249926097
 H    1.1044105026   -1.3410976262    1.3345276845
 H    0.1138669259   -0.1413233949    2.2128947205
 H   -0.9426219494   -1.8674811161   -0.6576856323
 H   -2.1181178596   -0.5521083615   -0.5114260738
 H   -0.7254461708   -1.1924787630   -2.9257800888
 H   -1.4772101741    0.3820525488   -2.6158246727
 H    1.9321133662   -0.6394330501   -0.9895748893