14

 C   -0.0540986236    1.5551320172   -0.0015826451
 C   -0.0146152087    0.0598307287   -0.0143787766
 C   -0.0083992575   -0.7999925693   -1.0933048967
 N    0.0116242740   -2.0594405968   -0.6004417366
 N    0.0290851875   -2.0940750210    0.7554968696
 C    0.0062247104   -0.8130233576    1.1086930135
 N   -0.0653749905   -0.4334080216    2.4522258208
 H    0.8693313296    1.9931101221    0.4004896020
 H   -0.1873595376    1.9572305124   -1.0098336422
 H   -0.8788617684    1.9278736567    0.6172232018
 H   -0.0232701257   -0.6031880966   -2.1545130955
 H    0.0117103999   -2.9254903324   -1.1081986712
 H    0.1350174882   -1.2154093288    3.0635040798
 H    0.5409320224    0.3454169271    2.6761642965