21

 C    0.9270895392    0.0519024748   -1.2510692651
 O    0.0586266476    0.0904704113   -0.1385282575
 C    0.4536741781   -0.6717204122    0.9774513476
 C    1.7987788255   -0.2008344434    1.5774607552
 C    1.8079235564    1.2085878286    1.9460457184
 C    1.8064966085    2.3712479271    2.2506533124
 C   -0.6807014238   -0.7603723282    2.0258946737
 C   -0.4114941482   -2.2843962240    2.1554332093
 C    0.3969345657   -2.2270620345    0.8294743674
 H    1.1669192016   -0.9790467742   -1.5510225726
 H    0.4035678702    0.5409209510   -2.0761454130
 H    1.8659141391    0.5933156832   -1.0694647549
 H    2.0150653640   -0.8156866329    2.4597558798
 H    2.6083492851   -0.4063685338    0.8660490146
 H    1.8057431428    3.3989458902    2.5169514040
 H   -0.5808511771   -0.1358817134    2.9161463581
 H   -1.6383052026   -0.5490221518    1.5454882985
 H    0.2149726393   -2.5305025605    3.0168144123
 H   -1.2838099580   -2.9400805015    2.1710438106
 H   -0.2156470587   -2.5002149515   -0.0334069525
 H    1.3434504353   -2.7727204043    0.7839533837