19

 O    0.0126377460    1.3984241805   -0.1052230510
 C   -0.0003133838   -0.0081499842    0.0393957364
 C    0.4602297678   -0.5609688318    1.4175981603
 C   -0.2953776537    0.2373826455    2.5043717400
 O   -1.7023901542    0.0663520082    2.4096913540
 C   -2.2409394518    0.2339737795    1.1033636229
 C   -1.4422623795   -0.5593417964    0.0423402782
 C   -1.1718035552   -1.9713374559    0.5337918093
 C   -0.0891451189   -1.9728648137    1.3149619261
 H    0.9285223491    1.6880216131   -0.1596566448
 H    0.5767611628   -0.4873960008   -0.7630029943
 H    1.5405374278   -0.4951558924    1.5864240933
 H   -0.0231844269   -0.1079333088    3.5064599590
 H   -0.0244875589    1.3002255533    2.4151181504
 H   -3.2722215279   -0.1269033546    1.1638211251
 H   -2.2570443212    1.2952975564    0.8185667160
 H   -1.9393167670   -0.4897194541   -0.9292657146
 H   -1.8121313107   -2.8179516984    0.3175174015
 H    0.3195007461   -2.8223188354    1.8490684024