19

 O    0.0717090156    1.2170528332   -0.3220144193
 C   -0.1367766228   -0.1656340041   -0.1380161754
 C   -1.6253717926   -0.5305660712    0.1171024576
 C   -2.4767163213   -0.1340689490   -1.1358056587
 C   -2.5886502659   -1.4268652909   -1.9026876383
 C   -2.2010633777   -2.4778248299   -1.1835888596
 C   -1.7529377031   -2.0876732748    0.2032940290
 C   -2.0576570108    0.1550934824    1.3306231737
 C   -2.3670559089    0.7568679556    2.3264043893
 H   -0.2487666819    1.6587679970    0.4741829741
 H    0.1890023126   -0.6552500013   -1.0611886585
 H    0.4685880788   -0.5590846810    0.6924999845
 H   -3.4661784660    0.2385651634   -0.8434580346
 H   -1.9864898411    0.6743115261   -1.6873484860
 H   -2.9732064406   -1.4677817978   -2.9157479052
 H   -2.2212990415   -3.5099743659   -1.5151518858
 H   -0.8020668113   -2.5487687707    0.4982662182
 H   -2.4882674893   -2.3860731681    0.9604785053
 H   -2.6682323022    1.2671588569    3.2078523495