20

 C    0.2788187786    1.0488694846   -0.0348169201
 O   -0.1303874621   -0.1733140949   -0.6203115829
 C   -1.3782158356   -0.6082695998   -0.1822417004
 C   -1.7765338093   -1.9878276145   -0.5889196041
 C   -1.4761525329   -1.7016274684    0.8693614815
 C   -0.2098051595   -2.2706650648    1.4970994285
 C    0.0894566232   -1.6598137827    2.8807691778
 C   -0.2978329875   -3.7338669711    1.6014203748
 N   -0.3720480180   -4.8837982153    1.6935528752
 H    1.2492548974    1.3009120915   -0.4675732412
 H   -0.4326086696    1.8568164867   -0.2598864151
 H    0.3814116439    0.9725418857    1.0565213210
 H   -2.1410673878    0.1708116786   -0.1655366666
 H   -2.8003542996   -2.1769718005   -0.8890685756
 H   -1.0315950177   -2.5566197453   -1.1356745832
 H   -2.3270829979   -1.6558279071    1.5436231383
 H    0.6247726859   -2.0455023375    0.8222301232
 H    0.1886011059   -0.5748803489    2.7947786824
 H   -0.7202120193   -1.8766057409    3.5835019031
 H    1.0166149520   -2.0628257854    3.2955492935