18

 O    0.1097212137    1.3027468365   -0.3309092149
 C    0.0460339269   -0.0666931497   -0.0161814198
 C    0.1890081437   -0.4168098820    1.5399782899
 C   -1.3693733920   -0.4444363253    1.6118092633
 C   -2.2969582440    0.7653331028    1.5201542421
 N   -2.8905323247   -0.1038002169    0.4070124067
 C   -2.5904625810   -1.3845426715    1.2695325996
 C   -1.8588255010   -2.0677259942    0.1152704242
 C   -1.4167911555   -0.6027634963    0.0990359837
 H    1.0206214411    1.5937937876   -0.2160032036
 H    0.6840203782   -0.6630340015   -0.6851662085
 H    0.6663469484   -1.3873816857    1.6995869896
 H    0.6949036679    0.3357393735    2.1525649816
 H   -2.9957974930    0.9413176251    2.3457320464
 H   -1.8832126441    1.7055433611    1.1499990125
 H   -3.3801271573   -1.7651256805    1.9256415160
 H   -1.1050338039   -2.8117178306    0.3864960706
 H   -2.4748498035   -2.4054143925   -0.7224344094