20

 C   -0.0041110821    1.6197252166    0.0398790472
 C    0.0506979789    0.0846957823    0.0052473783
 N    0.8113121406   -0.4309611047   -1.1169209714
 C    0.4458582548   -0.2526623265   -2.4998316845
 C    1.8411855588   -1.2633561914   -0.7178176350
 O    2.6059008396   -1.8532440584   -1.4569975597
 C    1.7859901321   -1.2743487099    0.7678961757
 C    0.7677411294   -0.5238598270    1.1989936378
 C    0.3285412255   -0.2669423899    2.6031771700
 H    1.0054693029    2.0362454827    0.1028845454
 H   -0.4850280214    2.0111504577   -0.8610553064
 H   -0.5826528824    1.9660786129    0.9012476057
 H   -0.9838876217   -0.2979148073   -0.0313513395
 H    0.4924674229    0.7992980827   -2.8064786984
 H    1.1609932880   -0.8245881882   -3.0947275718
 H   -0.5668955139   -0.6260625176   -2.7030186878
 H    2.4880779906   -1.8422162858    1.3627429282
 H    0.9316942381   -0.8358586920    3.3144987915
 H    0.4116150828    0.7956232814    2.8617696006
 H   -0.7231312536   -0.5435891377    2.7472250841