17

 O   -0.1484129412   -0.0613903752    0.3823337860
 C   -0.0954919683    1.1151988262    0.0951563335
 N    1.0431570678    1.8116262351   -0.1823061506
 C    2.3525997758    1.2299346608   -0.1697509567
 C    3.3697535773    1.4505829498   -1.3505775186
 C    3.4644809637    2.9811291019   -1.3865505258
 C    3.5896093352    3.2908324173   -0.0929714781
 C    3.5566046737    1.9127396373    0.5797884041
 N    4.4880299930    1.1624074421   -0.3602822277
 H   -0.9941519790    1.7601475108    0.0276786172
 H    0.9704587444    2.7917668171   -0.4100793966
 H    2.2367280300    0.1779538412    0.0933496957
 H    3.3397173274    0.8886471883   -2.2830609773
 H    3.4551831584    3.6084318715   -2.2654822802
 H    3.7126496831    4.2456758966    0.3961613182
 H    3.7207449532    1.8310827879    1.6533749965
 H    4.4320798754    0.1681312913   -0.1168289095