21

 C   -0.0970809157    1.5518901011   -0.0842686306
 C    0.0341754122    0.0230345945   -0.0490982994
 C    0.7827616407   -0.4847566379   -1.2846327964
 O    0.0267933861   -0.1380523873   -2.4343700215
 C    0.7298027456   -0.4940274683    1.2198965475
 C   -0.0257848313   -0.1785052440    2.5369999870
 N   -1.3788169193   -0.7246175928    2.6672617239
 C    0.7847014032   -0.6466732049    3.6750452312
 N    1.4469707575   -1.0298291238    4.5406547332
 H    0.8810815711    2.0302325673    0.0478835755
 H   -0.5018262284    1.8684497045   -1.0476124078
 H   -0.7605611494    1.9307475993    0.6995103508
 H   -0.9711631919   -0.4165453327   -0.1038540317
 H    1.7884108659   -0.0334022236   -1.3159503797
 H    0.9145226299   -1.5762557069   -1.2130584081
 H    0.5327986766   -0.3800526515   -3.2150993988
 H    0.8569161344   -1.5824279547    1.1576522343
 H    1.7382416332   -0.0657407084    1.2884891269
 H   -0.1108039321    0.9093676211    2.6442744512
 H   -1.9840202059   -0.3084842744    1.9673646388
 H   -1.3706504222   -1.7268523664    2.4994221535