16

 N    0.0429797531   -1.0586083540    0.0037327960
 C    0.0122271216    0.0979219255   -0.0092276775
 C   -0.0377852627    1.5299470832   -0.0267870303
 N   -1.1254949429    2.1736549363    0.7057565703
 C   -1.3785908195    3.4526819815   -0.0018561474
 C   -0.0753135776    3.6871436834   -0.7601154399
 N    1.0407720063    3.6833857065    0.2720390393
 C    1.2978409333    2.2806215163   -0.1012361318
 C    0.3626604934    2.2881660428   -1.2835882341
 H   -1.9444693278    1.5767881331    0.6910206552
 H   -2.2258589114    3.3910588563   -0.7004011402
 H   -1.5651827952    4.2549315344    0.7175542368
 H   -0.0746571223    4.5346861925   -1.4430243433
 H    1.8095526573    4.2407582921   -0.0949657815
 H    2.2470399651    1.7862543502    0.0684361413
 H    0.4078749093    1.8948344899   -2.2908426130