19

 C    0.9513613094   -1.0279606240   -1.0661761911
 C    0.1252251749   -0.4699118747    0.0917491297
 O    0.2754331149    0.9533626539    0.1978774901
 C   -1.3246360822   -0.8598156269    0.0101662831
 C   -2.0524044873   -1.5017559005   -0.9785107719
 C   -3.3682261143   -1.5521098012   -0.4829954931
 N   -3.4628197761   -0.9862472807    0.7175166452
 N   -2.2137516306   -0.5691548949    1.0027996458
 C   -1.9468385547    0.0695845890    2.2776139838
 H    1.9869333048   -0.6950148712   -0.9659109830
 H    0.9302929788   -2.1215816116   -1.0754516272
 H    0.5671473991   -0.6709623854   -2.0279195567
 H    0.5480981869   -0.8427266289    1.0331744047
 H   -0.1829598707    1.3443110377   -0.5551957944
 H   -1.6811752480   -1.8791190080   -1.9172899492
 H   -4.2493835123   -1.9688335994   -0.9483867768
 H   -1.5313252743   -0.6436707888    2.9987801933
 H   -1.2419193589    0.8890709573    2.1315559200
 H   -2.8943562394    0.4466727285    2.6613662578