19

 O   -0.0806560998    0.0950186134    0.5726286012
 C   -0.0391546025    1.2721185474    0.3548950102
 O   -1.1351740786    2.0659441693    0.4590066603
 C   -0.8430936073    3.4302883388    0.1242256064
 C    0.6920247344    3.5694978043    0.0028108379
 C    1.4009365342    4.2091590192    1.2270080082
 C    1.8958002983    3.0258037787    2.0801595141
 C    2.2932715181    1.9749583865    1.0314429692
 C    1.1845369850    2.1011483066   -0.0341914410
 H   -1.3537899035    3.6630961516   -0.8161900877
 H   -1.2660824147    4.0617736747    0.9110101078
 H    0.9331700173    4.1175306567   -0.9096194577
 H    2.2600457710    4.7937133807    0.8797378472
 H    0.7495460502    4.8960259719    1.7760723362
 H    2.7158651655    3.2979462976    2.7495015453
 H    1.0816738079    2.6384197720    2.7049015361
 H    3.2618457640    2.2296477159    0.5875454834
 H    2.3572002145    0.9568261687    1.4222437678
 H    1.5157086061    1.7620143359   -1.0189631750