20

 C   -1.8004922664    0.1849889552    1.7365387153
 N   -0.8279986267   -0.6873031962    1.0965943066
 C   -0.0814301483   -0.1727671086   -0.0426447301
 C    0.6083189226   -0.4291490139    1.2556022713
 C    1.2008117448    0.6665037679    2.1201595723
 C    1.2162881306    2.0915202101    1.6023647772
 C    1.1744368654    0.4267283529    3.5933096979
 N    2.4388815230    0.3160976772    2.8511378273
 H   -1.5496360812    1.2557408241    1.7148606222
 H   -2.7646448046    0.0551706874    1.2345865338
 H   -1.9226840798   -0.1141719461    2.7821872785
 H    0.0446004072   -0.8515008348   -0.8829928312
 H   -0.2357105324    0.8672867993   -0.3258957557
 H    1.1689531357   -1.3616924434    1.3384570086
 H    0.2095494345    2.5002804452    1.4736579232
 H    1.7565162168    2.7285828299    2.3069458322
 H    1.7291610981    2.1471898757    0.6365623289
 H    1.1159728060    1.2681064674    4.2791766837
 H    0.6982677696   -0.4824562662    3.9519398666
 H    2.6677838252   -0.6646677031    2.7055162514