23

 C    0.0124744289    1.6002889389    0.1030654496
 C    0.0820852212    0.0889047583    0.0739179311
 O   -1.1538438406   -0.4722204948   -0.3243503970
 C    1.2927007909   -0.7244473903   -0.3503113001
 C    2.6847006493   -0.1115718236   -0.3963597264
 C    2.9327701556    0.5135685607    1.0031046641
 C    1.8742356961   -0.1021018158    1.9561902897
 C    0.7988139176   -0.7698517020    1.0941137088
 C    0.1020022058   -1.9702245868    1.6960442911
 H    0.9277625444    2.0705171785    0.4613570143
 H   -0.1849043620    1.9913698360   -0.9035603113
 H   -0.8131034268    1.9181572401    0.7480771916
 H   -1.2797330441   -0.2594641783   -1.2556809982
 H    1.0737096389   -1.5542098688   -1.0161129915
 H    3.4099126479   -0.9089577361   -0.5948242694
 H    2.8069813142    0.6261707748   -1.1977741518
 H    3.9490047825    0.3139571724    1.3545818032
 H    2.8401700656    1.6018088642    0.9636091079
 H    2.3309778470   -0.8791689478    2.5798750839
 H    1.4615801119    0.6431658539    2.6457983916
 H   -0.4083115393   -1.7013576639    2.6290059523
 H   -0.6460044143   -2.3763668415    1.0147248540
 H    0.8273263591   -2.7573823082    1.9340633324