13

 C    0.0172226596    1.4104040508   -0.1338983453
 O    1.3443436591    1.8584586982    0.1808668397
 C    2.0022248941    0.7686627008    0.6594962066
 C    3.2953222697    0.6187517782    1.1103812814
 N    3.7262785920   -0.5828055498    1.5438414821
 N    2.9272741788   -1.6317121090    1.5459590120
 C    1.6535679268   -1.5364885368    1.1147321634
 C    1.1646998446   -0.3308123742    0.6617157004
 O   -0.0616224741    0.0127536428    0.1845938404
 H   -0.7083687587    1.9643470379    0.4719288632
 H   -0.1718057374    1.5522360649   -1.2037192277
 H    4.0114986122    1.4315676891    1.1398030985
 H    1.0602338133   -2.4427535829    1.1476258952