20

 C   -0.0409583222    1.4735374457    0.0251154116
 N   -0.0477733036    0.0311872151    0.1343705090
 C   -1.2799151418   -0.6306412299    0.6132468289
 C   -0.3945264130   -1.6599566214    1.3773017906
 N   -0.0557892393   -2.8953867210    0.6715514577
 C    0.7278815185   -0.5916687437    1.2230568217
 C   -0.8088251999   -1.9259288190    2.8273335012
 N   -0.4916140659   -3.1658367326    3.2808778860
 O   -1.3597778515   -1.0749047120    3.5031098717
 H    0.9609191724    1.8206889195   -0.2506900527
 H   -0.7321342431    1.7871410363   -0.7645941141
 H   -0.3360364208    1.9817543973    0.9619658447
 H   -1.8654530644   -0.0223022875    1.3156685950
 H   -1.9293086356   -1.0268085301   -0.1765784657
 H   -0.9073810647   -3.3996123036    0.4342604448
 H    0.3870215313   -2.6583263013   -0.2120654603
 H    1.7202498056   -0.9641843014    0.9429987801
 H    0.8073464371    0.0360987484    2.1226536737
 H    0.0654306863   -3.7683909577    2.6958598494
 H   -0.6336184055   -3.3727361510    4.2552662966