21

 O    0.0056163592    1.4916945053    0.2042298199
 C    0.0215641327    0.1397430449   -0.2471386964
 C   -1.3351276442   -0.5152621762   -0.1000699146
 C   -1.5542424423   -2.0154393554   -0.1366049285
 C   -0.3852090588   -3.0001719506   -0.2081379734
 C    0.1561205032   -3.3251347072    1.1867840538
 O    0.3776249378   -2.1447017884    1.9430910814
 C   -0.8407333839   -1.5216864005    2.3178763163
 C   -1.7744836630   -1.2430221431    1.1515784085
 H   -0.2028651182    1.4774041786    1.1436125180
 H    0.2933854849    0.1964344486   -1.3075299564
 H    0.7962290477   -0.4397061992    0.2672820735
 H   -2.1181505341    0.0675617055   -0.5795613512
 H   -2.4475551438   -2.3349124985   -0.6633391093
 H   -0.7167240950   -3.9286906441   -0.6849197577
 H    0.4254505262   -2.6060523560   -0.8304531532
 H   -0.5481160816   -3.9823646007    1.7239239013
 H    1.1203161492   -3.8382674690    1.1293534986
 H   -1.3702293317   -2.1615330408    3.0450100877
 H   -0.5550092855   -0.6019682528    2.8418329148
 H   -2.8039065287   -1.0872331107    1.4627201469