18

 C    0.2303863882    1.5398893226   -0.3165912643
 O    1.5535622810    1.3978838751    0.2707760464
 C    1.2769972981    0.0508533760    0.6905188441
 C   -0.0962213488    0.0660027641   -0.0191683653
 N    0.4396051437   -0.8368247970   -1.0683942965
 C    1.7076036419   -1.0252618232   -0.3321878971
 C    3.0778726147   -0.9626526901   -1.0206005407
 O    3.5200759421   -2.1464998498   -0.3117406576
 C    2.1907676821   -2.4004042924    0.1734742313
 H   -0.3663889961    2.2718674053    0.2418102865
 H    0.2673151960    1.8066898054   -1.3772980631
 H    1.4871788432   -0.1212229115    1.7491935327
 H   -1.0578493313   -0.1930080707    0.4238614768
 H   -0.0918161979   -1.6886322242   -1.2083809772
 H    3.0294211865   -1.1237768018   -2.1052897701
 H    3.6935219995   -0.0843496047   -0.8019628349
 H    2.1628165902   -2.5773372971    1.2564872826
 H    1.7153772567   -3.2504271659   -0.3406847936