17

 C   -0.4717526742    1.5140848372   -0.0322480543
 C   -0.0013932262    0.0672982169    0.0046420185
 C    1.1807264790   -0.3572118830   -0.9615125310
 C    2.0399939365   -0.4720253734    0.2980693295
 O    2.3395884537    0.9091430720    0.7964183956
 C    1.9383715764    0.2249186788    2.0150870218
 C    0.8121503966   -0.4869001952    1.2599302300
 C    2.9138886099   -0.9658099778    1.5035895490
 O    3.7405454888   -1.7340065801    1.8433766606
 H    0.3664650512    2.2057675119    0.0563915797
 H   -0.9995488316    1.7207248472   -0.9702196153
 H   -1.1685816212    1.7106931063    0.7897429755
 H   -0.8591086741   -0.5962848590   -0.1321703352
 H    0.9988065739   -1.3164232642   -1.4503984346
 H    1.5295416012    0.3750259950   -1.6922480495
 H    1.9733497555    0.7771823809    2.9545563969
 H    0.4366337146   -1.4269586335    1.6688137929