21

 C    0.2674756748    1.5604119806    0.0096482055
 C    0.0683260336    0.0707560184   -0.0600166533
 C   -0.0075899167   -0.5649576383   -1.2415808903
 C   -0.1930811362   -1.9885554534   -1.5060825201
 C   -0.0176797309   -3.0564919006   -0.7111543631
 C    0.4801487976   -3.1317619887    0.7039582935
 C    0.9784698852   -1.8358167090    1.3470320214
 C   -0.0372564184   -0.6830956459    1.2589295252
 O    0.1960351988    0.1479740784    2.3936418171
 H    1.1504785904    1.8146908659    0.6058580788
 H    0.3820638057    1.9866851717   -0.9897385186
 H   -0.5824802728    2.0684539726    0.4877947698
 H    0.0418400641    0.0515841874   -2.1372506375
 H   -0.5223629963   -2.2014609883   -2.5219328455
 H   -0.2495010624   -4.0279834855   -1.1452678330
 H   -0.3162876437   -3.5686784199    1.3256247567
 H    1.2929229197   -3.8714283942    0.7408942278
 H    1.1770583273   -2.0172913282    2.4076665418
 H    1.9216838294   -1.5200412418    0.8905018594
 H   -1.0488990257   -1.1209189900    1.3245678930
 H   -0.4877226235    0.8238520787    2.4209676713