18

 C   -0.1003306368    1.5312917596    0.0018258355
 C   -0.0091348707    0.0155437621   -0.0220093796
 C   -1.2304901880   -0.8215172811    0.4163168419
 O   -0.4126755057   -1.6310500484    1.2883638353
 C    0.7111307724   -0.7323670318    1.1282135265
 C    1.9603095416   -1.3705378035    0.5054674078
 O    2.0610084426   -0.8227297288   -0.8059268237
 C    0.7399307352   -0.5492770381   -1.2504274976
 H    0.8879815219    1.9790113222   -0.1484467261
 H   -0.7569705459    1.9004957782   -0.7943335265
 H   -0.4950929923    1.8949313534    0.9559900538
 H   -1.9802367365   -0.2517896438    0.9815314955
 H   -1.7362636137   -1.4179129509   -0.3525096816
 H    0.9081661645   -0.1726262374    2.0497225779
 H    2.8878356077   -1.1336609909    1.0339032984
 H    1.8271054821   -2.4625300009    0.4802318340
 H    0.2540772627   -1.4686383868   -1.6152508511
 H    0.8107379191    0.1594805770   -2.0800686406