23

 C   -0.7022288213    1.1627638044    0.0344860107
 C    0.1570070912   -0.0952149653   -0.0916421330
 C    1.3038763450    0.0224586292   -1.1295011278
 C    2.3605357799   -0.9027281439   -0.5814748363
 C    2.1065445407   -1.2521577634    0.6773351690
 C    0.8383098849   -0.6182447774    1.2241453667
 C    1.2011702478    0.4907751772    2.2314318636
 C   -0.0802369629   -1.6502830812    1.9117382975
 O    0.4605110289   -2.2032386549    3.1032610871
 H   -0.1086546759    2.0306655549    0.3384736862
 H   -1.1690640403    1.4036363051   -0.9267093174
 H   -1.5076352447    1.0353502556    0.7657356643
 H   -0.4938062902   -0.9094555974   -0.4389031756
 H    0.9747697913   -0.2451163251   -2.1404981016
 H    1.6852349848    1.0525541878   -1.1969490012
 H    3.2348495394   -1.2010014264   -1.1503952992
 H    2.7574948172   -1.8673905555    1.2922308857
 H    1.8588881889    1.2402943177    1.7815632730
 H    0.3051610299    0.9981813981    2.6043769828
 H    1.7134046256    0.0573219115    3.0940962576
 H   -1.0149806722   -1.1625446712    2.2134598203
 H   -0.3386922832   -2.4429959040    1.1932312943
 H    1.1824958053   -2.7880641560    2.8541708634