23

 C   -0.0890548780    1.3707781242    0.1665565249
 O   -0.0219254831   -0.0226288897   -0.0293556257
 C    0.6805002369   -0.4868410200   -1.1917812571
 C    2.1349565289    0.0108561818   -1.1979255430
 C    0.5868724776   -2.0337052504   -1.1562719841
 C    0.2776254724   -2.5009956448   -2.6016009922
 C   -0.6965126187   -3.6822071990   -2.6825028520
 C   -0.2322439846   -1.2315839958   -3.2464263050
 C   -0.0300927262   -0.1537488114   -2.4937389489
 H    0.8935108463    1.8222875398    0.3643765210
 H   -0.5450264760    1.8978374648   -0.6843235758
 H   -0.7213186382    1.5308718559    1.0441235166
 H    2.6071873537   -0.1933946514   -0.2312644203
 H    2.7020033886   -0.5049888946   -1.9784229140
 H    2.2042509641    1.0841950984   -1.3986545304
 H    1.4858656988   -2.4968385658   -0.7404926640
 H   -0.2512063995   -2.2859059503   -0.4999837117
 H    1.2097928375   -2.8027696724   -3.1033051200
 H   -1.6524499212   -3.4304235473   -2.2107386713
 H   -0.8966410668   -3.9619721164   -3.7225845407
 H   -0.2906899376   -4.5627039565   -2.1731861072
 H   -0.6866639772   -1.2297429415   -4.2329090246
 H   -0.2810655275    0.8628738426   -2.7754772643