18

 C   -0.0452455268    1.4485406844    0.1047609610
 C    0.0570887963   -0.0375950760   -0.0625685339
 C   -0.5857156221   -0.8882976916   -1.1533793503
 C   -0.4097104370   -2.0511389955   -0.1521138039
 C   -1.3274320335   -3.2307280596   -0.0599307727
 N   -0.3059550357   -0.9881734227    1.0196698090
 C    1.1601496397   -0.8317332370    0.5872576051
 C    1.1113081032   -2.1939835557   -0.0144328827
 O    1.8739745550   -3.1128471560   -0.1180185528
 H    0.5673585689    1.9668908494   -0.6403924928
 H   -1.0828804630    1.7760910004   -0.0167080687
 H    0.2923688345    1.7522705141    1.0998515483
 H   -1.6401966267   -0.6179759215   -1.2711572484
 H   -0.1116413020   -0.9720702272   -2.1363238757
 H   -1.2272745805   -3.8482808311   -0.9588075794
 H   -1.0773645353   -3.8517610066    0.8048599560
 H   -2.3710625388   -2.9141647262    0.0261307459
 H    1.9046736339   -0.3834727314    1.2330068762