19

 O   -0.0024743920    0.0056889504    0.0568371333
 C   -0.0268797827    1.2068841907    0.0189827060
 C   -1.2802045268    2.0959069217   -0.0262493408
 C   -0.7197346783    3.5307894396    0.0550439166
 C    0.6310035392    3.3980898905   -0.6875680511
 C    1.1922308715    2.1455291917    0.0073252941
 C    1.5052716050    2.5083080802    1.4754821297
 O    0.3320767609    2.8999262295    2.1741604603
 C   -0.4174875989    3.9115173099    1.5138778303
 H   -1.7992306800    1.9213259424   -0.9760061305
 H   -1.9665048664    1.8238887597    0.7801145429
 H   -1.3839402140    4.2783879719   -0.3866800466
 H    0.4848723369    3.2344526152   -1.7607211005
 H    1.2717681383    4.2768199244   -0.5633115989
 H    2.0600344708    1.6814008917   -0.4649378778
 H    1.8997352943    1.6431208296    2.0149981112
 H    2.2609702292    3.3114402534    1.4997714006
 H    0.1219094962    4.8733280419    1.5431608376
 H   -1.3380122531    4.0213433656    2.0954627237