17

 C   -0.0955431379   -1.1774885642    0.3189463911
 C   -0.0712978822    0.0060317660    0.1143533586
 C   -0.0188416560    1.4437783097   -0.1449504053
 C    1.3825727264    1.9936412590   -0.1643732129
 N    2.1678278622    2.2956177899    1.0488237804
 C    1.8912396156    3.3660914978    0.0523545748
 C    2.8751029717    3.1979682441   -1.1506592518
 N    3.7638071014    2.0426400492   -0.8819456185
 C    2.3814288238    1.8195522187   -1.3640820597
 H   -0.1162904442   -2.2222683026    0.5070292622
 H   -0.5038371547    1.6560512342   -1.1080540006
 H   -0.6050397171    1.9809198322    0.6130196379
 H    1.4960481376    2.4280414509    1.8065990992
 H    1.3662836278    4.2737691814    0.3216531180
 H    3.1335298505    3.9693935525   -1.8638220102
 H    4.3679100273    1.9512212266   -1.6999938135
 H    2.1694539979    1.2782763546   -2.2770573396