18

 C    0.8096093510    1.3589947297   -0.2080639454
 N    0.9020055902    0.0263577256   -0.7646895266
 C   -0.1955400286   -0.6563580961   -1.1523915538
 O   -1.3492815003   -0.2702037063   -1.0921437426
 N    0.0524412843   -1.9509357787   -1.6788548728
 C    1.2574539742   -2.6145518569   -1.8520107763
 O    2.3429563286   -2.1310989978   -1.5497250211
 N    1.1274951287   -3.8622936993   -2.3923390880
 C    2.2724684172   -4.7128465297   -2.6510351643
 H    1.3594885823    2.0829709962   -0.8201876555
 H   -0.2428205213    1.6429436969   -0.1830295597
 H    1.2116866048    1.3915158577    0.8110060358
 H    1.7927856394   -0.4441940133   -0.8841506270
 H   -0.8122367692   -2.3962860161   -1.9449730412
 H    0.2116781882   -4.2088861101   -2.6224956885
 H    2.2109065017   -5.6475079337   -2.0827113054
 H    2.3575696115   -4.9533248058   -3.7165508880
 H    3.1621973673   -4.1661545923   -2.3389060997