12

 N    0.0340516764    1.4353117891    0.1647961325
 C    0.0163701273    0.0565086928    0.0467379509
 C   -1.0983724553   -0.7821467379    0.0196233138
 N   -0.6038079568   -2.0661824863   -0.0252462307
 N    0.7221970058   -2.1055703931   -0.0356386118
 C    1.1154967607   -0.8326630668    0.0096263061
 C   -2.4690352245   -0.4688775338    0.0249647424
 N   -3.5949567856   -0.1877085910    0.0230001859
 H    0.8419118639    1.8823621368   -0.2432147230
 H   -0.8220416003    1.8959657966   -0.1105895627
 H   -1.1347653203   -2.9204451803   -0.0542674591
 H    2.1674448386   -0.5895001163    0.0165720658