19

 C   -1.1498985217    0.9516147460    1.0264356049
 O   -0.3891780671    0.0585606654    0.2299586903
 C   -1.1660228156   -0.7002462779   -0.6810948964
 C   -0.2589005104   -1.1473699947   -1.8270489201
 C   -1.8099957732   -1.9335923289   -0.0232491950
 O   -2.7578638048   -2.5085531928   -0.5168413940
 N   -1.1800756025   -2.3393190749    1.1321517508
 C   -1.5525185591   -3.4522194291    1.8675384835
 N   -0.9195314326   -3.7640645046    2.9236025036
 H   -0.4463376112    1.4835958026    1.6703105803
 H   -1.6866362627    1.6796859358    0.4022491165
 H   -1.8805035905    0.4246198153    1.6563572525
 H   -1.9942200795   -0.0983218051   -1.0795798060
 H    0.5822730907   -1.7308965999   -1.4412764765
 H   -0.8242018573   -1.7642177753   -2.5292606396
 H    0.1367145214   -0.2737142697   -2.3502899408
 H   -0.3947699741   -1.7908569028    1.4581601821
 H   -2.4059552477   -3.9693323956    1.4237769138
 H   -1.3196504221   -4.6040775438    3.3378423600