12

 O    0.0515611314    1.3178428157    0.1153947286
 C   -0.0892266585    0.0036938933   -0.0229324880
 C   -1.2334095153   -0.6683121406    0.1511737230
 C   -1.2374303350   -2.0932999269   -0.0327546921
 N   -2.2319216439   -2.8565435419    0.0953100489
 O    0.0207924496   -2.6525126659   -0.3925759748
 C    1.1551638932   -1.9628974770   -0.5621977548
 O    2.1892588982   -2.4593236650   -0.8626527960
 O    1.0836323253   -0.5953385358   -0.3684754873
 H    0.9718107600    1.5530935910   -0.0642199806
 H   -2.1469539118   -0.1655172980    0.4250098506
 H   -1.9824141131   -3.8278043689   -0.0876451275