16

 O    0.1935214821    1.4078216507   -0.1050088576
 C    0.1032002796    0.0279035662   -0.0507200527
 C    0.0007877094   -0.6552130353    1.3515303318
 N   -1.3714291939   -0.0119765507    1.4438797056
 C   -1.3194336739   -0.6198204584    0.0513924953
 C   -0.6484409123   -1.8970327252    0.6345186837
 O    0.1151722392   -2.6408952996   -0.2860855170
 C   -1.4699097518   -2.7605520349    1.4742906192
 C   -2.0968124976   -3.5268184078    2.1582936588
 H   -0.4440920589    1.7287343672    0.5508697064
 H    0.7951809550   -0.4082801323   -0.7652700192
 H    0.7018279224   -0.6439508008    2.1877175824
 H   -1.9851427548   -0.5613437231    2.0506519077
 H   -2.1624955329   -0.5654218652   -0.6383146901
 H    0.4537852601   -3.4212757367    0.1650601166
 H   -2.6641505316   -4.1963704740    2.7572531991