17

 C   -0.1075707221    1.5274792541   -0.0946622058
 C    0.0158607104    0.0442540550   -0.0113401864
 C    0.6116425754   -1.0205985978   -0.9023142443
 C    1.3627343446   -1.6565523347    0.2605570940
 C    0.2954431737   -0.9777930370    1.1702086807
 N   -1.0039379612   -1.6464840819    0.8705287568
 C   -0.8963341928   -1.0703821222   -0.4688411383
 C   -1.9568768022   -1.0349648174   -1.4196753379
 N   -2.8070221377   -1.0017934467   -2.2047740543
 H    0.8463042148    2.0179256496    0.1278904479
 H   -0.4125162071    1.8290710124   -1.1018705556
 H   -0.8561668062    1.9023788726    0.6106471566
 H    0.8854769489   -0.9466803817   -1.9469466172
 H    1.4479783570   -2.7477857181    0.3164879350
 H    2.3477435362   -1.1991182430    0.3847347879
 H    0.4918268144   -0.7410345914    2.2137847379
 H   -0.9436381360   -2.6668529918    0.8874732532