20

 C    0.1782697556    1.4621846294   -0.0931621100
 C   -0.0086842506   -0.0248982290   -0.0608748174
 C   -0.8613097411   -0.7315114715    0.9162742333
 N    0.6028029502   -0.9105524202    1.0189533724
 C    0.9553351561   -1.9051503750   -0.0610744986
 C    0.4123742892   -0.9800157659   -1.1798042252
 C    2.4368625697   -2.1768317349   -0.0683249766
 C    3.1617200212   -2.5603667497   -1.2843079299
 O    3.2909629934   -1.2460933740   -0.7371499060
 H    1.1826780033    1.7216629652   -0.4436293958
 H   -0.5487580215    1.9306183520   -0.7674351661
 H    0.0429867917    1.8926498154    0.9033501920
 H   -1.2726287640   -0.1522797171    1.7378095358
 H   -1.4754720936   -1.5772142767    0.6090208578
 H    0.4288867567   -2.8594568408    0.0736902904
 H   -0.3808991201   -1.3651017477   -1.8264245683
 H    1.2219738736   -0.5738581610   -1.7884310800
 H    2.8243259568   -2.5162368799    0.8930583966
 H    4.0481373360   -3.1882702758   -1.2113960669
 H    2.6293787075   -2.6180411226   -2.2333004873