18

 C    0.0236409029    1.3989398310    0.1180641672
 N   -0.0194821959    0.0011668298   -0.2620345522
 C    1.1832148937   -0.7637115345    0.0207213624
 C   -1.2258729017   -0.6645009677   -0.1029491724
 N   -1.2610460998   -1.9881678723    0.0368458091
 N   -2.5997137205   -2.2805074754    0.0893862053
 C   -3.3676293404   -1.1799568675    0.0136028036
 O   -4.7106324220   -1.3172211254    0.0703069582
 C   -2.5324174997   -0.0900492155   -0.1120758359
 H    0.9697519956    1.8305040006   -0.2208651962
 H   -0.7831961576    1.9526618806   -0.3691288291
 H   -0.0561366958    1.5610026229    1.2069128271
 H    1.3290710248   -0.9517586306    1.0971430421
 H    1.1239581982   -1.7306345855   -0.4802180438
 H    2.0501429288   -0.2145933920   -0.3582889402
 H   -2.9031026951   -3.2294645519    0.2148338693
 H   -5.1113674234   -0.4467833060   -0.0132432358
 H   -2.8235572222    0.9422946494   -0.2021888987