15

 O    0.0919656731    1.3709755894    0.0855750276
 C    0.0057288127   -0.0073270297    0.0654168655
 C    0.6465613520   -0.7471953051    1.2748956515
 O    0.1652980843   -2.0984339340    1.1226642892
 C   -0.6503700382   -2.0764357022   -0.0171024041
 C   -1.3669242399   -0.7267772417    0.0322526987
 O    0.2036252753   -1.9388791795   -1.2032666897
 C    0.6268007696   -0.6515104845   -1.1730907092
 O    1.3428861470   -0.1248673501   -1.9770018238
 H    0.6507587636    1.6211960193   -0.6656912771
 H    1.7400079467   -0.7374135396    1.2579642676
 H    0.2909059394   -0.3180039197    2.2176459273
 H   -1.1977432398   -3.0097102030   -0.1093508596
 H   -1.9613124469   -0.5924015581    0.9374658466
 H   -1.9560894690   -0.5069107615   -0.8589372406