19

 C   -0.2745568891    1.4900896406    0.0164014748
 C    0.1280683461    0.0519050429    0.0220123725
 O   -0.6487783335   -0.8725120478    0.7979889265
 C    0.7686916071   -0.8162218316    1.0271740948
 C    1.4271811785   -1.6894798039   -0.0436372203
 C    0.7490018588   -0.7728210534   -1.1326742216
 C   -0.2405169848   -1.3994080320   -2.1208949262
 C    0.4286765775   -2.3675124833   -3.0672665070
 O    0.4465771567   -2.2585794423   -4.2669934560
 H    0.5358561284    2.1188868202   -0.3659774085
 H   -1.1519575349    1.6475716340   -0.6210501387
 H   -0.5279088115    1.8183666075    1.0278510386
 H    1.0936586903   -0.6070909674    2.0403878477
 H    2.5173553471   -1.6243464060   -0.0582168117
 H    1.1255298353   -2.7400368660   -0.0236479359
 H    1.5050967137   -0.1874335193   -1.6652878200
 H   -0.9947271449   -1.9457493466   -1.5386283031
 H   -0.7437589317   -0.6315582510   -2.7168382014
 H    0.9371279308   -3.2252955347   -2.5679765143