21

 C   -0.8581227581    1.1995623100    0.0574996413
 C    0.0078632063   -0.0631820125   -0.0125596513
 C    0.7633264907   -0.2560137040   -1.3285803046
 C    2.0349825748    0.5118833383   -1.6034302719
 O    2.4388170330    1.6930465766   -0.9934643304
 C    2.1259175646   -0.8759694278   -1.0109055572
 C    2.2101844510   -1.0429954314    0.5023969670
 C    1.0670565420   -0.1971621451    1.1118001591
 O    1.5073853769    1.1164422555    1.5022837454
 H   -0.2582302145    2.0976866973   -0.1001165024
 H   -1.6279770359    1.1673307852   -0.7198965880
 H   -1.3605699816    1.2884048282    1.0259586271
 H   -0.6509429563   -0.9351924719    0.0982399458
 H    0.1735367536   -0.5868509162   -2.1785657966
 H    2.2998026834    0.5542776339   -2.6564784502
 H    2.1858645584    1.6721238636   -0.0547495724
 H    2.5485996646   -1.6701181812   -1.6185356180
 H    2.0605372213   -2.0985148931    0.7573546993
 H    3.1807378858   -0.7508879517    0.9238125441
 H    0.6353924754   -0.6794323633    1.9973012574
 H    2.1995094948    1.0115113796    2.1633310764