13

 C   -0.1401736262    1.7390308931   -0.1370411676
 C   -0.0439712714    0.1938029306   -0.0997386144
 C    0.4605047389   -0.2120283238    1.3128206195
 O    1.4366337416   -0.8656222267    1.5284829627
 C   -1.4554644940   -0.4300459863   -0.2269332436
 O   -2.4076896910    0.0455834221    0.3263935972
 C    0.8322262135   -0.3324067348   -1.1415790743
 N    1.4848162367   -0.7501217187   -1.9978215022
 H    0.8340043053    2.1886179728    0.0663187665
 H   -0.4817432990    2.0698449119   -1.1200011124
 H   -0.8631742837    2.0688864883    0.6109662132
 H   -0.1953567012    0.1886120865    2.1129204741
 H   -1.5087757495   -1.3603302949   -0.8251194485