17

 O    0.0121006800   -0.1414396101    0.1303916043
 C   -0.0250409886    1.0708728747   -0.0310070125
 N   -1.2182138204    1.7392676992    0.0198586159
 C   -1.4984445911    3.1376306195   -0.2488536606
 C   -0.6670916095    4.0972970981    0.6097252599
 C    0.7471042077    4.3201002392    0.0715954477
 C    1.5669265392    3.1041246976   -0.2461096214
 C    1.2433686219    1.8075177718   -0.2951230839
 H   -1.9990041834    1.1181597973    0.1678292412
 H   -1.3562951889    3.3758283019   -1.3140037235
 H   -2.5607576203    3.2840399694   -0.0355829184
 H   -1.1745998572    5.0672224989    0.6574023419
 H   -0.6306553950    3.7033037087    1.6311524235
 H    0.6976579878    4.9309256197   -0.8433093028
 H    1.3139068482    4.9362767421    0.7829103096
 H    2.6051254630    3.3399541343   -0.4793305325
 H    2.0297538266    1.0962707476   -0.5292227186