22

 C   -0.1096880287    1.4241561425   -0.3309753267
 C    0.0326984773   -0.0081250201    0.1327658514
 N    1.2417533719   -0.8450898315   -0.0470728927
 C    2.4378417979    0.0068827701    0.3001785269
 C    1.9763803116    0.1768330538    1.7715042425
 C    1.9474945400    1.5301649984    2.4729913838
 C    0.6812295836   -0.5357400285    1.3559441899
 C    0.0970896680   -1.6654729932    2.1627981153
 O    1.0597447382   -2.6783967189    2.4092025866
 H    0.7489227801    2.0528154248   -0.0985720054
 H   -0.2580000500    1.4477920417   -1.4162820665
 H   -0.9906357400    1.8785499348    0.1345031945
 H   -0.8369981325   -0.6016329663   -0.1500109629
 H    3.3519490902   -0.5776516748    0.1795255851
 H    2.5300305127    0.9159966828   -0.3020014459
 H    2.5390667973   -0.5279868582    2.3904659361
 H    1.3977047443    2.2898072136    1.9119616954
 H    1.4763877728    1.4428280860    3.4584577148
 H    2.9654606932    1.9034441260    2.6306891227
 H   -0.2293850176   -1.3058088630    3.1459977069
 H   -0.7870913411   -2.0731081580    1.6487382883
 H    1.4105039707   -2.9187948618    1.5423677999