20

 C   -0.2608018237    0.6315156095    0.5027748134
 O    0.7269457122   -0.3155141403    0.1304642419
 C    0.8855640308   -0.4675841729   -1.2780475280
 C    2.3493077122   -0.7888454669   -1.6290651965
 N    2.5123178450   -2.2533492085   -1.7544975967
 C    2.0064346480   -2.9867679065   -0.5839840064
 C    1.1548033607   -2.8277756851   -1.7937945543
 C    0.1021077806   -1.7256699216   -1.7796557074
 O   -1.0531028026   -2.0094920151   -1.0200092121
 H   -0.0069392732    1.6348288058    0.1303024926
 H   -1.2528625530    0.3537473838    0.1270246619
 H   -0.2819061347    0.6574650953    1.5952668354
 H    0.5432219302    0.4450112231   -1.7795937120
 H    2.6037751293   -0.3486883413   -2.5993644341
 H    3.0340615402   -0.3835371900   -0.8791277926
 H    2.4965233633   -3.9393143263   -0.4050288650
 H    1.7568176632   -2.4218741486    0.3093462676
 H    0.9997332540   -3.6713077343   -2.4600486582
 H   -0.2525022707   -1.5536507078   -2.8014634864
 H   -0.7596368319   -2.0511251821   -0.1013895231