18

 C   -0.1090502556    1.6441318121   -0.0285489696
 C    0.0375786377    0.1144571565   -0.0230830047
 C    1.0036502080   -0.6768758199   -0.9794680845
 C    2.4144956127   -0.3316674797   -0.4953673844
 N    2.5417433600    0.9195565356    0.2843133551
 C    2.2356917166   -0.3434533626    0.9919945544
 C    0.7509619230   -0.6935550820    1.1225006195
 C    0.7326938635   -1.8313218283    0.0450385934
 O    0.5076915166   -2.9989931692    0.0087249511
 H    0.4599655410    2.1026896655   -0.8380940946
 H   -1.1628878554    1.9139400820   -0.1526832567
 H    0.2518045458    2.0889778454    0.8995106981
 H   -0.9553206722   -0.3302260740   -0.1459902690
 H    0.8109531038   -0.7784010890   -2.0450449894
 H    3.2809098160   -0.7592458624   -0.9852500660
 H    3.5341036867    1.1122879209    0.4051392791
 H    2.9621319238   -0.7802521540    1.6665113337
 H    0.3114267881   -0.8113774872    2.1103364345