20

 C    0.1835506729    1.4657242100    0.2675053049
 N   -0.1136507084    0.0701071228   -0.0702787249
 C    0.5879314861   -0.4521214101   -1.1836862374
 C    0.2378223802   -0.2817822698   -2.4922905512
 C   -0.8980408508    0.4187156608   -3.1416595056
 O    1.1484443367   -0.9052104579   -3.2954979035
 C    2.0694659914   -1.4937812612   -2.4830691275
 C    1.7936601207   -1.2523818644   -1.1759983269
 C    2.5528400428   -1.7200932016    0.0257194380
 H    1.2484743247    1.6629876937    0.4714373766
 H   -0.1217461392    2.1136620622   -0.5589224075
 H   -0.3975111606    1.7514457174    1.1497218027
 H    0.0345318438   -0.5162602323    0.7423377137
 H   -0.5979912043    1.3620692759   -3.6154149900
 H   -1.3535746764   -0.2056764110   -3.9176824438
 H   -1.6542133070    0.6414584564   -2.3844500791
 H    2.8506554240   -2.0453185807   -2.9810452720
 H    2.8760066929   -0.8818087028    0.6543517246
 H    1.9490085028   -2.3816884758    0.6596322965
 H    3.4466466175   -2.2781580615   -0.2663474877