11

 N    0.1599406032   -0.9677164526   -0.6434400013
 C    0.1895180182    0.0777313939   -0.1535480136
 C    0.2323062236    1.4114695264    0.4615092925
 N    1.5293487028    2.0614432234    0.2842513692
 C    1.7783277276    2.5937924708   -0.8174071261
 O    1.0050501716    2.6819917614   -1.9464373792
 N    1.7490409917    3.4008288194   -2.8895877447
 N    2.8410997824    3.7084125160   -2.4086866013
 O    2.9493328255    3.2376392298   -1.1065857847
 H   -0.5960033414    2.0051790672    0.0519218770
 H    0.0562952849    1.3009067944    1.5350248721