19

 O   -0.0614757588    0.0709092343   -0.6697211255
 C    0.0116500931    1.1575784918   -0.1500017265
 C    1.2726564421    1.9116692688    0.0273035013
 C    1.2300864923    3.4364127963   -0.0213205123
 C    1.5333494646    2.7597159004    1.2738520663
 C    0.5796124903    2.8204364522    2.4501061832
 C    0.8620195375    4.0527784220    3.3385130671
 C   -0.0360398845    4.1404957292    4.4826834991
 C   -0.7922510431    4.1874189801    5.4156764951
 H   -0.9030931449    1.6750727628    0.2199636590
 H    2.1331968056    1.4173914332   -0.4102282776
 H    2.0189039203    3.9365297538   -0.5710098021
 H    0.2487880811    3.8892951300   -0.1330267149
 H    2.5814307955    2.7559805702    1.5653881511
 H   -0.4591644487    2.8662453316    2.1103275011
 H    0.6696425895    1.9140231054    3.0589599182
 H    1.9017482677    4.0172687609    3.6898039855
 H    0.7784460897    4.9635135919    2.7318936798
 H   -1.4533626293    4.2395098552    6.2448747523