17

 C   -0.1072988343    1.6448245942   -0.0329763546
 C    0.0193203506    0.1231362462   -0.1294642910
 O    1.0451378362   -0.3748550068    0.7154204660
 C   -1.3044806152   -0.5747737671    0.1628460264
 C   -1.2967786835   -2.1071041295    0.3400569882
 C   -1.7084713179   -1.7935559014    1.7608484723
 N   -2.0015921234   -2.4689295526    2.7737411204
 O   -1.6702891432   -0.4185287832    1.5830058523
 H    0.8654140815    2.1110442906   -0.2067599714
 H   -0.8173140974    2.0319568800   -0.7711907548
 H   -0.4620266356    1.9360229753    0.9615955956
 H    0.3208075715   -0.1571680204   -1.1470139701
 H    0.7854044039   -0.1682168778    1.6214797148
 H   -2.1081037852   -0.1847819082   -0.4691860020
 H   -2.0271782401   -2.6708195880   -0.2410873163
 H   -0.3095151133   -2.5630621079    0.2589803244
 H   -2.2425106546   -1.8693008833    3.5647738897