22

 C    0.3348315474    1.3808645408    0.2170224239
 C   -0.0159402329   -0.1059894894    0.0171950949
 C   -1.5377446014   -0.2662439726   -0.0716582214
 C    0.7015332357   -0.6805843153   -1.2297971056
 C    2.1406489554   -1.0094051581   -0.7738503503
 C    2.0767994499   -1.1839927504    0.7730517542
 O    2.8507248064   -0.2034590847    1.4674253762
 C    0.5988086238   -0.9721131247    1.1433396172
 H    1.4096899635    1.5291654448    0.3412346163
 H   -0.0066399948    1.9789425409   -0.6356198249
 H   -0.1536792915    1.7735806769    1.1158658647
 H   -1.9475639288    0.3087688001   -0.9099913095
 H   -1.8203615337   -1.3151538478   -0.2159538939
 H   -2.0280347010    0.0902811064    0.8412499467
 H    0.1927115629   -1.6003276540   -1.5432821803
 H    0.6731115847    0.0043349590   -2.0832641179
 H    2.5341630921   -1.8994122904   -1.2738131894
 H    2.8249115853   -0.1853442944   -1.0004215888
 H    2.4148434860   -2.1856805352    1.0736898004
 H    3.7660951363   -0.2981396761    1.1853756890
 H    0.5081218301   -0.5272964143    2.1382442454
 H    0.0929027344   -1.9447599015    1.1672674131