14

 N   -0.0941657725    1.2246783840   -0.4680642329
 C   -0.0277694086    0.0379970535   -0.0794417009
 O    1.0474984940   -0.7105132909    0.3666831555
 C    0.1810737690   -1.8916077436    0.5557055363
 C   -0.0946434054   -2.1654038846    2.0088866498
 C   -1.2882941253   -1.6943670410    2.3880210072
 C   -1.9914534456   -1.0238101906    1.2566086695
 O   -3.0903794706   -0.5341396513    1.2701770421
 C   -1.0330908962   -1.0976406439    0.0529819465
 H    0.8166589942    1.6850736488   -0.4270832399
 H    0.5591016812   -2.7365432122   -0.0213888570
 H    0.6272804717   -2.6589666945    2.6492387974
 H   -1.7243028936   -1.7432721943    3.3779572615
 H   -1.5375010524   -1.3858975694   -0.8676776452