19

 C   -1.6110520830   -0.8146231325    0.2562105972
 N   -0.2946519542   -0.2000752519    0.1439435094
 C    0.6171721046   -0.4266667111    1.2322776794
 C    0.1095565264    0.1618946082    2.5623374760
 O   -0.1813735447    1.5311499858    2.4604557404
 C    1.3302065141   -1.8144673106    1.3968537728
 O    2.6256538366   -1.1676951137    1.1647588217
 C    2.0351802578    0.0549767270    0.9629491837
 N    2.5184519259    1.1849360280    0.7064372916
 H   -2.1959953849   -0.3094344539    1.0301628135
 H   -2.1405558668   -0.6806219567   -0.6904675240
 H   -1.5958737626   -1.8948002850    0.4858744200
 H    0.1416556026   -0.4323917360   -0.7398359059
 H   -0.8115438473   -0.3426192693    2.8747636910
 H    0.8679646075   -0.0467279375    3.3356346839
 H    0.5485588842    1.9480888576    1.9818775836
 H    1.3082747275   -2.2876321188    2.3816824716
 H    1.1126947491   -2.5434139116    0.6120113583
 H    3.5367770071    1.1621624521    0.6311021259