20

 C   -0.0129178778    1.5700879178    0.0858752542
 C    0.0019367521    0.0419125811    0.0119473849
 C    0.5936352787   -0.5820513721    1.2875788055
 N   -1.3464188027   -0.4271690261   -0.2940570887
 C   -1.5664274309   -1.7532815386   -0.6381779007
 C   -0.7208203519   -2.6703125159   -1.2244455944
 N   -1.5037206083   -3.8042534571   -1.4064640525
 C   -2.7386228268   -3.5259070453   -0.9277961041
 N   -2.8157243372   -2.3006071103   -0.4534339588
 H    0.9934758703    1.9622033750    0.2596157654
 H   -0.4044209696    1.9993518231   -0.8399752511
 H   -0.6475245513    1.9104351699    0.9134977613
 H    0.6317453915   -0.2479705039   -0.8398943752
 H    0.5663667734   -1.6738550627    1.2348292981
 H    1.6336307148   -0.2707985808    1.4337859313
 H    0.0206256426   -0.2695686651    2.1683590218
 H   -2.0535919760   -0.1006289842    0.3522708265
 H    0.3098995959   -2.6355173069   -1.5289690582
 H   -1.1978719242   -4.6738466132   -1.8072018955
 H   -3.5437158327   -4.2450883446   -0.9442641397