19

 C    0.2902308249    1.8374669654   -0.0458216807
 C    0.0473286661    0.3247715844    0.0619178842
 C    0.5312898833   -0.4589789747   -1.1781542473
 C   -0.2142379646   -0.1298527879   -2.4735572169
 O    0.1588509031   -0.9899452093   -3.5394569680
 C    0.8033118308   -0.2181255226    1.2795511388
 N    0.0737982788   -1.0058446843    2.1217671463
 O    1.9805342441    0.0227768493    1.4706170268
 H    1.3625034170    2.0346818021   -0.1232234110
 H   -0.2144770262    2.2650963229   -0.9157434193
 H   -0.0803814248    2.3563283643    0.8437164366
 H   -1.0283078593    0.1408425234    0.1891970872
 H    1.6052200588   -0.2710751915   -1.3057893155
 H    0.4200316093   -1.5351593104   -0.9985699986
 H   -1.2911637551   -0.2835287289   -2.3363939431
 H   -0.0717461849    0.9250234815   -2.7507536920
 H    1.0948922638   -0.8495085121   -3.7148342275
 H   -0.8902343696   -1.2301538191    1.9527211311
 H    0.5422018546   -1.4303454426    2.9058161989