19

 C   -0.2019429174    1.5255640206    0.0138972594
 C    0.1326946948    0.0336103322   -0.0959860789
 C    0.8246471757   -0.5036618913    1.1458271352
 C   -0.0386689520   -0.8409618965    2.4022879661
 O   -0.5996043295   -2.0065114687    1.6711496556
 C    0.8578955878   -2.0439639744    1.3783966904
 C    1.0981993278   -1.7613372943    2.8680664729
 C    2.2140403589   -1.7252213817    3.8009175734
 O    1.1078614580   -2.6573506258    3.9299875427
 H    0.6981122135    2.1273963800    0.1833478825
 H   -0.6771730417    1.8897883751   -0.9018447761
 H   -0.8904648351    1.7184391481    0.8436266531
 H   -0.7764524505   -0.5480278898   -0.2709363225
 H    0.7889959770   -0.1297714203   -0.9605017732
 H    1.7645674639    0.0192052889    1.3592674291
 H   -0.7283575638   -0.2219831371    2.9749491216
 H    1.2263497734   -2.8446540974    0.7378161048
 H    3.1674150747   -2.1779884769    3.5340545781
 H    2.2608656445   -0.9583309109    4.5721814060