21

 C    0.8057490628    1.5811041959    0.7136529869
 C    0.1047527965    0.2970192090    0.2601238218
 C    0.2016278137   -0.7400586857    1.4349109135
 O   -0.7734282876   -0.4598853114    2.4023419243
 C    0.1167360608   -2.1453562200    0.9664582341
 N    0.0707738267   -3.2438266150    0.6085831000
 N   -1.3284212444    0.4682507780   -0.0565424371
 C   -1.7715945120    1.8144874641   -0.4092008897
 C   -1.7986295686   -0.4956781540   -1.0544849878
 H    1.8597429731    1.3624846206    0.9068816744
 H    0.7666750338    2.3612807499   -0.0485605563
 H    0.3664720358    1.9639191542    1.6392587292
 H    0.6443607572   -0.1034983975   -0.6116359626
 H    1.1853283665   -0.6370358340    1.9070007821
 H   -1.5265895805   -0.1374206356    1.8698716449
 H   -1.3346206544    2.1865193620   -1.3522668467
 H   -2.8581566955    1.7954383313   -0.5344278364
 H   -1.5437586670    2.5265237617    0.3846112419
 H   -1.5335258533   -1.5133877053   -0.7669146920
 H   -2.8883761371   -0.4383042448   -1.1293275415
 H   -1.3749700265   -0.2983783532   -2.0547737530