25

 C    0.0448644962    1.4977872289    0.0964783796
 C   -0.0128274482   -0.0381425706    0.0437238454
 C    0.7006418814   -0.6036032985    1.2834060163
 C   -1.4626930240   -0.5769064046   -0.0984689773
 C   -2.2481033885    0.1462493460   -1.2052288929
 C   -1.4780473110   -2.1035892815   -0.3442143168
 C   -2.8362100200   -2.7392204090   -0.1614409923
 C   -3.0018485388   -4.0615645098    0.4551237283
 O   -3.2940779413   -2.8726195191    1.1901685520
 H    1.0728797859    1.8348860458    0.2647846274
 H   -0.3041384899    1.9629081194   -0.8284168266
 H   -0.5667943747    1.8859925671    0.9202846666
 H    0.5460081295   -0.3613450625   -0.8483038406
 H    0.1636297860   -0.3271863223    2.1986680076
 H    0.7894516569   -1.6926174397    1.2677553350
 H    1.7146300797   -0.1977809248    1.3603435322
 H   -1.9741752762   -0.3978670300    0.8583689843
 H   -1.7220678250    0.0801296850   -2.1658735859
 H   -3.2408769676   -0.2915910624   -1.3426444563
 H   -2.3963929101    1.2040770874   -0.9774712210
 H   -1.1230233813   -2.3110832620   -1.3640204419
 H   -0.7887039417   -2.6051626068    0.3400458729
 H   -3.6188337939   -2.4193224745   -0.8506619878
 H   -3.8625374116   -4.6787477161    0.1996778994
 H   -2.1215588719   -4.6116088754    0.7867817424