17

 C    0.1166840808    1.5206171588   -0.1649701458
 C   -0.0404612404    0.0301031118   -0.0951244105
 C   -1.2115386003   -0.6437732579    0.0485239421
 C   -2.5808856709   -0.0374089518    0.1661401139
 C   -1.1804672472   -2.1020529923    0.0980205337
 N   -2.2095280999   -2.8318215702    0.2291835871
 O    0.0856017924   -2.6920560232   -0.0096288959
 C    1.1694002815   -1.9081387893   -0.1483090916
 N    1.1892304904   -0.6387193611   -0.1961860034
 H    0.7830270368    1.8550209860    0.6377605506
 H    0.6061668081    1.7918905878   -1.1067885215
 H   -0.8245291136    2.0625624844   -0.0891614393
 H   -2.5627069863    1.0510997126    0.1250114146
 H   -3.2294213420   -0.4110804018   -0.6328799240
 H   -3.0524617629   -0.3483753563    1.1039992333
 H   -1.9573351743   -3.8199491797    0.2391755553
 H    2.0761358477   -2.5018596678   -0.2191955986