19

 C   -1.3546608538   -0.4282347386    0.0983925634
 O   -0.0572046675    0.0681685444   -0.1787797696
 C    0.6720948135   -0.6531438313   -1.1564914317
 C    0.3418001941   -0.0983102613   -2.5411155275
 O    0.6095772173    1.2868290177   -2.6008191447
 C    2.2093893338   -0.6830648376   -0.8466697215
 C    2.1205163507   -2.2121304815   -0.8474628050
 O    1.1971022251   -2.5829017492    0.1817635865
 C    0.6668589744   -2.1969408527   -1.0884410809
 H   -2.0018035739   -0.4402025963   -0.7902682170
 H   -1.3088930492   -1.4409299056    0.5181737041
 H   -1.7955860323    0.2424349884    0.8392666884
 H    0.9546812904   -0.5861103685   -3.3065297254
 H   -0.7135829196   -0.3153368567   -2.7799746681
 H    0.2506746157    1.6537467480   -1.7824857390
 H    2.8065919777   -0.2541166734   -1.6529563611
 H    2.4914683026   -0.2448124130    0.1115492677
 H    2.8602452017   -2.9481527652   -1.1379577293
 H    0.0219856091   -2.9031834877   -1.5998943093