15

 N    0.0051987927   -1.1442226315   -0.0403339088
 C   -0.0172521535    0.0095404731   -0.0034960419
 C   -0.0161953292    1.4840831740   -0.0102876578
 O   -0.7416942948    1.9096391827    1.1254651992
 C   -0.5612817401    3.2945994062    1.4032333832
 C    0.8884366676    3.5945192822    1.7823788030
 C    1.8158760545    2.9606660426    0.7811655001
 C    1.4055709017    2.0104818790   -0.0526645578
 H   -0.5415756936    1.7951620049   -0.9332763042
 H   -0.8532024920    3.8960575337    0.5278002352
 H   -1.2520654981    3.5217728167    2.2182739418
 H    1.0456594090    4.6795496476    1.8159482701
 H    1.1048429932    3.2185167796    2.7910135364
 H    2.8442804739    3.3085752532    0.7419688768
 H    2.0581583285    1.5693498860   -0.7987533453