16

 C   -0.0860723189    1.5352022957    0.1420988710
 C    0.0193104935    0.0228072142   -0.0326270211
 C    0.7311582010   -0.4196514919   -1.2817990171
 N    1.2003305326    0.4395461182   -2.1147453875
 C    1.8484549046   -0.0216019908   -3.2519896579
 N    2.3316429597    0.7685271735   -4.1103357471
 O    1.9711133527   -1.4120112675   -3.4546712273
 N    1.4667843299   -2.3311221060   -2.5599291068
 C    0.8772570865   -1.8514581210   -1.5271959004
 H    0.9040604311    1.9956136338    0.1767951809
 H   -0.6249020577    1.9895164124   -0.6926418886
 H   -0.6143885831    1.7711652864    1.0695643329
 H    0.5362578475   -0.4363242465    0.8229869896
 H   -0.9775684953   -0.4423211037   -0.0376282891
 H    2.7662412321    0.2454884730   -4.8710129571
 H    0.4864793539   -2.5896971597   -0.8338336644