25

 C    0.2556534319    1.5609321508   -0.2806031880
 C   -0.0261821917    0.0737345339    0.0068390293
 C   -1.5418400423   -0.1482797932    0.0676460043
 C    0.6558925335   -0.7919075927   -1.0829723070
 C    2.0890665070   -1.0016589682   -0.5483819099
 O    2.1021799210   -0.5416561948    0.8013144480
 C    0.7535037597   -0.4124301210    1.2783037962
 C    0.7917994055    0.5790820850    2.4406441443
 C    0.2670072500   -1.7797108129    1.7947886865
 H    1.3286038730    1.7720760890   -0.2857601661
 H   -0.1481835660    1.8334122396   -1.2614822439
 H   -0.2149118501    2.2153778814    0.4593276959
 H   -2.0160018758    0.2035177717   -0.8550940912
 H   -1.8012745268   -1.2032961510    0.1887860536
 H   -1.9934431325    0.4091479160    0.8963678383
 H    0.1375619175   -1.7483333707   -1.1981140697
 H    0.6440060806   -0.3007939839   -2.0596717166
 H    2.3880402378   -2.0578489479   -0.5976657763
 H    2.8344820848   -0.4219281364   -1.1044348559
 H    1.2846108629    1.5091020102    2.1533361290
 H   -0.2198961901    0.8088615867    2.7904444092
 H    1.3481199005    0.1493101660    3.2787595472
 H    0.9900828809   -2.1577834631    2.5229377694
 H   -0.7062522874   -1.7029601376    2.2883043329
 H    0.1818119663   -2.5194581469    0.9936726103