17

 C    0.2231252936    1.3097843709    0.9565989987
 C   -0.1170432619    0.2679819620   -0.1074360013
 O    0.7572003756   -0.8680927443   -0.0480080975
 C   -1.5458471769   -0.1712384213   -0.0447566734
 C   -2.6673800357    0.2741252116    0.5975534498
 N   -3.7705094730   -0.5065386388    0.2849645339
 C   -3.3033932361   -1.4115104540   -0.5332409240
 O   -3.9919595223   -2.4150665320   -1.1019229902
 N   -1.9808917128   -1.2696471335   -0.7881205012
 H    1.2806549684    1.5744434142    0.8853481078
 H   -0.3744430774    2.2166283866    0.8235327016
 H    0.0255835832    0.9181532300    1.9603561682
 H    0.0981007309    0.6939988615   -1.0970118203
 H    0.6126688429   -1.2911502011    0.8069753044
 H   -2.7595094848    1.1197196290    1.2612910752
 H   -4.8987337624   -2.3329152524   -0.7804165658
 H   -1.3903945513   -1.8891116283   -1.3174595459