14

 C   -0.0244811067    1.5234022824    0.0975853140
 C    0.0174125609    0.0380341564   -0.0139181613
 C    0.0525350955   -0.7759803237   -1.1256496938
 O    0.0540441596   -0.2923093910   -2.4073942580
 C    0.0848037088   -2.1331238928   -0.6994217248
 C    0.0684679827   -2.1148569863    0.6779222058
 N    0.0280472579   -0.8092048944    1.0797111480
 H    0.8438754031    1.9306012865    0.6322379979
 H   -0.0266906437    1.9566308658   -0.9051736454
 H   -0.9241045005    1.8818847253    0.6151302716
 H    0.0813210135   -1.0381057173   -3.0120650502
 H    0.1160817558   -3.0115354857   -1.3272105058
 H    0.0823158629   -2.9216136561    1.3924963226
 H    0.0085146902   -0.4996046890    2.0350908493