17

 C   -0.0833119841    1.5516926499   -0.0807881866
 C    0.0750280896    0.0499019323   -0.0236397662
 C    1.3781852317   -0.6687221046   -0.2210272163
 N    2.6130483517    0.0122346396   -0.0118588050
 C    2.6525296039    0.3980206143    1.2145659727
 N    1.5525002125    0.1112751789    1.9976499122
 C    0.6422261416   -0.6524139587    1.1973083406
 C   -0.0064418852   -1.7967821636    1.8388121039
 O    0.1883975500   -2.1137923629    2.9924331639
 H    0.8096621093    2.0701867645    0.2716764436
 H   -0.2687548651    1.8685362842   -1.1117656978
 H   -0.9289530229    1.8757920300    0.5337549334
 H   -0.7602361367   -0.5030632210   -0.4503568909
 H    1.4073132263   -1.5408821766   -0.8660599702
 H    3.4815535263    0.9544135578    1.6389674489
 H    1.6524765635   -0.1818559035    2.9612430991
 H   -0.7048685324   -2.3624124206    1.1851784946