19

 C   -0.0323444047    1.5256826823   -0.0397394740
 C   -0.0191064776   -0.0055116909   -0.0021489212
 O    0.6361469827   -0.3822263676    1.2137016603
 C   -1.3876779266   -0.5397542852   -0.0372669893
 C   -2.4936535571   -1.0121178285   -0.0370707398
 C    0.8184533224   -0.5443002786   -1.1826853449
 C    0.7637433971   -2.0544761092   -1.4992099375
 C    0.1935333905   -1.5981186713   -2.8576003753
 O    0.2579010035   -0.2078636163   -2.4668029852
 H    0.9897219369    1.8951701246    0.0839114074
 H   -0.4267340996    1.8700212676   -0.9977101438
 H   -0.6489877504    1.9185842300    0.7710612035
 H    0.4533012247   -1.3151519908    1.3697300977
 H   -3.4785675880   -1.4103052474   -0.0382659531
 H    1.8309079451   -0.1374361374   -1.0621554925
 H    1.7297459982   -2.5587946105   -1.5354014839
 H    0.0710097257   -2.6304050642   -0.8828415995
 H    0.8258973807   -1.8025448193   -3.7295574231
 H   -0.8339572937   -1.9094151874   -3.0743838559