20

 C    0.2785926260    1.5151481915    0.2161632057
 C   -0.1904640971    0.1026218522   -0.1505900636
 C    0.5504131288   -0.4759991900   -1.3387404324
 C    1.8833883663   -1.1721910964   -1.1484457970
 C    0.6664013925   -1.9569354848   -1.5345912921
 C   -0.0288818127   -3.0887493216   -0.7821662683
 O   -0.2395999992   -3.8073962860   -2.0177072829
 C    0.4190949580   -2.7819079820   -2.7935290800
 H    1.3444087227    1.5228690632    0.4668019878
 H    0.1303854548    2.2087176879   -0.6187846563
 H   -0.2742817002    1.9060587004    1.0759584555
 H   -0.0613844142   -0.5618194051    0.7136697530
 H   -1.2677983992    0.1176521643   -0.3626216446
 H    0.4543671764    0.1070227407   -2.2538905112
 H    2.6604431830   -1.0293520799   -1.8931731605
 H    2.2549166601   -1.2833076112   -0.1330198946
 H    0.5973391726   -3.6554059107   -0.0800604804
 H   -0.9772003237   -2.8340877324   -0.2900607448
 H   -0.2528528662   -2.3356946405   -3.5394003538
 H    1.3153265013   -3.1637413296   -3.3012949894