21

 C    0.0524815630    1.4742130014    0.2450867711
 O    1.4619276444    1.4760013832   -0.1291381532
 C    1.2739182145    0.2227839138   -0.8028613786
 C    2.1886777966   -0.9897120972   -0.7486482412
 C    1.2881976438   -1.9838871118   -1.5796802982
 C    0.1455225866   -1.0992678904   -2.1932648661
 C   -0.9338453224   -0.7660821981   -1.1207784697
 C   -0.0569799971   -0.0372982903   -0.0797009772
 C    0.8616972829    0.2578277339   -2.2950645045
 H   -0.0841439206    1.7706875021    1.2890898340
 H   -0.5374799777    2.1367113798   -0.4020415928
 H    3.1557479073   -0.8189675229   -1.2320918718
 H    2.3717677011   -1.3353980265    0.2719293843
 H    1.8680328215   -2.4536912062   -2.3782114431
 H    0.8868270807   -2.7883947869   -0.9562794609
 H   -0.2622771382   -1.5164849860   -3.1157369515
 H   -1.7150147064   -0.1301190053   -1.5517650051
 H   -1.4217481876   -1.6548480167   -0.7100149073
 H    0.0758126128   -0.6219892256    0.8335714900
 H    0.1978527216    1.0889153665   -2.5455888214
 H    1.7194526132    0.2657762132   -2.9735086469