25

 C    0.3274421794    1.6677372156   -0.0854303870
 C    0.0616697999    0.1567320401   -0.0397419379
 C    0.6599114325   -0.5471476054   -1.2643383450
 C    0.5918160756   -0.4660243743    1.2583023637
 C   -0.1732743446   -0.0855293373    2.5196800590
 O   -1.2498593924    0.4685058737    2.4798521262
 C    0.4938690015   -0.4359140227    3.8541701133
 C    1.3139933236    0.7872151891    4.3156738355
 C   -0.5453003903   -0.8406270250    4.9043895573
 H    1.4045811320    1.8772193298   -0.0733591681
 H   -0.0826969763    2.1077859535   -1.0002163678
 H   -0.1322946336    2.1750522603    0.7661148634
 H   -1.0246168345    0.0083030336   -0.0449546427
 H    1.7509288671   -0.4367328909   -1.2908556461
 H    0.4344358601   -1.6191765671   -1.2632125363
 H    0.2635607815   -0.1227402508   -2.1925963969
 H    0.5479591994   -1.5651366471    1.2026761595
 H    1.6571359521   -0.2360454490    1.4032751529
 H    1.1905141916   -1.2661220038    3.6809885487
 H    0.6527326903    1.6406662430    4.4951798466
 H    1.8422871115    0.5609351301    5.2467750622
 H    2.0591680936    1.0861960100    3.5713770545
 H   -1.0777104757   -1.7499808646    4.6090018697
 H   -0.0658223923   -1.0256442446    5.8705325694
 H   -1.2865742223   -0.0469415661    5.0256439659