18

 C   -0.0071857746    1.4266744310    0.0463825935
 C    1.3658667970    2.1165873531   -0.1357493814
 C    2.2028639303    1.4775683959   -1.2079749750
 C    2.9290990483    0.3764403631   -1.0159185006
 C    3.0535370003   -0.3404045873    0.3102364026
 O    1.9629014778   -1.2117073762    0.6173062748
 C    0.7921074700   -0.6072982783    1.0865165952
 O    0.0265939450    0.0119418184    0.0835122504
 H   -0.4848649697    1.8280661816    0.9538320518
 H   -0.6583036778    1.6638610163   -0.8009427635
 H    1.1746428201    3.1720422179   -0.3594255512
 H    1.8991753660    2.0969582490    0.8209865908
 H    2.1471140500    1.9098749644   -2.2044856572
 H    3.4591513669   -0.0661135515   -1.8550464607
 H    3.9350052483   -0.9869217740    0.3033139120
 H    3.1838764814    0.3812687940    1.1315878887
 H    0.1943126160   -1.4349032933    1.4809000873
 H    1.0156870948    0.1072049161    1.8984914426