19

 O    0.1699251315    1.3621527852   -0.1385575311
 C    0.1356571795   -0.0314601518    0.0984462349
 C   -1.2861194550   -0.5902547319    0.0491065741
 C   -2.0831284354   -0.4956395437   -1.3178100709
 C   -2.2941574087   -2.0109167968   -1.2916685006
 C   -0.9711151624   -2.7122334124   -1.2798162345
 C   -1.4837563305   -2.1212407225    0.0054539553
 C   -2.1513474127    0.0184392373    1.1224013153
 O   -1.8257648098    0.9345134235    1.8423041460
 H   -0.2929205857    1.7623677179    0.6086541035
 H    0.7468626042   -0.4957995259   -0.6809068365
 H    0.5898811715   -0.2918084173    1.0677109214
 H   -3.0065696827    0.0822966658   -1.2325193160
 H   -1.4995660132   -0.0922033927   -2.1496397919
 H   -3.2128043311   -2.5175960012   -1.5587291434
 H   -1.0176050617   -3.7958099176   -1.3187172719
 H   -0.1153339340   -2.2882170021   -1.7981409436
 H   -1.6644328053   -2.7407199292    0.8762649674
 H   -3.1650403083   -0.4344839246    1.2103139321