20

 C    1.1236032267    0.7967103370   -0.4441278800
 O    1.2099994200   -0.2795882138    0.4674126138
 C   -0.0496377727   -0.6882657617    0.9531257363
 C   -0.0219628946   -1.8488125304    1.9619716107
 O   -1.0496876160   -2.0301192691    2.5815607779
 C    1.1574277075   -2.7506476061    2.1686390033
 C    0.9581345695   -3.7905049782    3.2494578514
 C    2.0322219703   -3.0722132809    0.9892206790
 N    2.5401816236   -2.2204563131    2.0543659270
 H    0.6680787529    1.6820133115    0.0232862102
 H    2.1406585363    1.0405125677   -0.7574808208
 H    0.5286595507    0.5253867628   -1.3288549018
 H   -0.5687852878    0.1413649312    1.4550848605
 H   -0.6984308358   -1.0114975518    0.1211755176
 H    0.1256985825   -4.4556422930    3.0054902543
 H    1.8715477722   -4.3789438429    3.3602511119
 H    0.7312973566   -3.3149129156    4.2074656897
 H    2.4517432810   -4.0739903068    0.9469652606
 H    1.8082198383   -2.6183587028    0.0296657517
 H    2.5094420889   -1.2558159342    1.7328986468