15

 O    0.1723488381   -0.1278044678   -0.2308728492
 C    0.0921990740    1.0377217136    0.0733886679
 C    1.2794960777    1.9360102986    0.1128390633
 C    1.1336196969    3.3915680560   -0.2422471587
 C    1.4413042748    3.0399466236    1.1852502991
 C    0.3837965817    3.2550947601    2.2194116128
 O   -0.8024758072    3.3232856563    1.9621850921
 C    0.8746910409    3.3944764830    3.5780671875
 C    1.2949886556    3.5095419994    4.7001825131
 H   -0.8748925078    1.5146920388    0.3214880607
 H    2.2025778638    1.4356189232   -0.1591886629
 H    1.9133045605    3.8525939098   -0.8363017636
 H    0.1254740929    3.7501396645   -0.4231349287
 H    2.4581226937    3.1657263552    1.5379119720
 H    1.6469472744    3.6117325759    5.6983424445