17

 C   -0.0895432162    1.7687060305    0.4273489845
 C   -0.0347216239    0.2895186372    0.0801520158
 O    0.8324444377   -0.0014435113   -1.0497725346
 C    1.6490169611   -0.9462220265   -0.3240003999
 C    0.8855542126   -0.5990438841    0.9544985489
 O    0.9726373890   -0.8479983990    2.1160898288
 C   -1.4127340749   -0.3127253765   -0.1139791145
 C   -1.9174584142   -0.6342748460   -1.4542382654
 O   -1.4441180466   -1.6612088205   -0.5759791851
 H    0.9183761889    2.1730484655    0.5466489872
 H   -0.5961406111    2.3273554089   -0.3657451021
 H   -0.6366565893    1.9172060919    1.3633067540
 H    1.5025185491   -1.9781688382   -0.6641611126
 H    2.7147930470   -0.6904261839   -0.3378499942
 H   -2.1223545689   -0.0877329069    0.6828399721
 H   -2.9909320439   -0.6356525467   -1.6351421719
 H   -1.2806048266   -0.4376923647   -2.3122162411