15

 O   -0.1454702656    0.0490609234    0.2161973435
 C    0.0300181348    1.2090948395   -0.0754825425
 C    1.3242022790    1.8904960541   -0.0248805663
 C    2.6428262718    1.2669029446    0.3956571936
 C    3.4521963205    2.5609226006    0.1842197151
 O    3.1470672466    2.9222270684   -1.1638157516
 C    1.7477981816    2.9915963114   -1.0391684633
 C    1.4847902288    3.3864916148    0.3710757129
 O    2.7483698988    3.5209194621    0.9740785594
 H   -0.8179772333    1.8492081283   -0.4131743193
 H    2.6499748738    0.9364692809    1.4352403881
 H    2.9668248486    0.4606474134   -0.2638462601
 H    4.5204019916    2.5976987103    0.3731287551
 H    1.2012883149    3.2746439513   -1.9261081581
 H    0.7018197680    4.0246199970    0.7521299935