18

 N   -0.0890842303   -1.1613802458   -0.0604309975
 C   -0.0643502264   -0.0068714813   -0.0183408396
 C   -0.0075363548    1.4530446199    0.0304530405
 C    1.4322501886    1.9988882007   -0.0100882407
 C    2.1627297363    1.6335299648   -1.3113722064
 O    3.4374881869    2.2532371050   -1.3525401365
 C    3.3314668620    3.6452764474   -1.2259813537
 O    2.7535299290    4.0360842152   -0.0066455612
 C    1.4376395270    3.5289743743    0.1243549025
 H   -0.5895856105    1.8502230937   -0.8106715135
 H   -0.5102963862    1.7877533599    0.9455628187
 H    2.0007990511    1.5807869042    0.8273651014
 H    2.3289397722    0.5567666866   -1.3916949032
 H    1.5570114755    1.9538492270   -2.1785102434
 H    4.3450105059    4.0489380045   -1.2430103065
 H    2.7379841896    4.0545247451   -2.0670970868
 H    0.7805886648    3.9716145214   -0.6463533904
 H    1.0725588694    3.8488464174    1.1046973864