14

 C   -0.2004826571    1.4293574129   -0.1469517477
 N    0.2072207317    0.0430859529    0.0872327143
 C    0.8191183835   -0.5686062128   -1.0737021173
 C    1.0551496152   -2.0874065748   -0.9919428095
 O    0.1065917631   -2.3082950615   -2.0865721396
 C   -0.1840687960   -0.9720981527   -2.1711598377
 O   -0.9720901009   -0.4396293306   -2.8840603634
 H    0.6281168652    2.0915607096   -0.4527491334
 H   -0.9560575871    1.4520693800   -0.9360305283
 H   -0.6454111534    1.8307399989    0.7671691007
 H    0.8623624227    0.0079526892    0.8620361453
 H    1.6742612341   -0.0111869543   -1.4950478682
 H    2.0486002103   -2.4493470483   -1.2620648607
 H    0.6957106388   -2.5521451086   -0.0720935943