22

 C    0.1524677633    1.4598942435   -0.1286928354
 C    0.0059813975   -0.0448796919    0.1005784543
 O    0.6329304061   -0.4442030207    1.3225366703
 C   -1.4433953493   -0.5556543462    0.0424368251
 C   -2.3351024567    0.0118580848    1.1461895039
 C   -2.1541880608   -0.4993019330   -1.3699989107
 C   -2.2843679610   -2.0244840828   -1.3240292708
 N   -0.8962042704   -2.5449575472   -1.2618237589
 C   -1.5699815809   -2.0943483906   -0.0225871557
 H    1.2110765012    1.7345701348   -0.1291940911
 H   -0.2817227612    1.7644248345   -1.0861012689
 H   -0.3448784625    2.0380173427    0.6598905174
 H    0.5574424411   -0.5805440607   -0.6778046440
 H    0.3419525142    0.1589084547    2.0143078590
 H   -2.4802944944    1.0916031026    1.0379460907
 H   -3.3243531528   -0.4571003706    1.1220596959
 H   -1.9090014334   -0.1822911002    2.1368248717
 H   -3.1077947974    0.0324375821   -1.3322098482
 H   -1.5569532533   -0.1206223253   -2.2038739787
 H   -3.0865824850   -2.6365655326   -1.7176220977
 H   -0.9511063494   -3.5629388223   -1.2760521181
 H   -1.6979585251   -2.7682872357    0.8161297101