13

 O   -0.1012459261    1.3774099900   -0.0565831552
 C    0.0297011495    0.0251323959   -0.0244784163
 C   -0.0353589834   -0.9992035041    1.0860468679
 C   -1.1056762917   -0.9905961326    0.0101557578
 C   -0.2217627748   -1.9820923669   -0.7873711047
 C   -0.5220370804   -3.1025602662   -1.6098041984
 N   -0.7929821269   -3.9949348214   -2.2949886047
 C    0.9069741850   -0.9973230415   -0.8226354084
 N    0.8371644098   -1.9813515205    0.3013026844
 H    0.6410048216    1.7779127355    0.4123343770
 H   -0.0884940594   -0.9511404655    2.1654160550
 H   -2.1718975996   -0.8314234401    0.0619317270
 H    1.7558745465   -0.9358995026   -1.4935557714