13

 O   -0.0304308515   -0.0116027836    0.2000669472
 C   -0.0210093966    1.1724184903    0.0105185691
 N   -1.1851160420    1.9306072881   -0.0728617972
 C   -1.1750444476    3.3281949027    0.0168271608
 C   -0.0492471144    3.9983678298   -0.2543596146
 C    1.1359537715    3.1899487854   -0.6774604047
 O    1.1309928925    1.8698450027   -0.0988535818
 C   -2.3974775666    3.9561451051    0.4051347060
 N   -3.4026607394    4.4408809258    0.7109717459
 H   -2.0269172536    1.4215371892    0.1472779739
 H    0.0061819877    5.0747613702   -0.1818484004
 H    1.1777871928    3.0911971932   -1.7729265947
 H    2.0745869772    3.6417131911   -0.3493076795