21

 C    0.1615978399    1.3304156225    0.2671371816
 O    0.0488498011   -0.0592251040    0.0539620195
 C    0.6046108986   -0.5461937582   -1.1664687048
 C    2.1321963393   -0.5911876489   -1.1292173445
 C   -0.0072635247   -1.9493594337   -1.3321049414
 O    0.2606451847   -2.7353096864   -0.1802761224
 C   -1.5202832581   -1.8784088699   -1.6196591342
 C   -2.1459333835   -3.2446516256   -1.7879116718
 O   -2.8928149775   -3.5428410916   -2.6864353826
 H    1.2035904932    1.6521329819    0.3983510969
 H   -0.2772732585    1.9009073901   -0.5649850327
 H   -0.3904628006    1.5600162006    1.1817163929
 H    0.2690407878    0.0926150612   -1.9991924721
 H    2.5220988611   -0.9310288177   -2.0939633956
 H    2.5599444252    0.3948692572   -0.9297745355
 H    2.4669166723   -1.2870751230   -0.3560439278
 H    0.4974624470   -2.4516825807   -2.1655787658
 H    0.0587404758   -2.1673759802    0.5751747284
 H   -1.9979600860   -1.3828812163   -0.7633337132
 H   -1.7309756942   -1.2863502303   -2.5158056408
 H   -1.8638247729   -3.9780500071   -1.0032316942