20

 O    0.1873131207   -0.4817697712    0.3154653319
 C   -0.0216323993    0.7122526021    0.3756521939
 N    0.8844606233    1.6857911705    0.0981267378
 C    2.2645004805    1.4201030425   -0.2789611534
 C    2.5825737359    1.7303421559   -1.7650573146
 C    4.0974659784    2.0221626700   -1.7987609321
 C    4.4134655484    2.5965202192   -0.4212789214
 C    3.4998788904    3.6727494593    0.1083436144
 C    3.2838807061    2.2292754297    0.5114007128
 H   -1.0014550505    1.1382166447    0.6722854413
 H    0.5991738957    2.6471936749    0.2042877978
 H    2.4156089880    0.3554860136   -0.0820788527
 H    2.2883643867    0.9085490022   -2.4215585807
 H    2.0106484610    2.6081540507   -2.0842420103
 H    4.6611898237    1.0921557570   -1.9363432205
 H    4.3748800872    2.6912765765   -2.6204485730
 H    5.4422355864    2.5852755528   -0.0792931892
 H    3.9012036411    4.3352338343    0.8671239609
 H    2.8042364849    4.1580426796   -0.5699235989
 H    3.4638880415    1.9502035357    1.5433635960