20

 C    0.3325719188    1.3986336353    0.6658960482
 C    0.1808438662    0.0137989276    0.2410820583
 C    0.0574250397   -1.1240604135   -0.1341153324
 C   -0.0763347290   -2.5244686640   -0.5340299633
 C   -1.4436102560   -3.1293816227   -0.1942583985
 C   -2.5500834551   -2.8662387516   -1.1952954514
 O   -2.7299598152   -1.4891552242   -1.4660742208
 C   -1.4981144559   -4.3669459082    0.6243913080
 N   -1.8905569901   -3.0716922224    1.2103880044
 H    1.3634748934    1.6120483112    0.9696872595
 H    0.0744263292    2.0927644967   -0.1414581176
 H   -0.3159837748    1.6276340977    1.5187984462
 H    0.1010147428   -2.6232601542   -1.6122627096
 H    0.7094805138   -3.1107230604   -0.0404347223
 H   -2.3036977317   -3.3323372876   -2.1568889443
 H   -3.4741472520   -3.3319787243   -0.8210799318
 H   -2.8206072254   -1.0436920903   -0.6161271013
 H   -2.3125445875   -5.0752006923    0.4942449814
 H   -0.5567005840   -4.8164440150    0.9297530063
 H   -1.1399526871   -2.7058910577    1.7924010207