14

 O    0.0698653272    1.3321909305   -0.0226278984
 C    0.0489399252   -0.0169406252    0.0107843964
 C    0.0327219445   -0.7203123021   -1.1976481725
 N    0.0116826709   -2.0469478896   -1.2724782914
 C    0.0057869996   -2.7419893771   -0.1278439131
 C    0.0205183752   -2.1458324574    1.1239524327
 C    0.0427344415   -0.7478519321    1.2131837381
 C    0.0591110188   -0.0415494514    2.4472945602
 C    0.0738279159    0.6224330948    3.4537486569
 H    0.0789549693    1.6621284526    0.8874605580
 H    0.0374453589   -0.1596579845   -2.1287562508
 H   -0.0115087882   -3.8240064635   -0.2203693002
 H    0.0150854498   -2.7443272195    2.0272137837
 H    0.0863879313    1.1783894646    4.3590807104