18

 C   -0.0256300673   -1.2482707153    0.0060664253
 C   -0.0050515332   -0.0464599938    0.0149089006
 C   -0.0191253740    1.4145433181    0.0174877258
 C   -0.7162243667    2.0312742148    1.2314321808
 C    0.0155826746    3.0160579241    1.7440652648
 C    1.2939301388    3.1972673846    0.9673839214
 C    2.6098368820    2.7091699931    1.6245994960
 C    2.3706119487    1.3758889628    0.8757672658
 N    1.3306636518    2.0312024458    0.0267499585
 H   -0.0388674273   -2.3101033560   -0.0049181845
 H   -0.5428368911    1.7340050589   -0.8982710561
 H   -1.6910360569    1.7007393544    1.5682540653
 H   -0.2643455475    3.6441587268    2.5822479676
 H    1.3376482963    4.1807583515    0.4810269998
 H    3.4871838869    3.2573537268    1.2765289691
 H    2.6227197594    2.6618827378    2.7147270793
 H    3.2069327213    0.9695376094    0.3001065259
 H    1.9747301943    0.5856651161    1.5222366946