18

 C   -0.5491252527    1.4525971138   -0.1414507945
 N   -0.1646539714    0.0569188174   -0.0603137414
 C   -0.0643081251   -0.8220235286   -1.0973906526
 N    0.2965392681   -2.0231140037   -0.7055922132
 C    0.4339769349   -1.9227466674    0.6561054051
 C    0.1591121802   -0.6466558208    1.0910401860
 C    0.1710136134   -0.0113276779    2.4190809002
 C    0.9973184266   -0.5773683694    3.5116964490
 N    1.3847366295    0.7069057099    2.9058407492
 H    0.1757537640    2.0825360971    0.3808400040
 H   -0.5827354570    1.7490490220   -1.1913734113
 H   -1.5373817929    1.6196257902    0.2997899607
 H   -0.2664648253   -0.5202494867   -2.1153379658
 H    0.7139368338   -2.7743097763    1.2580404225
 H   -0.7427308825    0.5073783704    2.7043070754
 H    0.6431304921   -0.5136209672    4.5361442489
 H    1.5978966303   -1.4551029579    3.2926305223
 H    2.1413932540    0.5351121051    2.2460502254