16

 N   -0.0015558045    1.4449943341   -0.1502176259
 C    0.0290318147    0.0485626608   -0.0345085140
 C   -1.0258447140   -0.8268463281   -0.0331457287
 O   -0.5857899241   -2.1404198225   -0.0027711189
 C    0.7515716975   -2.0537208920    0.0285466558
 C    1.1987162810   -0.7825093551    0.0089437157
 C    2.6924978680   -0.8092535996    0.0215860964
 O    3.0181060828   -2.2170779206    0.0776605184
 C    1.8526917957   -3.0544302241    0.0593069037
 H    0.6940935094    1.9008983687    0.4263271539
 H   -0.9114896422    1.8377903539    0.0538930151
 H   -2.0938774883   -0.6930592472   -0.0624229626
 H    3.1473113605   -0.3725583052   -0.8793037789
 H    3.1427595866   -0.3125573147    0.8934917063
 H    1.8460430502   -3.6966862981    0.9523177163
 H    1.8764721765   -3.7105924703   -0.8238225626