16

 O   -0.1096855032    1.3034215923   -0.1866485454
 N   -0.0098415240   -0.0913628375   -0.0982153996
 C   -1.1553775545   -0.6359484464    0.0619637743
 C   -2.4883547688   -0.0482349373    0.2119514066
 C   -3.3947395428   -1.0013295290    0.4815357082
 C   -2.7919211456   -2.3781043326    0.5152339264
 C   -2.8442983331   -3.1650701348   -0.8196830874
 O   -1.5027902135   -2.7619878487   -1.1547937740
 C   -1.3050392051   -2.1374435693    0.1416060629
 H    0.8089944122    1.5665075575   -0.3067414166
 H   -2.6771023901    1.0122823303    0.1248182626
 H   -4.4530629880   -0.8246687384    0.6397162174
 H   -3.0285058828   -2.9472121382    1.4163947196
 H   -2.9234976907   -4.2531984647   -0.6984166358
 H   -3.5781533280   -2.8263562870   -1.5597170765
 H   -0.5127953223   -2.6310090962    0.7101998872