17

 O   -0.9465709874    1.1560158553    0.2331030298
 C    0.1871355156    0.8782463185   -0.0582082826
 C    1.3442640638    1.8550524683    0.0584746241
 C    1.3763892761    2.5454227648    1.4209095134
 O    2.4342961043    3.4876784244    1.4806824276
 C    3.6463191678    3.0655701512    0.9252319556
 C    4.3790981760    1.8201023539    1.3659383890
 C    3.7022478936    1.8743798842    0.0080292621
 O    2.5341905441    1.1117597054   -0.1535084820
 H    0.4835977506   -0.1231718065   -0.4385889601
 H    1.2205217219    2.6270827446   -0.7204251422
 H    0.4487298291    3.0964112514    1.5862909809
 H    1.4769035962    1.7854416308    2.2103357622
 H    4.2443004269    3.9337960142    0.6702541598
 H    5.4615564013    1.8568148213    1.4202297818
 H    3.9065192242    1.1729248780    2.0960407977
 H    4.3069873458    1.9106966702   -0.8947721671