23

 C   -0.3964733119    1.4731609452   -0.2180257701
 C    0.1120384819    0.0479647260    0.0144489485
 C    0.7338155127   -0.5791914621   -1.2373599990
 C    1.2424421010   -2.0028206559   -0.9950817845
 N    1.8446169859   -2.5850030623   -2.1834992837
 C    1.5369270218   -3.8690274969   -2.5867758021
 O    0.6562756742   -4.5406398371   -2.0753343585
 N    2.3279031120   -4.3300690796   -3.6246447889
 C    1.9778226684   -5.5666937011   -4.2993946849
 H    0.4157358449    2.1366639413   -0.5357207739
 H   -1.1651858935    1.4963936533   -0.9983197757
 H   -0.8336284557    1.8948388915    0.6923754246
 H    0.8521069422    0.0508862173    0.8258682149
 H   -0.7147638848   -0.5849951942    0.3621775900
 H   -0.0003273312   -0.6004657668   -2.0523611413
 H    1.5629038163    0.0530013969   -1.5872437676
 H    1.9571065023   -2.0048468221   -0.1580720652
 H    0.4215023240   -2.6674849706   -0.7167649972
 H    2.7280944440   -2.2018168186   -2.4806427741
 H    2.8014359297   -3.6355310043   -4.1808879133
 H    2.8805999026   -6.0494057359   -4.6850295239
 H    1.5025332987   -6.2214683144   -3.5690115135
 H    1.2755178747   -5.4172091498   -5.1310478905