19

 C   -0.2054866675    1.2566038870    0.0902255625
 O    0.3888915120   -0.0156604170   -0.0422418424
 C    0.8783722002   -0.5554984233    1.1618065375
 C   -0.2330186771   -1.2193844013    2.0392804999
 C    0.0716938413   -2.5391567663    1.3231093807
 C   -0.4140961929   -3.9065382134    1.4744798985
 O   -0.8436180703   -3.0775046580    0.3812937467
 C    1.4246262904   -1.9843076073    0.8306537900
 O    1.8468416587   -2.2583459248   -0.4624983403
 H    0.5094061858    1.9918583296    0.4896158446
 H   -0.5199254506    1.5712434285   -0.9074385706
 H   -1.0857490455    1.2364287440    0.7484345023
 H    1.5563503997    0.1503784074    1.6605635279
 H    0.0156049974   -1.2334568323    3.1043453601
 H   -1.2463806956   -0.8365518793    1.9041485675
 H    0.2304411679   -4.7400827657    1.1977774659
 H   -1.1817645458   -4.1345285532    2.2131639818
 H    2.2344756477   -2.2598664253    1.5139779182
 H    1.1735078944   -1.8924590593   -1.0499140409