18

 C   -0.7790175990    0.8066092004   -0.3960054386
 O    0.2361617313    0.4073466328   -1.2949574171
 C    1.3458632486   -0.2170745532   -0.6851143597
 C    1.1040302538   -1.7108951526   -0.4766029509
 C    0.8185931005   -2.4899354343   -1.7791979317
 N    1.5694173795   -3.7023894588   -1.5160815749
 C    2.5459807553   -3.5028761412   -0.5653835457
 O    3.4617765317   -4.2197695441   -0.2769879658
 O    2.2983031261   -2.3041053843    0.0542919953
 H   -1.2575680709   -0.0437379179    0.1110246990
 H   -0.3882991762    1.4910590387    0.3714106178
 H   -1.5368008848    1.3298823331   -0.9837095363
 H    2.1976846704   -0.0912342418   -1.3623588081
 H    1.6018965439    0.2580659580    0.2728438780
 H    0.2974838693   -1.8755302807    0.2481391310
 H   -0.2479538931   -2.6836106311   -1.9161218839
 H    1.1853185692   -1.9437251328   -2.6592512246
 H    1.7548064643   -4.3883476701   -2.2291768935