20

 O   -0.0403590606    0.3269362673    0.8745506192
 C    0.0301531707    1.3310345195    0.1959498131
 N    1.1300243506    1.7465481034   -0.4822413176
 C    2.4050501864    1.0568084956   -0.4404903085
 C    3.5326587024    2.0187580786   -0.0770596933
 C    4.9405461180    1.4087833199   -0.1591283756
 C    5.7860364589    2.5820288411   -0.6778199829
 C    4.7945127556    3.2830018521   -1.6093717314
 O    3.5134413578    3.1210150452   -1.0019640597
 H   -0.8220858272    2.0257366490    0.0563284780
 H    1.1012307990    2.6173139754   -0.9896888739
 H    2.3151604519    0.2570787469    0.2988274785
 H    2.6242287296    0.5995954088   -1.4152501123
 H    3.3392145213    2.4260546663    0.9255165098
 H    5.2796494334    1.0177542119    0.8024147481
 H    4.9530828873    0.5829358620   -0.8802861964
 H    6.0670015735    3.2465358891    0.1458365823
 H    6.6995345002    2.2667037412   -1.1875439520
 H    4.9856230928    4.3542087393   -1.7279325476
 H    4.8026069785    2.8233472275   -2.6098450477