15

 C    0.1217157757    1.5233105723   -0.0332223253
 C   -0.0466369012    0.0029204949    0.0180243940
 O    0.5189027463   -0.6200649284   -1.1328875218
 C    0.6392959254   -0.5932960603    1.2344534488
 C    1.0938308797   -2.0016303881    1.2452041047
 N    2.0764747412   -0.8982661773    1.1909494069
 H    1.1820786621    1.7904613925   -0.0710705518
 H   -0.3752652450    1.9425535214   -0.9160419012
 H   -0.3223880935    1.9936698574    0.8497824332
 H   -1.1221055088   -0.2345820906    0.0811474633
 H    0.1853231943   -0.1680475833   -1.9129725583
 H    0.3104272050   -0.1468552291    2.1712130537
 H    1.0881340043   -2.5653420995    2.1739551821
 H    0.9354568535   -2.5860756207    0.3447263091
 H    2.3795932310   -0.8038867311    0.2229089726