19

 C   -0.0452090821    1.4576128390   -0.0028685071
 C    0.0083100257   -0.0579856936   -0.0155216248
 O    0.6736673089   -0.4721627958    1.1864290470
 C    0.8343316316   -1.7830216446    1.3873619916
 C    1.4165726269   -2.4470883999    2.4216564680
 C    1.3005784003   -3.8477167667    2.0991630670
 C    1.7882989248   -4.9998795650    2.9201151205
 C    0.6612235021   -3.9089768586    0.9046645498
 O    0.3661089414   -2.6388523359    0.4507599869
 H    0.9626415474    1.8806353920    0.0272815616
 H   -0.5468934591    1.8192902213   -0.9051809040
 H   -0.5968992282    1.8185317598    0.8694835660
 H   -0.9968922804   -0.4945567147   -0.0458443955
 H    0.5594167910   -0.4325875660   -0.8860660671
 H    1.8665993833   -2.0018635830    3.2934841983
 H    1.3185683415   -5.0131467626    3.9103469072
 H    1.5682708802   -5.9539337195    2.4329577896
 H    2.8713294985   -4.9473083836    3.0802040766
 H    0.3487692161   -4.7142912927    0.2622834484