18

 C   -0.0907236899    1.5692631012    0.2818881605
 C   -0.0169978410    0.0751072691   -0.0044992834
 C   -1.3992302663   -0.5455783174   -0.2640431414
 O   -1.3358022212   -1.9524899848   -0.3460670696
 O    0.8492661013   -0.1331152345   -1.1132084806
 C    1.7372812604   -1.1949230852   -0.7948071898
 C    1.8568477279   -1.0709845657    0.7217896346
 O    0.5539007785   -0.6391050542    1.1020262371
 H    0.9126497069    1.9598992593    0.4662395987
 H   -0.5139645925    2.0978552186   -0.5772759826
 H   -0.7144612218    1.7616372761    1.1582862592
 H   -2.0943359157   -0.2144682066    0.5239128888
 H   -1.7723724820   -0.1799010769   -1.2247908823
 H   -0.9120319115   -2.2347594266    0.4737488114
 H    1.3117780890   -2.1628302515   -1.0874812044
 H    2.6797474752   -1.0324475348   -1.3244488204
 H    2.0759066486   -2.0123529755    1.2325329827
 H    2.6127261438   -0.3253189906    1.0056866813