18

 O    0.1529892075    1.3946525028    0.1257982475
 C    0.0865690231    0.0107412771    0.0291250091
 C    1.0636992118   -0.6383342885    0.9943789522
 C    1.3476151887   -2.0709497354    0.5374121456
 O    0.1631540690   -2.7232118169    0.0846702886
 C   -0.6368618071   -1.8874858099   -0.6983544997
 C   -1.3287468091   -0.6457730206   -0.0643186929
 N   -1.4320284923   -0.0173932028   -1.4413539661
 C   -0.0454011502   -0.6291117258   -1.4074474166
 H   -0.5214319635    1.7226883458   -0.4879685226
 H    1.9929263943   -0.0602550701    1.0145561686
 H    0.6423570380   -0.6154615888    2.0056761077
 H    2.0832380553   -2.0541024652   -0.2812533666
 H    1.7558556105   -2.6877543937    1.3416715705
 H   -1.2899619855   -2.5104196569   -1.3157761193
 H   -2.1454983454   -0.6002507642    0.6582132032
 H   -2.0491337519   -0.5747825114   -2.0399943303
 H    0.6290068767   -0.5562754856   -2.2623490088