23

 C   -0.0421013033    1.5834027539    0.0371826326
 C    0.0229784297    0.0507092667    0.0166587881
 C    0.6266728850   -0.4182052586    1.3536625184
 O   -1.3409745738   -0.3791039311   -0.0725610181
 C    0.7710160109   -0.4696407788   -1.2426236877
 C    0.5577649155    0.3431965476   -2.5107536515
 C    2.0972450482   -1.2081876269   -1.1240231872
 C    0.8347008956   -1.9574735834   -1.4715648207
 O    0.2087016210   -2.7965574054   -0.5339059399
 H    0.9611083570    2.0200106552    0.0236286584
 H   -0.6062557289    1.9691711040   -0.8134446555
 H   -0.5490650414    1.9098217506    0.9492009192
 H   -0.0248291012   -0.0732211725    2.1613621002
 H    0.6927112380   -1.5054718818    1.4090931769
 H    1.6233704433    0.0044917451    1.5162496936
 H   -1.3208010456   -1.3441854897   -0.0651486652
 H    1.0348437882    1.3262526747   -2.4524814426
 H    0.9815000615   -0.1732656652   -3.3777294285
 H   -0.5110440684    0.4892943152   -2.6965441159
 H    2.8422063082   -1.0632835358   -1.9004798534
 H    2.5076989562   -1.3686140314   -0.1345250310
 H    0.7148392542   -2.2977473148   -2.4997620321
 H    0.7265681701   -3.6029118176   -0.4429251082