17

 O    0.8221145895   -1.2767456540   -0.8678447123
 C    0.2280769398   -0.2985351762   -0.0310413722
 C   -1.2864829489   -0.3590874280   -0.1259985750
 C   -2.2404806822    0.6037203068    0.6324498565
 C   -2.8971781957    0.8493815365   -0.7254206509
 C   -1.9440524954    1.4526075201   -1.6865964391
 C   -0.9317991652    2.3969906712   -1.2835837905
 N   -0.1476498774    3.1948387662   -0.9875195907
 N   -1.9139996070   -0.0241052456   -1.4729605481
 H    0.5293978681   -1.1010927198   -1.7688541398
 H    0.5229726946   -0.5477635342    0.9949820260
 H    0.6122528814    0.7056581719   -0.2450779135
 H   -1.5817860134   -1.3964458945    0.0540032718
 H   -2.8808223964    0.1004613740    1.3568762257
 H   -1.7987162492    1.4878750205    1.0996951220
 H   -3.9610871501    0.8279770887   -0.9377332465
 H   -2.3390800723    1.6688642363   -2.6755316334