17

 O   -0.1337923288    1.4652487872   -0.1561259758
 C    0.0010362544    0.0493429590    0.0057601815
 C   -1.4188666805   -0.4909303061    0.0133455917
 O   -2.1910359067    0.2289692080    0.9483529946
 C   -2.0607607971   -0.8797560798   -1.3666897929
 O   -1.1274376971   -2.0223051076   -1.4021362238
 C   -1.6331747119   -2.0262376541   -0.0145146850
 C   -3.0680131628   -1.8245956823   -0.6254542242
 O   -4.1629779758   -1.3802371601    0.0892950868
 H    0.7076559668    1.8814147455    0.0490086403
 H    0.5764854463   -0.4033320901   -0.8061611244
 H    0.4820368630   -0.1865063619    0.9660841651
 H   -1.8895477854    1.1466055376    0.8786410440
 H   -2.1724139106   -0.2903043719   -2.2772179518
 H   -1.2467119494   -2.7895208763    0.6626813558
 H   -3.3636756093   -2.6731191488   -1.2443112749
 H   -3.8682279151   -0.6256925883    0.6199491931