14

 N   -0.1105707919    1.2644848749    0.0897558179
 C    0.0214399044   -0.0649552746   -0.1031354758
 O    1.0507973937   -0.6213091084   -0.4366086509
 C   -1.2736273113   -0.9182715164    0.0511735006
 O   -0.9271964064   -2.2717477015   -0.0320670792
 C   -1.9828404022   -0.5974781594    1.2892797140
 C   -2.5833146581   -0.3107312663    2.3007717340
 C   -3.2534575842    0.0100850533    3.4404249773
 C   -3.8479820769    0.2981984848    4.4509897720
 H    0.7177127455    1.8370244385    0.0535134713
 H   -0.9301494628    1.6316584430    0.5449378318
 H   -1.9251035283   -0.6371894706   -0.7959844786
 H    0.0238748315   -2.2600283532   -0.2459001947
 H   -4.3718301529    0.5453953560    5.3410011903