20

 C    0.2058185207    1.5644689407   -0.3256916634
 C    0.0445631595    0.0701844552   -0.0497502947
 C    0.7476236581   -0.3471911023    1.2426133196
 O    1.3241766615    0.4731108050    1.9389033148
 N    0.6982585995   -1.6793582325    1.5860948036
 C    0.1119632008   -2.7364408806    0.7824538175
 C    1.4106337191   -2.1028754149    2.7907949292
 C    0.5420456477   -2.7552015010    3.7694685431
 C   -0.1687848708   -3.3069766254    4.5660974410
 H    1.2605751045    1.8320066802   -0.4211984873
 H   -0.3097461467    1.8370766763   -1.2511550834
 H   -0.2057196856    2.1583195478    0.4931792477
 H   -1.0191101156   -0.1898979110    0.0215388725
 H    0.4418660917   -0.5185354778   -0.8856602363
 H   -0.5874732456   -2.3332156750    0.0532049511
 H    0.8803855880   -3.3121256780    0.2463168399
 H   -0.4368607016   -3.4247340552    1.4329252714
 H    2.2273970592   -2.7869975422    2.5171668948
 H    1.8597483647   -1.2011838861    3.2140944630
 H   -0.7926594291   -3.7807450933    5.2831526857