18

 O   -0.2144140941    0.9452470458   -0.7905703372
 C   -0.1962183477   -0.1871254408    0.0405313681
 C    0.2593610636    0.0447923771    1.5050715763
 C   -0.5463874968   -0.9739419399    2.2685537870
 C   -1.5412215076   -1.4890111905    1.5451516907
 C   -1.5828403070   -0.8907672394    0.1673328625
 O   -2.6302103261    0.0981113513    0.1088318120
 C   -3.2868848389    0.2467917258   -1.0614071587
 N   -4.0675499500    1.2245224649   -1.2226446479
 H   -0.9266649515    1.5173604167   -0.4782703624
 H    0.4948432971   -0.8932722185   -0.4311459883
 H    1.3407759487   -0.0754910477    1.6258647566
 H    0.0191736461    1.0654810168    1.8317376116
 H   -0.3321654294   -1.2359266890    3.2991322365
 H   -2.2725452018   -2.2106302843    1.8884474871
 H   -1.7508043678   -1.6207609678   -0.6334012350
 H   -3.0737687694   -0.5495922021   -1.7872010886
 H   -4.5029776674    1.1738760817   -2.1412190003