19

 C    0.1727707080    1.5409360803    0.0090785801
 O    1.2580297703    0.6110840393   -0.0067027953
 C   -0.0715372771    0.0879930806    0.0035072875
 C   -0.5033044105   -0.6205990184    1.2897881385
 C   -1.7977261731   -1.3948046899    1.0233410576
 C   -2.7230104202   -0.6635402948    0.0254727455
 C   -1.8176198402   -1.3837025045   -0.9983813901
 C   -0.5286039882   -0.6064839950   -1.2817295522
 O   -1.5089890418   -2.3932836279    0.0040285726
 H    0.0569240543    2.1082091446    0.9325678915
 H    0.0388384928    2.1182996939   -0.9056700982
 H    0.2682552616   -1.3377983566    1.5902642597
 H   -0.6249854919    0.0987480388    2.1068369546
 H   -2.2271744667   -1.8366675343    1.9258368528
 H   -3.7334649607   -1.0739191767    0.0331606029
 H   -2.7514152602    0.4279659005    0.0317463079
 H   -2.2647942832   -1.8156756780   -1.8970474992
 H   -0.6662474931    0.1217731839   -2.0882840472
 H    0.2368109799   -1.3202686059   -1.6051750791