14

 O    0.1735198491   -0.2086154687   -0.1772804853
 C    0.0746725551    0.9902725624   -0.1756671040
 C    1.2397509528    1.9546569141   -0.0073226585
 C    1.2994175980    2.9322923603   -1.1459967386
 C    1.6655933214    2.6816722784   -2.4573465828
 N    1.5366239784    3.8534095786   -3.1219428268
 N    1.1068729981    4.8634385482   -2.3440499000
 C    0.9593015618    4.3056416573   -1.1465943588
 H   -0.9087187426    1.4926254861   -0.3214866237
 H    1.0853696636    2.5019822814    0.9317554002
 H    2.1564695239    1.3666051254    0.0929175942
 H    2.0034115233    1.7814094125   -2.9466506696
 H    1.7275778299    4.0342782949   -4.0930111302
 H    0.6199353172    4.9049542092   -0.3134847461