23

 C   -0.0059255279    1.5698745655    0.0077271040
 C   -0.0045484311    0.0681873169    0.0243996140
 C   -0.7723789265   -0.8104105767   -0.9796137705
 C   -1.1302615167   -1.8044977434    0.1721131349
 C   -0.3391708222   -0.9321317868    1.1501124003
 C    1.0736404741   -0.7511503811    0.6673383435
 C    2.0285442735   -1.8199530936    0.1043112408
 C    3.0103209946   -1.4824026544    1.2646434607
 C    2.1819788184   -0.2039163929    1.5833598312
 H    0.5451274044    1.9582508677   -0.8586834061
 H   -1.0259276077    1.9680175314   -0.0481371439
 H    0.4633309361    1.9823397636    0.9064877470
 H   -1.6564416454   -0.3128525945   -1.3871628958
 H   -0.1859424996   -1.2095032386   -1.8145131459
 H   -2.2018100529   -1.8198486014    0.3839498212
 H   -0.7874387777   -2.8387061149    0.0581287322
 H   -0.6055945251   -0.7378437132    2.1844758610
 H    1.6580137090   -2.8476898049    0.0600684097
 H    2.4298246691   -1.5559106963   -0.8798705855
 H    2.9635362686   -2.2172524243    2.0720045823
 H    4.0577348373   -1.3319315105    0.9943993311
 H    2.6485932059    0.7058845348    1.1907582491
 H    1.9230281617   -0.0302187226    2.6318084146