19

 C   -0.0237179962    1.4462651882   -0.0394691262
 C    0.0333781650   -0.0539272261    0.0655286090
 O    0.6326695439   -0.5980631352   -1.0922499513
 C    0.6908804401   -2.0164491834   -0.8658997325
 C    0.4298287936   -2.1535356236    0.6326363803
 C   -1.0085722089   -1.7278208203    1.0820527777
 C   -0.3704701876   -1.0180278710    2.2952603975
 C    0.7456549340   -0.7562651306    1.2567564581
 O   -1.2902094247   -0.6262905448    0.1975166087
 H    0.9759532311    1.8499331384   -0.2176632131
 H   -0.6706301303    1.7318813503   -0.8727651690
 H   -0.4282972965    1.8758226485    0.8797849852
 H   -0.0671469103   -2.5277306218   -1.4722511899
 H    1.6809908639   -2.3802108773   -1.1617709590
 H    0.8429384890   -3.0272487695    1.1342438948
 H   -1.8637335318   -2.4005145857    1.1329247077
 H   -0.9176986885   -0.1680650982    2.7096253860
 H   -0.0500128759   -1.6997840970    3.0868104607
 H    1.7506541701   -0.4153211811    1.4999478351