18

 O    0.5784879617    0.7232516664   -0.7882493008
 C    0.0458567043   -0.2869339700    0.0250310408
 C    0.0543574296   -0.1157480455    1.5854548421
 C   -1.3858444521   -0.6494579542    1.6072516863
 C   -1.9389308791   -1.7628744153    2.4073760595
 N   -2.4721571309   -0.3893966914    2.5439650749
 C   -1.4785573060   -0.4730375460    0.1099346814
 C   -2.5283636866    0.1832060261   -0.6722757685
 O   -2.2856204827   -1.2313074832   -0.7624967686
 H    0.1248333131    1.5466138838   -0.5771512510
 H    0.5385223840   -1.2144405163   -0.2789941569
 H    0.8121650968   -0.6730120917    2.1394398753
 H    0.1121584779    0.9425997737    1.8640170492
 H   -2.6194059601   -2.4676210758    1.9385356847
 H   -1.3274888656   -2.1696133323    3.2090507245
 H   -2.1067964682    0.0431399669    3.3897057230
 H   -3.4543183714    0.4662858152   -0.1760456113
 H   -2.2610968746    0.7521847898   -1.5617220947