17

 O   -0.0667756691    1.4262869402   -0.2258225432
 C    0.0908740163    0.0469016798    0.0635986445
 C   -1.2982673626   -0.5639045725    0.0331161440
 C   -2.0728267789   -0.6801465148   -1.3050227212
 N   -2.3218176267   -2.1599117029   -1.1139995683
 C   -0.9988964524   -2.7824390641   -1.1011410738
 C   -1.4369420133   -2.0879649312    0.1389045793
 C   -1.7331469071   -2.7919409128    1.3503253914
 N   -1.9434330230   -3.3344942027    2.3505117520
 H    0.7994996683    1.8434719053   -0.2083208989
 H    0.7432354344   -0.4440116622   -0.6753978062
 H    0.5399299585   -0.1144586268    1.0566554598
 H   -1.9154189347   -0.0713855490    0.7874651186
 H   -3.0182359674   -0.1389691081   -1.3222070071
 H   -1.5090697302   -0.4553717421   -2.2155146107
 H   -1.0358094615   -3.8669241533   -1.0871192641
 H   -0.1985422007   -2.3558999328   -1.7015461660