21

 C    0.0371898273    1.4651309723    0.1033219264
 C    1.3622783024    0.7821884190   -0.0591669611
 C    1.7751007276    0.0981177378    1.2492257709
 C    0.4463833825   -0.7294267282    1.2278568209
 C    0.6061790628   -2.2336286438    0.9968595361
 C   -0.6370223411   -2.8257512403    0.3049854016
 C   -1.0060343659   -2.0524702498   -0.9411882440
 C   -0.6649703180   -0.7720482409   -1.1220601283
 C    0.0392536523   -0.0289166252   -0.0760465268
 H   -0.2485255194    1.9021471734    1.0593096973
 H   -0.3038207358    2.0296876423   -0.7599755354
 H    2.0214800093    1.0138209156   -0.8876009859
 H    2.6571708022   -0.5394303766    1.1485406638
 H    1.9259199319    0.7662497983    2.1043707158
 H   -0.2342665247   -0.5449191059    2.0684783536
 H    1.4713367234   -2.4037240302    0.3436181372
 H    0.8111322974   -2.7528899901    1.9398125211
 H   -0.4509151941   -3.8751019360    0.0460916307
 H   -1.4871779064   -2.8431097976    1.0033347212
 H   -1.5618092088   -2.5792409179   -1.7122876573
 H   -0.9247817948   -0.2517223562   -2.0411010878