19

 O    0.4203337109    1.1188020300    0.6896244708
 C    0.0840071936   -0.1260832106    0.1507991171
 C   -1.4194500848   -0.4283154733    0.0361377645
 C   -1.4940627980   -1.5839141728   -0.9962767652
 C   -2.4656206386   -1.3777683329   -2.1915391759
 C   -1.2846033200   -0.8551635949   -3.0596239079
 C   -0.2858438537   -1.3423084232   -1.9573951826
 C    0.5625278087   -0.2798476396   -1.2938671844
 O    1.4063643374    0.4341846482   -1.7819591696
 H    1.0880128799    1.4865902352    0.0894257922
 H    0.5593190294   -0.9461995412    0.7244999368
 H   -1.8730282710   -0.6831955262    0.9959663660
 H   -1.9238742215    0.4698473648   -0.3391627845
 H   -1.5444774809   -2.5566005269   -0.5027201913
 H   -2.8696179064   -2.3206229882   -2.5685207060
 H   -3.2985206719   -0.6896468870   -2.0250670681
 H   -1.1605260198   -1.3201163427   -4.0387800845
 H   -1.2714339270    0.2287702126   -3.1954065013
 H    0.3060208139   -2.2107553812   -2.2540714562