21

 C   -0.1045414058    1.5390742634   -0.0007701340
 C    0.0809423311    0.0396398020    0.0470240363
 C    1.3901651342   -0.6754374693   -0.1852058078
 O    1.4023432251   -1.8234960104   -0.9850860002
 C    2.7006762326    0.1086223041   -0.0541919975
 C    2.7273283247    0.5185621834    1.4011838303
 C    1.6697878114    0.0489900452    2.0683069131
 C    0.7489089888   -0.7395312043    1.1941941197
 C    0.0772492230   -1.9792989045    1.7361089533
 H    0.7100240294    2.0658129534    0.5020025999
 H   -0.1490552560    1.8970319441   -1.0361861748
 H   -1.0403202600    1.8317179728    0.4882530625
 H   -0.7553011759   -0.5203954965   -0.3696561195
 H    1.1803240402   -1.5641632705   -1.8854479130
 H    3.5451164548   -0.5426281816   -0.3149611014
 H    2.7487871128    0.9735594223   -0.7294893957
 H    3.5162835374    1.1319704140    1.8216197810
 H    1.4726894109    0.2075952458    3.1234544365
 H   -0.7113796370   -1.7266213702    2.4543374725
 H   -0.3717064144   -2.5585066579    0.9250611813
 H    0.7986650729   -2.6276702852    2.2454470676