15

 C   -0.0950985562    1.4596092584    0.0218700916
 N   -0.0264351774    0.0039640949    0.0157268788
 N    0.0232462515   -0.5934777955   -1.1741980374
 N    0.0844026591   -1.8652358172   -1.2511130789
 C    0.0994525219   -2.6472012377   -0.0715119527
 O    0.1560467530   -3.8587063302   -0.1223460930
 C    0.0429401265   -1.9022089214    1.1957403805
 C    0.0564987042   -2.6539369375    2.4834777529
 N   -0.0185071893   -0.6038592690    1.2140923579
 H    0.7679717360    1.8669653936    0.5534262871
 H   -0.0929337972    1.7903362909   -1.0149429871
 H   -1.0102882634    1.7831238005    0.5230036084
 H   -0.7864516428   -3.3521656234    2.5146057781
 H    0.9603528076   -3.2690750074    2.5447588256
 H    0.0094159065   -1.9698652291    3.3316523582