21

 C    0.0663658444    1.5038611331   -0.0551652632
 C    0.0245847554   -0.0042526952    0.0106858908
 C   -0.8206129944   -0.6909650692    1.0599747493
 C    0.6866079454   -0.8031035847    1.1134911396
 C    1.3180788749   -2.0469570987    0.5105418656
 C    0.6222539933   -2.2211258876   -0.8691763202
 C    0.2284490279   -0.7793758941   -1.2881570068
 C    1.5352474759   -2.8725302295   -1.8793557599
 O    1.3185178215   -3.9046297823   -2.4586648869
 H    1.0037051079    1.8570546541   -0.5016121790
 H   -0.7575481902    1.8992198070   -0.6610326843
 H   -0.0171726360    1.9473903202    0.9420080501
 H   -1.2906564801   -0.0526381137    1.8008240045
 H   -1.4118151718   -1.5622333453    0.7959111880
 H    1.2091312788   -0.3039774247    1.9229987603
 H    2.3949243564   -1.8787838289    0.3721177928
 H    1.2098395642   -2.9445189319    1.1278904054
 H   -0.2627615388   -2.8545201540   -0.7774454444
 H   -0.6496072903   -0.7757793290   -1.9427760376
 H    1.0496968510   -0.3137401326   -1.8518819816
 H    2.4779274846   -2.2990706431   -2.0606111525