14

 N   -0.0868967074    1.3397825715    0.0804060474
 C   -0.0488739489    0.0689680840    0.0007416563
 N    1.0510625710   -0.8052334508   -0.1290989102
 C    0.7118881490   -2.2392569412   -0.0179932436
 C   -0.7801235427   -2.1530072858    0.0011050108
 C   -1.1691188840   -0.8636052253    0.0104350659
 O   -2.5231707831   -0.8137429757    0.0083087042
 C   -2.8708730645   -2.1341943504   -0.0029397129
 N   -1.8833248737   -2.9813464208   -0.0119914461
 H    0.8511269956    1.7421675421    0.0510702564
 H    1.9435215311   -0.4918584283    0.2182397310
 H    1.1014790709   -2.8075312857   -0.8717112734
 H    1.1224667430   -2.6876710486    0.8968440881
 H   -3.9284814563   -2.3458933050    0.0003309461