17

 C   -0.0132186405    1.5193748930   -0.0484295963
 C   -0.0573431997    0.0234240880    0.0655154961
 C   -1.3007763363   -0.7576033949   -0.3319759407
 N   -1.0434525617   -2.1142673691    0.1584466736
 C   -0.1989640094   -2.0417361818    1.3535492656
 C    0.6193054223   -0.7850157978    1.1076864858
 O    1.1570298493   -0.6874027576   -0.2161099183
 C    1.4039246030   -0.2167438618    2.1743781265
 N    2.0179372473    0.2302576147    3.0459514918
 H    0.9105575379    1.9116640048    0.3818337265
 H   -0.0576351320    1.8187024659   -1.1006634758
 H   -0.8642700575    1.9725655207    0.4690278653
 H   -2.1706568153   -0.2586092162    0.1295579844
 H   -1.4549223136   -0.7639401438   -1.4176023815
 H   -1.8908376420   -2.6432701307    0.3140060331
 H   -0.7433314120   -1.9094922032    2.3042526611
 H    0.4264854502   -2.9367386001    1.4425705129