18

 C   -0.0907501069    1.4247655465   -0.0209134476
 O   -0.0065485757    0.0016573307   -0.0020381229
 C   -1.1843896233   -0.6482524567    0.0052978570
 C   -1.3413330030   -2.0216787608    0.0274882608
 C   -0.3538850319   -3.1353074316    0.0489414743
 N   -2.6965599917   -2.1625660648    0.0252920951
 C   -3.4759215040   -3.3808561526    0.0427644310
 N   -3.3203578000   -0.9733720459    0.0041632440
 N   -2.3929459838   -0.0444344383   -0.0084394378
 H    0.9394474598    1.7838234014   -0.0232478687
 H   -0.6152974786    1.7769565016   -0.9150242659
 H   -0.6193778469    1.8002416601    0.8612712246
 H   -0.4555262764   -3.7640306994    0.9416279964
 H   -0.4452070236   -3.7890937187   -0.8267224279
 H    0.6538933954   -2.7146914293    0.0487952231
 H   -3.2653294859   -3.9648308831    0.9438183804
 H   -4.5259246859   -3.0891611315    0.0344097250
 H   -3.2592861877   -3.9942467074   -0.8370563610