20

 C   -0.0155215134    1.5535657653   -0.0643101325
 C   -0.0700013119    0.0555402406    0.0841203484
 O    1.1807875792   -0.6532302084   -0.0512133923
 C    0.5396443966   -0.6533767360    1.2120513823
 C    1.2701987005   -0.2106375515    2.4818076961
 N    0.9579284885   -1.5255066992    3.1540041374
 C   -0.5162852534   -1.6067576138    3.1813839521
 C    0.1698532972   -1.9446267730    1.9135677706
 C    0.2393928417   -3.3072861569    1.2959553521
 H    0.8176863014    1.9726019393    0.5058586136
 H    0.1135011360    1.8331900513   -1.1150305581
 H   -0.9467920645    2.0071475003    0.2921491328
 H   -0.9001601351   -0.4359806047   -0.4274154789
 H    2.3461997073   -0.1132784539    2.3221871541
 H    0.8948156557    0.6659263150    3.0210041016
 H   -0.8856635369   -2.4299961332    3.7861552107
 H   -1.0951587309   -0.6883034357    3.2667978236
 H   -0.6513774596   -3.5081238100    0.6895382837
 H    1.1151285706   -3.3922541194    0.6463458098
 H    0.3021092610   -4.0747486961    2.0724674229