16

 O    0.8619966182    0.3004159985   -1.7140069009
 C    0.2270916782   -0.1959718425   -0.5679525258
 C    1.1030922038   -0.9654532575    0.3755744828
 C    0.5596481223    0.3897671584    0.7771594113
 C   -1.1525767925   -0.7068872368   -0.8631749042
 O   -2.0679226869   -0.8427368215    0.2188921487
 C   -2.3628878226    0.1453973041   -0.7702878422
 C   -2.2721546823    1.5348510321   -0.3756912153
 N   -2.2158392900    2.6585345420   -0.1098142163
 H    0.5237049937    1.1884147073   -1.8803867049
 H    0.6904007392   -1.8445360734    0.8581395860
 H    2.1495047004   -1.0317057467    0.1022847967
 H    1.2465448007    1.2279704210    0.7782973373
 H   -0.2202031033    0.4241950907    1.5280265384
 H   -1.1957564086   -1.5112870735   -1.5989837368
 H   -3.2189502104   -0.0805777123   -1.4030252649