18

 C   -0.0161071866    1.4963237480   -0.0180535486
 C   -0.0606457559   -0.0126835614    0.0176389242
 C   -0.5760422068   -0.7235283742    1.2196288400
 N    0.8793456740   -0.6854783628    0.9292268226
 C    1.4401523407   -1.8256650968    0.2515189869
 O    2.1660799905   -2.6216435248    0.7809034151
 C    1.0271437529   -1.8074978992   -1.2044673329
 C   -0.4301269249   -2.1471858538   -1.4638199763
 C   -0.0091152713   -0.7141110841   -1.3378800281
 H    0.8241265637    1.8449433544   -0.6280709064
 H   -0.9393456679    1.9000606091   -0.4480593262
 H    0.1043589754    1.9033912246    0.9888108127
 H   -0.8703832166   -0.1512421705    2.0957411168
 H   -1.0934019315   -1.6713268697    1.1174468240
 H    1.7687593972   -2.0629582640   -1.9509885251
 H   -0.6544631778   -2.5039501102   -2.4632891163
 H   -1.0220356912   -2.6248865590   -0.6922692743
 H   -0.0524281538   -0.0770182758   -2.2129214779