19

 C    0.0934840125    1.3160876518   -0.2580806576
 C    0.2038366930   -0.1363651270    0.1176018048
 O    1.5216994587   -0.6828592011    0.2356147714
 C    0.7110673033   -0.6200478878    1.4259835263
 C    1.1395735316    0.3328355011    2.4258065369
 C    1.4699023816    1.0958024302    3.2943203318
 C    0.2702198361   -1.9502137985    1.9783798647
 C    0.2923637984   -3.1785860410    1.1089891102
 C    1.2966729031   -3.0270154147    2.2239042251
 H    0.7699341232    1.9280306814    0.3414996133
 H    0.3405450682    1.4514646051   -1.3161577079
 H   -0.9316786263    1.6692083185   -0.1039033744
 H   -0.4964358990   -0.8075329722   -0.3829605429
 H    1.7720800691    1.7738056451    4.0539707436
 H   -0.5313841696   -1.8662918464    2.7059993548
 H   -0.5117912252   -3.8965330574    1.2238327331
 H    0.6657566716   -3.0626342823    0.0983994241
 H    2.3199914611   -2.8099840399    1.9388465075
 H    1.1924870584   -3.6400910550    3.1117122752