16

 O   -0.0425936867   -0.1083525491   -0.5627450175
 C    0.0920722834    0.9987849371   -0.1092697895
 O   -0.5060276689    1.2744008887    1.1183029057
 C   -1.2055448542    2.4577310686    1.3270012448
 C   -0.9230674650    3.1925032635    2.6039799069
 C   -0.5332488599    3.8003365192    1.2708844961
 N    0.8381478612    3.8880187171    0.8765788160
 C    1.3644695316    3.1961308864   -0.1737712448
 C    0.9797054142    2.0026052255   -0.6818804391
 H   -2.2321705284    2.4159285964    0.9696717466
 H   -1.7429609362    3.6328725994    3.1589220397
 H   -0.1122721159    2.7870312461    3.1977086445
 H   -1.1528572538    4.6205649107    0.9094194188
 H    1.2909499280    4.7608528017    1.0963663966
 H    2.2165544377    3.6927902797   -0.6326867810
 H    1.5042672528    1.6463844390   -1.5592190438