14

 N   -0.1790790751    1.3031295817    0.0118632121
 C   -0.0161673659    0.0551760580    0.0027566444
 O   -1.1397125257   -0.7286874189    0.0082179896
 C   -1.0373710969   -2.0806469121    0.0008220007
 N    0.1654798297   -2.6474061219   -0.0094184963
 C    0.1779105465   -3.9824882527   -0.0161049968
 C   -0.9853022741   -4.7381839967   -0.0125011649
 C   -2.1785042346   -4.0200422773   -0.0015256265
 N   -2.2206428801   -2.6898384491    0.0051816753
 H    0.7290928627    1.7647344067    0.0060435035
 H    0.9108079587   -0.5162164208   -0.0092858522
 H    1.1587862261   -4.4518187589   -0.0245308696
 H   -0.9664185373   -5.8201490303   -0.0178731824
 H   -3.1399105441   -4.5285067678    0.0020282032