17

 N    0.0362075179    1.2533963736    0.0087434799
 C    0.0183407227   -0.0029765176   -0.0864498771
 O   -1.1134542258   -0.6751086132    0.2396299624
 C   -1.1137041809   -2.0724662798    0.0399637363
 C   -2.3525320846   -2.7387464216    0.6533774761
 N   -2.5922108230   -3.9541097502   -0.1444218659
 C   -2.2439602673   -3.6108960562   -1.5289445602
 C   -1.2273833268   -2.4680030263   -1.4521291795
 O   -0.6398650273   -1.9372555204   -2.3560126116
 H    0.9555412406    1.6069627495   -0.2477094210
 H    0.8411493093   -0.6538062933   -0.4015647927
 H   -0.1954166260   -2.5282970594    0.4433628441
 H   -2.2398416167   -2.9859503453    1.7097551930
 H   -3.2032142439   -2.0540473160    0.5538522913
 H   -1.9813220916   -4.6945630390    0.1833757663
 H   -1.8557356589   -4.4646571225   -2.0897304718
 H   -3.1265759277   -3.2433350122   -2.0717850897