16

 O    0.3602550689    0.0478502338   -0.2793326473
 C    0.6222599165    1.2007652960   -0.4388597483
 O    0.3479976194    2.1232206124    0.5293928256
 C    0.6720221491    3.4570763932    0.2975011505
 C    0.4082136610    4.5677178970    1.3134712937
 C    1.0581455413    5.2904379232    0.1129547124
 C    2.0165003276    4.0926501617   -0.2043580686
 N    1.6129058697    3.9603228418   -1.6449108873
 C    0.3519480096    4.3692736247   -0.9389810884
 H    1.0902954577    1.6416233749   -1.3329607233
 H   -0.6399617278    4.7991941724    1.5182072416
 H    0.9901007544    4.5283025330    2.2376053772
 H    1.2905607335    6.3449453786   -0.0165855619
 H    3.0277075926    3.9147386488    0.1621526908
 H    1.9835146482    4.7433925313   -2.1897933378
 H   -0.6043411416    4.5183280471   -1.4407935987