16

 C   -0.0965247902    1.4045419459   -0.4176994997
 C    0.0043257833   -0.0239135392    0.0375125726
 O    1.0401045493   -0.5920740706    0.3009188231
 C   -1.3399149965   -0.7793532742    0.1648759752
 O   -2.4060503408   -0.2484389182   -0.0895351274
 N   -1.1720594032   -2.0567316147    0.5850134803
 C   -2.2763988948   -2.9601556471    0.8013199312
 C   -2.3300297190   -4.0808015836   -0.2315174080
 O   -2.7432215889   -5.1841441998    0.0009640876
 H    0.8965695627    1.8501604818   -0.4719050674
 H   -0.5935565972    1.4474315702   -1.3921507587
 H   -0.7365510249    1.9669219563    0.2696235263
 H   -0.2182115252   -2.3377074005    0.7664174822
 H   -2.2585133162   -3.3989985239    1.8036248162
 H   -3.1937334613   -2.3660632733    0.6983795193
 H   -1.9581885973   -3.7846262491   -1.2388527428