25

 C   -0.7016130473    2.3215428086    2.5544859684
 C   -0.1466662034    1.4531921830    1.4178129111
 C    0.5454514342    0.1945376111    1.9087307517
 C   -0.1775781703   -1.1142051029    2.2161978906
 C   -1.6736045939   -1.2852087961    2.0816258134
 O   -2.3506695027   -1.0302246538    3.3077662360
 C    0.7816135471   -1.0283215960    1.0428611232
 C    0.2613428026   -1.0793560628   -0.3848699610
 C    2.1167790036   -1.7365312641    1.2014790296
 H    0.0776779189    2.5697790546    3.2830624382
 H   -1.1131522081    3.2605630942    2.1713600554
 H   -1.5079320209    1.8104786189    3.0926370172
 H   -0.9573619061    1.2125910517    0.7233818977
 H    0.5749025193    2.0437093662    0.8378665507
 H    1.3635977743    0.4188738906    2.5922091140
 H    0.2024735219   -1.6607780064    3.0773696551
 H   -2.0798555583   -0.6593313700    1.2744588887
 H   -1.9148371248   -2.3243542054    1.8296003252
 H   -2.0113204123   -0.1987946352    3.6542541367
 H   -0.7032188231   -0.5856618553   -0.5144268913
 H    0.9717144578   -0.6013519934   -1.0699672284
 H    0.1441532628   -2.1190268847   -0.7123794944
 H    2.0381865336   -2.7952563047    0.9262606729
 H    2.8806318440   -1.2838034198    0.5575028152
 H    2.4775042210   -1.6863680883    2.2334700644