17

 O    0.0270372218    0.4882924199    1.4208943359
 C    0.0430795771    1.3590351047    0.5831008998
 N    1.1295647535    1.7272474466   -0.1660700305
 C    2.3885661260    1.0848669561   -0.1104622683
 C    3.1472601624    0.8866985945    1.1647461594
 C    3.7811361019    1.6628670476    0.0412857551
 N    4.3120610938    0.8916354842   -1.1546759819
 C    4.1529469941   -0.5646771065   -0.9487201822
 C    2.9615776468    0.2438360712   -1.2781144108
 H   -0.8399754361    1.9831529856    0.3359828735
 H    0.9844132461    2.4356994558   -0.8706663530
 H    2.7977042076    1.5305502162    1.9649563871
 H    3.4706045157   -0.0875961282    1.5100763832
 H    4.1185353140    2.6856486685    0.1514868516
 H    4.5972722941   -1.1343041279   -1.7605191349
 H    4.2943796420   -1.0103086884    0.0283360427
 H    2.4583155093    0.1943572000   -2.2397084665