20

 C    0.0329459245    1.5824430708    0.1384605812
 C    1.5794723026    1.5190534178   -0.1026834734
 C    1.4830869527    0.0357490023    0.1840067071
 C    2.2082247528   -0.9281906249    0.7369712957
 C    1.5117046241   -2.2034669139    1.0665128194
 N    0.8891038472   -2.3024552931    2.4116902991
 C    0.0285902042   -2.1799674923    1.2151435403
 C   -0.7297532023   -0.8580631242    1.0485728001
 C   -0.0231358744    0.0232703356    0.0111401094
 H   -0.2051221598    1.9110582491    1.1535413790
 H   -0.5571630732    2.1645491171   -0.5726685692
 H    1.8383793967    1.7352704990   -1.1455009936
 H    2.2249524296    2.1197587354    0.5436483965
 H    3.2573296004   -0.8092147928    0.9955112001
 H    1.9584617751   -3.1149247515    0.6717424159
 H    0.9089056870   -3.2716021280    2.7231029266
 H   -0.5042271741   -3.0743659633    0.9009841960
 H   -1.7738694926   -1.0484370926    0.7772852532
 H   -0.7303011920   -0.3449534418    2.0154882958
 H   -0.3138817884   -0.2650198987   -1.0072590591