15

 O    0.0741191318    1.4168395023    0.0005429730
 C    0.0919379982    0.0190681188    0.0941027253
 C    0.2270528202   -0.4370309106    1.5709218332
 C   -1.3002221456   -0.5695018614    1.6243045173
 O   -2.1290799529   -0.5612236990    2.4772596979
 C   -1.3921261751   -0.5447114986    0.0477830951
 O   -2.3337713493    0.3606346347   -0.4811760345
 C   -1.4882309374   -1.8777288735   -0.5072476580
 C   -1.5680340131   -2.9813762952   -0.9797949568
 H   -0.7419428992    1.6523385827   -0.4651335976
 H    0.7846939946   -0.4339052081   -0.6227500950
 H    0.7210829620   -1.4066909335    1.6867336610
 H    0.6711959752    0.2901985547    2.2518839251
 H   -2.7026818566   -0.0134921391   -1.2886554061
 H   -1.6435223927   -3.9595776743   -1.3880014598