21

 C   -0.3066663941    1.5632272482    0.2853327602
 C   -0.0978855606    0.0727342712    0.1128889243
 C   -1.2542309648   -0.6483309323   -0.5652852534
 C   -0.8759699290   -1.9185518222   -1.3359665284
 C   -0.4623660659   -3.1070034020   -0.5110971330
 C    0.2206313970   -3.1464477697    0.6316289730
 C    0.8190047247   -2.0526497613    1.4736756283
 C    0.8403606470   -0.6124142559    1.0145501761
 O    1.2252583194   -0.2933404959   -0.3293100409
 H    0.5422566769    2.0242078407    0.7961245685
 H   -0.4231563233    2.0465529294   -0.6909369535
 H   -1.2142243379    1.7627117326    0.8662097461
 H   -2.0220439428   -0.8769217754    0.1849073823
 H   -1.7174876510    0.0525274755   -1.2715340283
 H   -1.7389355613   -2.2091755678   -1.9459847836
 H   -0.0735341627   -1.6715546779   -2.0429789590
 H   -0.7561828142   -4.0683321546   -0.9291903318
 H    0.4090098859   -4.1333470858    1.0528554064
 H    0.3372527060   -2.0627715457    2.4646790516
 H    1.8624306159   -2.3346845529    1.6826279685
 H    1.3286621549    0.0272229818    1.7556218568