18

 C   -0.1062231916    1.5562404390   -0.0492485065
 C   -0.0161855052    0.0460411683   -0.0314669423
 C   -1.2348947426   -0.6777235957   -0.5692924683
 C    1.3253712361   -0.6021132331   -0.2480227121
 O    2.4565705650    0.1791013257   -0.4539410927
 C    0.6961962762   -0.6481554402    1.1469297304
 C    1.3459434433    0.0957314388    2.1802472526
 C    1.9620657563    0.7144671487    3.0110513079
 H    0.8259605126    2.0191892449    0.2751838030
 H   -0.3189165798    1.9059868889   -1.0654931832
 H   -0.9125297125    1.9068355042    0.6039321075
 H   -1.4375654189   -0.3750619056   -1.6029783643
 H   -1.0978618824   -1.7640673704   -0.5606970863
 H   -2.1251615508   -0.4490283906    0.0275348977
 H    1.3498355597   -1.5422534413   -0.7971471470
 H    2.8915031753    0.3118291855    0.3985108460
 H    0.2783539489   -1.6008665279    1.4597058849
 H    2.4619558504    1.2652456708    3.7690531526