22

 C    0.0912372639    1.7515523383    0.0670117969
 N    0.0449107005    0.2957567744    0.0281498286
 C    1.1948546416   -0.5106456440   -0.3570316691
 C    2.5911572940    0.0954430881   -0.3637582513
 C    2.9724424758    0.4343719200    1.1073266836
 C    4.2141954755   -0.3413987403    1.5598707386
 O    3.2557248352    1.8389932855    1.1461407850
 C    1.7245266296    0.0624068953    1.9767357665
 C    0.6727196505   -0.5307898679    1.0491232341
 H    1.0313162691    2.1902746257    0.4245937763
 H   -0.1012021086    2.1291505649   -0.9427709721
 H   -0.7220653727    2.1045877156    0.7101697823
 H    0.9809131742   -1.2992271721   -1.0749345322
 H    3.2981065809   -0.6214922255   -0.7926625774
 H    2.6552901319    1.0052981078   -0.9680973721
 H    5.0744416099   -0.0789550671    0.9370064270
 H    4.4605213487   -0.1113055059    2.6039994041
 H    4.0483202095   -1.4215291046    1.4898181943
 H    3.4978077757    2.0666272307    2.0502593322
 H    1.9874821312   -0.6729398752    2.7445185391
 H    1.3601662091    0.9534879740    2.5002945009
 H    0.0500867545   -1.3345278578    1.4359388849