15

 C   -0.0859551133   -1.2262966200   -0.0518324841
 C   -0.0337808831   -0.0295212213    0.0384323145
 C    0.0326044603    1.4227333866    0.1196037818
 C    1.4652936012    1.9827688083   -0.0008168850
 C    1.5069062899    3.5364890437   -0.0312213021
 O    2.3689896707    3.8914802831    1.0758154347
 C    2.7056070704    2.7137144185    1.6543579137
 N    2.2867843606    1.6218043530    1.1696587371
 H   -0.1282344987   -2.2850839004   -0.1170979153
 H   -0.5795388692    1.8609045025   -0.6802710080
 H   -0.3978261141    1.7677946857    1.0683508498
 H    1.9262955547    1.5529223239   -0.8962481169
 H    1.9397309835    3.9462042658   -0.9466888425
 H    0.5278130930    3.9971481754    0.1381663127
 H    3.3395752440    2.8129572853    2.5286005896