19

 N    0.6453185139    0.9750831321    1.6561515611
 C   -0.0088541123    0.3333981463    0.7800284430
 C   -1.4208701131   -0.1455823483    1.0584490067
 C   -2.4295208338    0.1878280969   -0.0262733651
 C   -2.7314747692   -0.7892863766   -1.1480089435
 C   -3.7512820578   -0.5284221540   -0.0675237197
 N    0.4599645633   -0.0298431737   -0.5065444626
 C    1.6994512024    0.2204251706   -1.0361074041
 O    2.6148043700    0.7790255567   -0.4736748715
 H    1.5818286179    1.1987567397    1.3169600538
 H   -1.4023853901   -1.2346701977    1.2073529935
 H   -1.7091545962    0.3035517095    2.0116647400
 H   -2.4556327019    1.2389226490   -0.3014807434
 H   -2.9217580722   -0.3990744735   -2.1418094771
 H   -2.2365128732   -1.7566413630   -1.1370154433
 H   -3.9238852781   -1.3133195649    0.6613829630
 H   -4.6367769912    0.0410970090   -0.3251859279
 H   -0.2103584081   -0.4750864545   -1.1162327213
 H    1.7789718996   -0.1603077635   -2.0731580516