18

 N    0.2159129973    1.2468907527    0.0895253468
 C    0.1150866998   -0.0973557535    0.1701237365
 O    1.0075297085   -0.8665876989    0.4750138430
 C   -1.3095121734   -0.5998843807   -0.1748050202
 O   -2.1744651777    0.1963149201   -0.4731527209
 C   -1.5166838645   -2.0781758390   -0.0580701434
 C   -1.8273508789   -2.5979642470    1.3938539070
 C   -2.9052611868   -3.5280199854    0.7759566745
 C   -2.8672940386   -2.6742726695   -0.5204723210
 H    1.0906847292    1.7013305186    0.2880935695
 H   -0.5988212910    1.7768489264   -0.1751827727
 H   -0.6412516493   -2.5984035744   -0.4510769488
 H   -0.9937674093   -3.0503652003    1.9319132186
 H   -2.2692472171   -1.8142972272    2.0156790399
 H   -2.5197765863   -4.5379778131    0.6121728882
 H   -3.8596075959   -3.6019253372    1.3017745492
 H   -3.6396055432   -1.9013965939   -0.5374301154
 H   -2.8739569927   -3.2022482476   -1.4762453709