20

 C    0.3021632902    1.7716804773   -0.1993500726
 C    0.0744111839    0.2791808829   -0.0995553983
 C    0.4489934508   -0.7273425303   -1.1311624370
 C    1.4378997654   -0.3696725085   -2.2306943644
 C    2.6789486328    0.1211220953   -1.4844404365
 C    3.9759516549    0.3616736741   -2.1226592078
 O    3.1320904236    1.4560699818   -1.7529217725
 C    2.5127395544   -0.2925455628   -0.0178867990
 N    1.1218131425   -0.7233468226    0.1942723534
 H    1.1439198384    2.0575605517   -0.8297205871
 H   -0.5980002940    2.2457464020   -0.6058678202
 H    0.4686152485    2.1960825309    0.7974476476
 H   -0.8301308490    0.0416559231    0.4599966628
 H   -0.2202568642   -1.5628282551   -1.3213082692
 H    1.6667052868   -1.2636433863   -2.8210085124
 H    1.0807310258    0.4000978182   -2.9209358474
 H    4.8934778057    0.2624708324   -1.5424235261
 H    4.0914067872    0.2005006533   -3.1944601733
 H    3.1570071897   -1.1475742649    0.2168275496
 H    2.7921285663    0.5297742474    0.6479650903