16

 C    0.1655940355    1.4818733385    0.0323113988
 C   -0.0302455200    0.0115104786    0.0010854098
 C   -1.1196838615   -0.8192865743    0.0373153078
 C   -2.5717334065   -0.4855331112    0.1268020945
 N   -0.6758127972   -2.1256990036   -0.0244528925
 C    0.6222724487   -2.0395597147   -0.0934513333
 O    1.0850665778   -0.7653668430   -0.0825186367
 C    1.5599523849   -3.1622223321   -0.1771435418
 O    2.7615740408   -3.0543993910   -0.2401886549
 H    0.7745517004    1.7814334306    0.8921839539
 H    0.6776301390    1.8317487115   -0.8706595485
 H   -0.7981191184    1.9899312603    0.0997796209
 H   -3.1150516889   -0.8805496873   -0.7376440532
 H   -3.0181929462   -0.9309258755    1.0216766410
 H   -2.7326878768    0.5943951007    0.1665871092
 H    1.0363662184   -4.1387234273   -0.1762402552