17

 O    0.3791697401    1.2908258617    0.0557126172
 C    0.0694494985   -0.0660134003    0.0707464287
 C    0.2605698639   -0.8728916952   -1.2365207106
 O   -1.1269466161   -1.2982022531   -1.2254032189
 C   -1.3919510712   -0.5805760627   -0.0109659431
 C   -1.1779808160   -1.4557013071    1.2553762882
 C    0.2639256550   -0.8507551348    1.3968772048
 C    1.4443395231   -1.7649584501    1.5529904808
 O    2.4408711465   -1.7027347401    0.8738836212
 H    1.3393160204    1.3779199969    0.0236727126
 H    0.4713184859   -0.2227538828   -2.0937102098
 H    0.9617712032   -1.7113062353   -1.2215841678
 H   -2.2774057336    0.0558995565   -0.0641754433
 H   -1.8401549345   -1.2388615616    2.0952600403
 H   -1.2171418095   -2.5227628003    1.0267631921
 H    0.2861765350   -0.1409057313    2.2334471732
 H    1.3493857593   -2.5271980503    2.3602182746