19

 C   -0.0341244347    1.4886617522    0.0917564980
 C    1.5186341719    1.4097709992    0.0251845675
 C    2.0180083380    1.1021743272    1.4383611608
 O    1.1194393310    0.2073461684    2.0978138047
 C    0.5531412610   -0.7370334057    1.2153480676
 O    1.5122159472   -1.6713968471    0.7544661817
 C    2.1465785210   -1.1601001614   -0.4267722644
 C    1.3506682867    0.0827269114   -0.8031424588
 C   -0.0007585673   -0.0473944962   -0.0594038646
 H   -0.4801834218    1.9070266481    0.9970934364
 H   -0.4625806833    1.9681914000   -0.7915363261
 H    2.0808531678    2.2301491947   -0.4263632905
 H    3.0333940968    0.6803647297    1.4228776685
 H    2.0426172122    2.0133200668    2.0452676885
 H   -0.1806066772   -1.2880050714    1.8057607773
 H    3.2063389895   -0.9575398826   -0.2235894279
 H    2.0920150330   -1.9259639995   -1.2102479910
 H    1.2896795582    0.2662357779   -1.8766752176
 H   -0.8373206000   -0.5925423518   -0.4998133802