18

 C   -0.3487413658    1.4947652766    0.0922871318
 C   -0.0892575512    0.0226149967    0.0360920013
 C    0.1344351698   -0.7359200325   -1.0393741265
 C    0.3598179600   -2.1899976209   -0.7124713509
 C    0.0011828360   -2.2720451139    0.7967662767
 C   -0.0123605214   -0.8105698032    1.3150002932
 C    1.2692942398   -0.4328768536    2.0392522026
 O    1.3402103194    0.3391387482    2.9604641173
 H    0.3626958798    1.9994908803    0.7563603695
 H   -0.2829271341    1.9516910314   -0.8985523855
 H   -1.3471502332    1.7012355770    0.4985023128
 H    0.1570764622   -0.3569784019   -2.0562427341
 H   -0.2593256994   -2.8591978490   -1.3212971331
 H    1.4004199710   -2.4839345680   -0.9054346479
 H   -0.9949839890   -2.7032857373    0.9247230060
 H    0.6954602027   -2.9049470836    1.3583202182
 H   -0.8432401258   -0.5935655414    1.9951314172
 H    2.1857037193   -0.9084298447    1.6145588312