17

 C    0.1059643468    1.5723422375    0.0076736509
 C   -0.0106554394    0.0488083022    0.0029050543
 C   -1.4245949795   -0.4830613381    0.0129552306
 N   -2.4129960162    0.3667772070    0.0235107605
 N   -3.6559171668   -0.1387908135    0.0321198223
 C   -4.0634760925   -1.4766793709    0.0314568284
 O   -5.2454382415   -1.7728171801    0.0401695253
 C   -2.9266140483   -2.3867481971    0.0195295226
 C   -1.6639412591   -1.9009385191    0.0107134419
 H    1.1583283226    1.8696671424   -0.0000913286
 H   -0.3837996998    2.0079590745   -0.8668291287
 H   -0.3689311437    2.0013148530    0.8935958531
 H    0.5048649796   -0.3642254808   -0.8753925137
 H    0.5197759766   -0.3708881882    0.8690659484
 H   -4.3962001133    0.5507741065    0.0401987908
 H   -3.1510951930   -3.4468415434    0.0182293194
 H   -0.8103537625   -2.5730252218    0.0018018225