19

 C    0.1866461559    0.8692457720    0.8855788797
 C   -0.2608498700    0.3320976325   -0.4744846330
 O    0.6402753611   -0.6425020274   -0.9958638143
 C   -1.6288479225   -0.3279211803   -0.4123770443
 O   -2.1247492426   -0.6848343533   -1.7161949739
 C   -2.2020635836   -2.0808651553   -1.3708650497
 C   -1.7209930442   -1.8179245093    0.0668847033
 C   -0.4599055998   -2.5207263483    0.5274948098
 O   -0.0383497079   -2.4579947871    1.6561739811
 H    1.1816872456    1.3222121529    0.8071454132
 H   -0.4976142068    1.6478092257    1.2375471181
 H    0.2257903034    0.0703586513    1.6302051773
 H   -0.3529089519    1.1643307698   -1.1916264000
 H    1.5398907585   -0.3595348764   -0.8059922644
 H   -2.3281193903    0.3425834402    0.1037484531
 H   -3.2196549928   -2.4744886975   -1.4724321174
 H   -1.5162982808   -2.6876553544   -1.9769696646
 H   -2.4798263324   -1.9531175770    0.8400975751
 H    0.0362556011   -3.1507085881   -0.2405770890