18

 C   -0.2545269098    1.5332896772    0.0162634820
 C    0.0107673173    0.0551991136   -0.0017975974
 C   -0.1324463663   -0.6786568168   -1.1175827268
 C    0.0869499844   -2.1325291020   -1.1802992287
 O   -0.2923220194   -2.8133602066   -2.1156602511
 C    0.7891056968   -2.7506920526   -0.0079160183
 N    2.0963123869   -2.1339801997    0.3430069918
 C    0.9576587893   -1.9563114017    1.2430043413
 C    0.4021039963   -0.5514079667    1.3247977132
 H    0.6578807667    2.0842090770    0.2775110642
 H   -0.6096475520    1.8940705678   -0.9514152744
 H   -1.0008794510    1.7897629424    0.7789007822
 H   -0.4721648361   -0.2229318365   -2.0430999610
 H    0.6975668494   -3.8310979452    0.0466101325
 H    2.7139611603   -2.8603034276    0.6966385742
 H    0.9604754793   -2.5093468642    2.1796897293
 H    1.1372274437    0.0996744668    1.8174486989
 H   -0.4816146858   -0.5440357552    1.9796731179