18

 C    0.0045358047    1.4760088643    0.0075156826
 C    0.0315771437   -0.0578840227   -0.0065188117
 N    0.8385930395   -0.5519920276   -1.1349617193
 C    1.4430835493   -1.8475068642   -0.7933239659
 C    1.6123696877   -1.7656485298    0.7097925660
 N    2.1966225810   -0.4844076235    1.1629543323
 C    0.7384028876   -0.6815915811    1.2039460625
 C   -1.3521045210   -0.5955651873   -0.0425732741
 N   -2.4222126046   -1.0289243830   -0.1153955605
 H    1.0323072839    1.8294721229    0.1047902733
 H   -0.4202033043    1.8631134704   -0.9226924257
 H   -0.5978838854    1.8510855516    0.8400592861
 H    0.3210395669   -0.5666244341   -2.0043650501
 H    0.8047282991   -2.7148221629   -1.0257452672
 H    2.3921720312   -1.9647468559   -1.3280826519
 H    1.7917521575   -2.6699442328    1.2797493757
 H    2.5672291210   -0.6007040029    2.1032990640
 H    0.2113759622   -0.7203660114    2.1499881538