16

 C   -0.3012071634    1.5434378108   -0.0050415418
 C    0.1245158775    0.0560717465   -0.0902315267
 C   -1.1169078705   -0.8045032383    0.1478153961
 O   -1.3951077669   -1.2745516474    1.2172301846
 C    0.6887935817   -0.2279267858   -1.4634274192
 O    0.0444910178   -0.2424482852   -2.4787854184
 O    2.0352404237   -0.4641855978   -1.3987459593
 C    2.7035706008   -0.7284987022   -2.5751993102
 N    3.9419898750   -0.9261199065   -2.5080127432
 H    0.5636626195    2.1962712900   -0.1492753502
 H   -1.0432335329    1.7758579407   -0.7735598713
 H   -0.7309699684    1.7458944067    0.9787509426
 H    0.8615822238   -0.1696925153    0.6815345055
 H   -1.7659547946   -0.9281175154   -0.7444459415
 H    2.0462164830   -0.7323417708   -3.4443729544
 H    4.3147756938   -1.1112263802   -3.4383254125