16

 C   -0.2104126725    1.5362872043    0.0793898845
 C    0.0057085996    0.0361097000    0.0196876419
 C   -1.2221725256   -0.7572192485   -0.3848348369
 N    1.3110181843   -0.3940613977   -0.4719883771
 C    0.9755491441   -0.6561546048    0.9475719820
 C    1.7905393912    0.0704229663    1.9586186850
 O    1.8973820493   -0.2834900566    3.1069906893
 H    0.7230180469    2.0697680968    0.2642413361
 H   -0.6151028578    1.8925602892   -0.8744855894
 H   -0.9266637446    1.7966431692    0.8656127900
 H   -1.5464237427   -0.4687674747   -1.3915821003
 H   -1.0235234555   -1.8334783526   -0.3842505243
 H   -2.0566062030   -0.5674258195    0.2982542047
 H    1.2386599589   -1.2579445519   -1.0044055164
 H    0.7053017841   -1.6641955446    1.2536919346
 H    2.3100888034    0.9733368949    1.5715080263