20

 C   -0.1245420915    1.4842292819   -0.0133941411
 C    0.0167629685   -0.0312206688   -0.0212140122
 C   -1.2803478496   -0.8072071758    0.4383806218
 C   -0.4754324025   -1.4353734202    1.5855987689
 C    0.7340417332   -0.6203496858    1.2311126256
 N    0.7656710091   -2.0595712614    1.1546985895
 C    0.9216880129   -2.7430372581   -0.1402649436
 C    1.0321638851   -1.8368905209   -1.3388656943
 C    0.6252676484   -0.5701957703   -1.2881169754
 H    0.8483996413    1.9687403410   -0.1554507655
 H   -0.7866036041    1.8216276553   -0.8189195915
 H   -0.5400413384    1.8399937724    0.9351828963
 H   -2.0489937618   -0.1224302019    0.8085224378
 H   -1.7318534837   -1.4890529771   -0.2883679861
 H   -0.8690571444   -1.7198135901    2.5555561020
 H    1.4584939545   -0.0943272843    1.8453981831
 H    1.8255400423   -3.3630551728   -0.0751436060
 H    0.0869354423   -3.4468094593   -0.2600103151
 H    1.4895224342   -2.2528958235   -2.2323205670
 H    0.7239286142    0.0908039896   -2.1454724572