23

 C   -1.2465767405    1.6161813113   -0.9640871522
 C   -1.4502592472    0.1289168308   -1.2006757249
 O   -1.2727506674   -0.5400641535    0.0428085887
 C   -1.5926996740   -1.9065146898    0.0449130445
 C   -2.2946069576   -2.3682469501    1.2874607377
 C   -3.0484534103   -2.2839266422   -0.0258066637
 C   -0.5309136624   -2.7946882382   -0.6127800203
 C    0.8376955292   -2.6123733061    0.0411248763
 O   -0.9288771632   -4.1619644138   -0.6321225112
 H   -1.3651495033    2.1708092000   -1.8998071447
 H   -1.9744794444    1.9932029207   -0.2400209278
 H   -0.2440195604    1.8092946098   -0.5715638030
 H   -2.4578002251   -0.0696990399   -1.5939201949
 H   -0.7308420660   -0.2371431293   -1.9484623654
 H   -2.0729890602   -3.3523403304    1.6862779875
 H   -2.4952107972   -1.6089375655    2.0340559650
 H   -3.7684422134   -1.4805743200   -0.1340064844
 H   -3.3023853802   -3.2128461261   -0.5215325498
 H   -0.4613575339   -2.5169080854   -1.6718895479
 H    0.8051553158   -2.9312850364    1.0906846177
 H    1.5932276674   -3.2064477909   -0.4802875874
 H    1.1349730173   -1.5612322414    0.0289536391
 H   -0.7302037929   -4.5358983737    0.2327395010