20

 C   -0.0784753393    1.5459518137    0.1267975821
 C    0.0499831356    0.0417379461   -0.0219642935
 C    1.2144282440   -0.5534958529   -0.8765279775
 C    1.1406492513   -1.7647872078    0.0786269835
 C    0.6053533587   -0.8074956277    1.1658427882
 O    0.1144815713   -2.6774732135   -0.3408889652
 C   -1.1068467263   -2.1383867735   -0.6380918422
 N   -2.0778569605   -2.8553348559   -1.0170078143
 C   -1.2483186821   -0.6282663428   -0.4924723476
 H    0.8643415137    1.9899798453    0.4632021287
 H   -0.3509302300    2.0161214867   -0.8252284488
 H   -0.8527980230    1.8068425845    0.8575542751
 H    1.0440992280   -0.7404107322   -1.9402515431
 H    2.1442154193    0.0055720153   -0.7409674352
 H    2.0210001204   -2.3792827512    0.2647412120
 H    1.4210563338   -0.2960068358    1.6839601245
 H   -0.0994607654   -1.2173036378    1.8943695717
 H   -1.7953007601   -3.8369293153   -1.0548607772
 H   -2.0654334140   -0.4309059235    0.2103470481
 H   -1.5675393154   -0.2232537616   -1.4592433493