15

 O   -0.0211493895    1.4309430304    0.0306988569
 C    1.2730366937    0.8088800413   -0.0003518378
 C    0.0522560941   -0.0032509003    0.0073266914
 C    0.0677559370   -0.6589949656   -1.4047667560
 O    1.4788890843   -0.8394057936   -1.6085828588
 C    1.8595247437    0.5329749336   -1.4160370051
 C    0.9576522527    1.2553634895   -2.4342225928
 O    0.6135434322    0.4429511364   -3.5568889694
 C   -0.2588997254    0.4460602340   -2.4265661887
 H    1.9083303822    0.9816992146    0.8618587992
 H   -0.3450825220   -0.5173928833    0.8760334947
 H   -0.4477026762   -1.6136279846   -1.4929005924
 H    2.9383769661    0.6389519712   -1.5142016280
 H    0.9758578634    2.3301999807   -2.5708145657
 H   -1.2584403564    0.8438478856   -2.5567451974