14

 O   -0.0574379078    1.3801088513    0.2830815280
 C   -0.0627137021    0.0046614512    0.1252051782
 C   -0.4871932662   -0.8458591670    1.2641480842
 N   -1.5764269956   -0.2373180485    2.0240309092
 C   -2.4004797338   -0.1110641762    0.8909407192
 O   -3.4759884179    0.3811734858    0.7319206917
 C   -1.3737762239   -0.8188143398   -0.0072301603
 C   -1.5978550914   -1.7771702749   -1.0255202894
 C   -1.7961920055   -2.5778205777   -1.9017009057
 H   -0.2864229069    1.7902744884   -0.5583428676
 H    0.7347131554   -0.4066418544   -0.4955531063
 H    0.0692279695   -1.6829800099    1.6644666414
 H   -1.4207861843    0.5504249979    2.6435422744
 H   -1.9829356994   -3.2903176064   -2.6665904070