16

 O   -0.3087572813    0.4244885390    0.7195875581
 C    0.1177955172    0.9528610678   -0.2731938852
 C    1.3976293901    1.7578104144   -0.3402130803
 C    1.1497049319    3.1748421332   -0.8927611885
 C    2.4435613329    3.9311455076   -1.0589600604
 O    3.3068318301    3.5144277765   -2.1171521076
 C    2.7280959449    4.8176763679   -2.2103692984
 C    1.7508999172    5.0209861385   -3.2584681151
 N    0.9699244047    5.2060689292   -4.0901348277
 H   -0.4276551502    0.8800284384   -1.2432308869
 H    1.8474106075    1.7817542795    0.6565499911
 H    2.0867718587    1.2380369719   -1.0200974610
 H    0.6343084890    3.1166524268   -1.8571307464
 H    0.5006579005    3.7366885904   -0.2104153165
 H    2.9723398924    4.1732592751   -0.1353936296
 H    3.4248817144    5.6442142937   -2.0842849755