16

 C   -0.0308303837   -1.1953602154    0.0288982217
 C   -0.0215017655    0.0083919035    0.0119873642
 C   -0.0011742244    1.4222546997   -0.0147971077
 C   -0.6900315565    2.5064932737    0.8249319232
 N    0.5733951481    3.2077336448    1.0488538877
 C    1.2173352620    2.3949021772   -0.0326267683
 C    1.0772753088    3.0845980024   -1.3837998297
 O   -0.3389484699    3.2854621777   -1.5265523214
 C   -0.9753258007    2.3792512125   -0.6590581877
 H   -0.0413323995   -2.2567051457    0.0483630665
 H   -1.4349864147    2.3970632987    1.6058036300
 H    0.5199501735    4.1999204238    0.8163042178
 H    2.2065495303    2.0072482090    0.2113119870
 H    1.5682197735    4.0628768721   -1.4227463884
 H    1.4644549002    2.4580072761   -2.2018234111
 H   -1.9419213616    2.0331284599   -1.0040305638