19

 C    0.0813104093    1.5164165280    0.1999132725
 C    0.0233834816    0.0097118105   -0.0816238967
 C   -1.3838801285   -0.5403866964   -0.0880466179
 C   -2.0741477583   -0.9851683753    1.1949955369
 C   -1.7234889495   -1.9961768192    0.1136887287
 N   -2.7028995706   -2.3015190732   -0.8873298302
 C   -3.1470424296   -1.1393223549   -1.5177160195
 O   -4.1232309756   -1.0238663311   -2.2220695048
 N   -2.2380023964   -0.1394569349   -1.1774358713
 H    1.1160917867    1.8700854314    0.2217151217
 H   -0.4420144679    2.0874969584   -0.5745409613
 H   -0.3788146484    1.7566872125    1.1640122206
 H    0.4889551618   -0.2061429133   -1.0505504974
 H    0.6033011709   -0.5274953514    0.6779153872
 H   -1.4687840203   -1.0074303723    2.0950836654
 H   -3.1183955051   -0.7323853202    1.3449400629
 H   -0.9528164697   -2.7388156411    0.2885527324
 H   -3.3853770318   -3.0319340903   -0.7593226886
 H   -2.5552446185    0.8108601428   -1.2840190707