14

 C    0.0416904769    1.4146805288    0.0616716649
 O   -0.0098390018   -0.0054320499    0.0363844410
 C    0.6210882284   -0.6405954418    1.0441129284
 C    0.6923090307   -1.9961381288    1.2080698278
 N    1.4423291927   -2.1576263018    2.3826667331
 C    1.7531133736   -0.9224568616    2.8185637982
 O    2.4771972695   -0.7613485102    3.9402331604
 N    1.2836621196    0.0308520290    2.0500083620
 H    1.0734230749    1.7787304840    0.0102518793
 H   -0.5138713427    1.7480070658   -0.8167602206
 H   -0.4212244285    1.8158807340    0.9696353435
 H    0.3090555595   -2.8257113507    0.6434612482
 H    1.7034921384   -3.0221271645    2.8233186164
 H    2.5787575589    0.1906928676    4.0613261474