18

 C   -0.1291993097    1.4568557326    0.1382026181
 C   -0.0757028385   -0.0510793961    0.2886760522
 O   -1.3236677597   -0.5792794316   -0.1996251746
 C   -1.4477910106   -1.9230283326   -0.1253773487
 O   -0.6046603049   -2.6773602460    0.3064649286
 N   -2.6703769719   -2.3014692127   -0.6067215449
 C   -3.0510068076   -3.6884901842   -0.7128468325
 C   -4.2078048639   -4.0494358898    0.2094510844
 O   -5.0398207429   -4.8779361159   -0.0463522027
 H    0.8049821748    1.8975063276    0.4984310813
 H   -0.2626212361    1.7411159547   -0.9094400720
 H   -0.9551459710    1.8789577169    0.7176874270
 H    0.7458172190   -0.4900481938   -0.2859136021
 H    0.0550637338   -0.3536648633    1.3321818250
 H   -3.2606353137   -1.5820458304   -0.9904681757
 H   -3.3076367026   -3.9772665907   -1.7377746789
 H   -2.1786133228   -4.2760339200   -0.4003659933
 H   -4.2148813516   -3.4743149748    1.1639591988