21

 C   -0.0455588526    1.5429863773   -0.0648156187
 C    1.2704817849    0.7542285567   -0.0543936086
 C    2.2699595753    0.4868781079    1.0462957088
 C    2.5540672619   -1.0590057992    1.1418261046
 C    1.7052625798   -2.0356142645    0.2639029515
 C    0.1587990606   -1.8898414199    0.2500690092
 C   -0.3428167658   -0.8431523614    1.2617250055
 C   -0.0412191660    0.0638654139    0.0778911187
 O   -0.2918877186   -1.0106289763   -0.8431888507
 H   -0.3549880951    2.1090525398    0.8102644693
 H   -0.3183985421    1.9999157852   -1.0101782322
 H    1.6754531095    0.6492910586   -1.0585212095
 H    3.2064944376    1.0307711204    0.8833118619
 H    1.8779998499    0.8453930490    2.0041060484
 H    3.6019628999   -1.2495426942    0.8852099947
 H    2.4567468532   -1.3673010989    2.1890620310
 H    2.0290707002   -1.9818997372   -0.7813337238
 H    1.9518149495   -3.0486718835    0.6038394257
 H   -0.3454176420   -2.8569334789    0.1835000442
 H   -1.4176642630   -0.9265483890    1.4380390412
 H    0.1893638829   -0.7097281460    2.2036116289