18

 C   -0.0128188923    1.6297385461    0.1257228890
 C    0.0251718537    0.1168983095    0.0155017081
 C    1.0726497586   -0.5598507533   -0.9533653752
 C    1.6499738051   -1.3007939154    0.2568609374
 N    2.0904011215   -0.2488460778    1.2044346541
 C    0.6694814623   -0.6643339594    1.1727329623
 O   -1.3033336538   -0.4299475605   -0.1427462962
 C   -1.9427417025   -0.2326202202   -1.3086113663
 O   -3.0601454561   -0.6129164431   -1.5007739625
 H    0.9777494612    1.9931275843    0.4067386660
 H   -0.2979955888    2.0979959113   -0.8217721331
 H   -0.7352043962    1.9335660004    0.8896180619
 H    0.5845803201   -1.2252149109   -1.6671818518
 H    1.7619566868    0.1101686876   -1.4724241729
 H    2.0845029641   -2.2916178816    0.2812048611
 H    2.5163003831   -0.7151530329    2.0046935434
 H    0.1565877938   -1.0402512577    2.0486942802
 H   -1.3351211808    0.3016972135   -2.0618542556