19

 C    0.0745070387   -1.1941892264    0.0197272277
 C   -0.0150475311    0.0082397289    0.0148120682
 C   -0.0543698071    1.4260139384    0.0070670255
 C   -1.1935161221    2.1395552753    0.0361582266
 C   -1.1279128502    3.6463215659    0.0247621258
 C    0.3336036507    4.1237416295   -0.0213086546
 C    1.1181533812    3.3310651942   -1.1082370042
 C    1.2563163764    2.2083789966   -0.0364737841
 C    1.1810929476    3.3444768548    1.0273932602
 H    0.1341914715   -2.2540414879    0.0246286355
 H   -2.1620259986    1.6510445613    0.0677693809
 H   -1.6859514089    4.0394412536   -0.8375140532
 H   -1.6343500090    4.0504371905    0.9134027927
 H    0.3961967224    5.2143483972   -0.0300022830
 H    0.6072686385    3.0807130406   -2.0415690157
 H    2.0813305411    3.7999220314   -1.3262136604
 H    2.1268265223    1.5536656017   -0.0580172259
 H    2.1552614536    3.8156759669    1.1823703599
 H    0.7261503830    3.1060452375    1.9922588882