20

 C    0.3371020785   -0.3993492854    1.4038160856
 O   -0.3051013020    0.0289097812    0.2168376832
 C   -1.4656532266   -0.6824248207   -0.1179504423
 C   -2.6964736282   -0.2900995777    0.6667418406
 O   -3.1616871851    1.0120635274    0.3157944723
 C   -2.6081474691    2.0592338837    0.9589164207
 N   -2.8956127491    3.2366655269    0.6076997027
 C   -1.6142366121   -0.9866224419   -1.5760133565
 C   -1.3140907086   -2.1063292900   -0.6026449209
 H    1.2502941587    0.1926616569    1.4972865966
 H   -0.2784730505   -0.2335088035    2.2997508404
 H    0.6018463680   -1.4643667198    1.3611352429
 H   -3.5201343712   -0.9703565227    0.4367552887
 H   -2.5108969150   -0.3440228990    1.7481809716
 H   -1.9431343247    1.7674152978    1.7822145004
 H   -2.4173194187    3.9026043629    1.2107222574
 H   -2.6035436557   -0.9191130906   -2.0138112405
 H   -0.8058426714   -0.6541778343   -2.2157780582
 H   -0.3101265075   -2.5149185552   -0.6134019341
 H   -2.0917742096   -2.8265426361   -0.3716676407