18

 O    0.0209837587    1.4293107212   -0.5394644996
 C    0.0529726461    0.1422038681    0.0572955653
 C   -1.3140992309   -0.4239390640    0.2431737562
 C   -1.9145071793   -1.7842995420    0.1273792430
 C   -2.8074171461   -1.5413195197    1.3495129526
 O   -2.2470456002   -1.9996868278    2.5568004456
 C   -2.6219021809   -0.0253712632    1.0512436094
 C   -3.2842105477    0.1112326047   -0.3216242194
 N   -2.1992568612   -0.7490006323   -0.9197330410
 H   -0.4128024348    1.3223390021   -1.3938104941
 H    0.6476119927   -0.5678395650   -0.5389851635
 H    0.5584249709    0.2682832141    1.0211110397
 H   -1.4706159417   -2.7125638707   -0.2115635170
 H   -3.8328982808   -1.9233125127    1.3330388547
 H   -1.3113834852   -1.7643830444    2.5610718659
 H   -2.7251764517    0.7037940484    1.8521341939
 H   -4.3038063499   -0.2728255259   -0.4457251644
 H   -3.2085323080    1.1098504790   -0.7572697774