19

 O    0.0099233831    1.0199668493   -1.2809658671
 C   -0.2657698990    0.6560088935    0.0683986437
 C   -1.4833167137   -0.2622887314    0.1269439535
 C   -1.3419884784   -1.6916920606   -0.4283122169
 C   -0.4701499039   -2.5445973451    0.4521919317
 C   -1.8920418475   -2.2873304210    0.8673962232
 C   -2.0267471313   -0.8672299158    1.4732154436
 C   -1.3083976561   -0.7082395959    2.7833484018
 O   -0.2626218584   -0.1325962588    2.9590053576
 H    0.3252574481    0.2308534433   -1.7328422988
 H    0.6074111565    0.1994289938    0.5471397612
 H   -0.4681099091    1.5901135362    0.6004113705
 H   -2.3044920004    0.2519151422   -0.3810055965
 H   -1.5872167793   -1.9884914847   -1.4408159729
 H   -0.2792600883   -3.5457916074    0.0798641448
 H    0.3562696724   -2.1157628429    1.0124972939
 H   -2.6122422324   -3.0845755219    0.9994681907
 H   -3.0800078836   -0.6113954110    1.6319682494
 H   -1.8174243086   -1.2282888421    3.6298445565