20

 C    0.0278040904    1.8349648200    0.5405512147
 C   -0.0504333025    0.3701950394    0.1055985414
 N    0.6079145785   -0.5497442477    1.0256069228
 C    0.1467072235   -0.6361760512    2.4044142877
 C    1.6901342868   -1.2893217604    0.6367453928
 O    2.3087790355   -2.0585964264    1.3392718464
 C   -1.5079524045   -0.0709762310   -0.1740582841
 C   -1.7248929013   -1.5315773061   -0.5224455465
 O   -2.4148170422    0.7258046641   -0.1379157251
 H    1.0697054388    2.1242954795    0.7013786652
 H   -0.4060056964    2.4753166200   -0.2296921051
 H   -0.5365016116    2.0108661399    1.4592529476
 H    0.4747371621    0.2583669459   -0.8541887309
 H   -0.9374667421   -0.7873224320    2.4429875825
 H    0.6519854613   -1.4840154810    2.8667754536
 H    0.3882193260    0.2712820600    2.9681057136
 H    1.9458266648   -1.1085815116   -0.4265553782
 H   -1.0239248686   -1.8586813017   -1.2979063223
 H   -1.5426178086   -2.1660466858    0.3509073791
 H   -2.7511382997   -1.6719810940   -0.8629946252