16

 N    0.0714910398   -1.1627299048   -0.0765979899
 C    0.0389425161   -0.0055120886   -0.0409549608
 C   -0.0110817671    1.4160616287    0.0306115090
 C    0.2950901691    2.2919433953   -1.1678206696
 C    1.1690605107    2.4340971366    0.0306806452
 C    0.4463356514    3.2251828816    1.1451101061
 O   -0.4562133543    4.2668253618    0.7074847788
 C   -1.6064790390    3.3837489621    0.8307660924
 C   -0.6952733321    2.1954068420    1.1880564908
 H    0.7356642965    1.7596524966   -2.0032399630
 H   -0.3811216132    3.0931797192   -1.4413911722
 H    2.2282319626    2.2107410507    0.0072765655
 H    1.0501066380    3.5110573861    2.0078904045
 H   -2.2606067809    3.7034682904    1.6499090744
 H   -2.1884005076    3.3199951043   -0.0951470714
 H   -0.9170321201    1.5970767580    2.0682911001