19

 O    0.1580877288    1.4033093912    0.1683918196
 C    0.0295310636    0.0232610060   -0.0011736125
 C   -1.3823728441   -0.6482576695   -0.0791694040
 C   -2.3250874490    0.2045650062   -0.9449651425
 C   -1.6341405698    0.5974068823   -2.2337699332
 C   -0.3767024057    0.1979533550   -2.4538796443
 C    0.3068229246   -0.6365397298   -1.3960277434
 C   -0.7056426985   -1.7425090770   -0.9409239558
 O   -0.1577931081   -2.7290720008   -0.0915131969
 H   -0.2061939371    1.8242702058   -0.6207230598
 H    0.6321160220   -0.4520514188    0.7720441164
 H   -1.8518652272   -0.9787453942    0.8494377491
 H   -3.2494148030   -0.3472693814   -1.1618146229
 H   -2.6347994270    1.1009763089   -0.3897651886
 H   -2.1783413956    1.1997870326   -2.9557577104
 H    0.1553208376    0.4588907342   -3.3634790181
 H    1.3256472337   -0.9312107097   -1.6558161542
 H   -1.3085560050   -2.1847082949   -1.7446148405
 H    0.4394810498   -3.2739952659   -0.6141733680