19

 C    0.1957120765    1.1555693635   -0.7668746201
 C   -0.1702421848    0.1993446737    0.3527560642
 O    0.5353310547    0.0445130729    1.3273586439
 C   -1.4467735022   -0.5685228040    0.1859258052
 C   -2.7120205806   -0.2616865530   -0.6458851138
 C   -2.9992333616   -1.6314639043   -0.0045740480
 C   -1.5205259550   -2.1164030688   -0.1740354507
 C   -1.4026038303   -2.5411468699    1.3010535528
 C   -2.2647228043   -1.2634065509    1.3332878251
 H    1.1719247325    1.6008017383   -0.5713703827
 H    0.2079695974    0.6324408122   -1.7298338252
 H   -0.5609343711    1.9445983642   -0.8481847245
 H   -3.3255187404    0.5812826281   -0.3106794956
 H   -2.5985918085   -0.2446219154   -1.7349358131
 H   -3.8875775270   -2.2584825433   -0.0915225564
 H   -1.0890579616   -2.5668137374   -1.0701243851
 H   -1.9054556299   -3.4748702662    1.5729582304
 H   -0.4147783711   -2.4730999600    1.7592707709
 H   -2.6999765326   -0.7432031497    2.1875686925