20

 C    0.0647258332    1.6555586601   -0.1821858363
 C    0.0282978850    0.1373049616    0.0244008555
 C    0.6888653627   -0.6727125751   -1.1261468356
 C    1.3793848463   -1.8829984223   -0.4522280491
 C    1.5217892410   -1.4327721317    0.9863191421
 C    2.3769705579   -2.1769101704    1.9812778520
 C    1.9622723020   -3.5743705853    2.1467587943
 N    1.6268636328   -4.6740690883    2.2624067909
 C    0.7871861278   -0.3501586311    1.2386188659
 H    1.0965326222    2.0126173592   -0.2736719631
 H   -0.4721169028    1.9393621972   -1.0934430811
 H   -0.4012865719    2.1841048121    0.6562339988
 H   -1.0261583474   -0.1613758064    0.1312760063
 H   -0.0252688674   -0.9658824405   -1.8996009904
 H    1.4467952691   -0.0445137192   -1.6076420171
 H    0.7676252529   -2.7937339738   -0.5060929706
 H    2.3409840901   -2.1348806072   -0.9155161151
 H    3.4272616845   -2.1807387551    1.6583799953
 H    2.3460974415   -1.6856951834    2.9593346335
 H    0.6986429703    0.1271748596    2.2100882338