20

 N   -0.0050907425    1.3608353715   -0.0482221276
 C    0.0166857155    0.0999526036    0.0263004870
 C   -1.2402200261   -0.7314583599    0.0332654624
 C   -1.4257632728   -1.6816939262    1.2343483658
 C   -0.2978957269   -2.7136848201    1.4017393779
 C    0.9613405652   -2.1128199368    2.0037026400
 C    2.3213814567   -2.3544080659    1.3760248006
 C    1.6735225846   -1.0105376300    1.2678884650
 O    1.2002184370   -0.6332098695   -0.0051237968
 H    0.9518444891    1.7203618230   -0.0908267403
 H   -2.0861694557   -0.0443779730   -0.0382376526
 H   -1.2256380703   -1.3361514423   -0.8841362435
 H   -1.5304506132   -1.0964689377    2.1563893664
 H   -2.3782918710   -2.2043575552    1.0904845195
 H   -0.6400013491   -3.5329629595    2.0440519025
 H   -0.0734533258   -3.1621990505    0.4272259165
 H    0.9390767794   -2.0064684466    3.0853447863
 H    3.1933457714   -2.4568755157    2.0121743364
 H    2.3443981614   -2.9513815147    0.4707430014
 H    2.0854635331   -0.1794558146    1.8373198631