19

 N   -0.2078037762   -1.1909396940    0.0907376167
 C   -0.1415607760   -0.0375795715    0.0460697265
 C    0.0118461785    1.4389318057   -0.0156428448
 N    1.3804697153    1.9081173410   -0.0175983147
 C    2.1467853916    1.5012765547   -1.1965870865
 C    3.4358900671    2.3219850814   -1.2854864873
 C    4.1398161334    2.3562998774    0.0434095619
 C    3.5248270889    2.0273175266    1.1758963910
 C    2.0782698535    1.6273446165    1.2370179466
 H   -0.4970954607    1.7931816081   -0.9188499191
 H   -0.5186186923    1.8676433122    0.8424766850
 H    2.3928552883    0.4247683131   -1.1722422087
 H    1.5261959819    1.6698278060   -2.0830937173
 H    4.0896942179    1.8887802366   -2.0522419630
 H    3.2075798310    3.3440289011   -1.6172784260
 H    5.1840108256    2.6567667497    0.0551295492
 H    4.0559429353    2.0307889200    2.1233360458
 H    1.5743121692    2.1845376948    2.0393451298
 H    2.0089990276    0.5575494006    1.5188154448