17

 C    0.1311467836    1.2969594810   -0.3584884288
 C    0.2782536993   -0.1409228505    0.0630472050
 O    1.6046448660   -0.6290967363    0.3135515775
 C    0.6781010749   -0.5939205353    1.4169429883
 C    0.9797060447    0.3398303243    2.5624300665
 C    0.1660397689   -1.9599756824    1.8562161694
 N    0.5639770310   -2.9820918069    1.0529316446
 O   -0.5548734046   -2.0878766675    2.8281269401
 H    0.7835317228    1.9603258850    0.2111689536
 H    0.3853391204    1.4012026171   -1.4184923006
 H   -0.9059155500    1.6239842400   -0.2293400586
 H   -0.3322001476   -0.8410765108   -0.5102488617
 H    1.2023329145    1.3505849497    2.2198510339
 H    0.1228270301    0.3599032957    3.2388874505
 H    1.8422923238   -0.0279600910    3.1273598421
 H    1.2877165476   -2.8154055835    0.3729103663
 H    0.3217490446   -3.9218537288    1.3186146221