16

 N    0.1161032532   -1.0886150547   -0.0226430291
 C    0.0410903674    0.0661530913   -0.0286165046
 C   -0.0542553164    1.4966087550   -0.0206824599
 C   -1.2163898930    2.1871414507    0.6209102498
 C   -1.3164879498    3.4247153821    0.1302328499
 C   -0.1443410525    3.6968526549   -0.7834874175
 C    1.1483782724    3.7478425105    0.1317249295
 C    1.3216855168    2.2564675780   -0.1101057497
 C    0.3493884456    2.2871506267   -1.2530796649
 H   -1.8239018246    1.7246358035    1.3867651471
 H   -2.0139898320    4.1866321855    0.4545167507
 H   -0.2574587977    4.4926600151   -1.5166191579
 H    1.9522673550    4.2936604164   -0.3681571465
 H    1.0246313851    4.1162661330    1.1539632167
 H    2.2280528053    1.6759420301    0.0070699521
 H    0.4009439652    1.8749699120   -2.2529366256