17

 C   -0.0751808462    1.5573570108   -0.1438322319
 C   -0.0136398473    0.0294909723   -0.0028054475
 C    1.2075605190   -0.6086846678   -0.7372652640
 O    1.9190075695   -0.7643309988    0.5022397734
 C    0.7490002339   -0.4437638442    1.2731822574
 C   -1.3036247940   -0.5788039925   -0.2554577655
 C   -2.3781712999   -1.0826755365   -0.4865753239
 C   -3.6636372691   -1.6875914382   -0.7228641986
 O   -4.1376421416   -1.8844927873   -1.8183242076
 H    0.9140556528    1.9832367254    0.0482714435
 H   -0.3892926555    1.8421056255   -1.1518037248
 H   -0.7840493702    1.9863353883    0.5700759583
 H    0.9900937484   -1.5708100319   -1.2160256168
 H    1.7315096805    0.0458550846   -1.4423819287
 H    0.9424609207    0.3284179790    2.0260424164
 H    0.3127300212   -1.3280319629    1.7534384982
 H   -4.2080195221   -1.9699150757    0.2013716720