20

 O    0.0405786053    1.4561769977   -0.1011291196
 C    0.0068293566    0.0335301086    0.0114737359
 C    0.7484503075   -0.4461378285    1.2659573394
 C    0.0484147186    0.0487523322    2.5407256559
 C   -1.4453159348   -0.1387997029    2.4704155763
 C   -2.0994767504   -0.4036453621    1.3369276777
 C   -1.4253033002   -0.4899750748    0.0152811012
 C   -2.2052532330   -0.3504469630   -1.2439800019
 N   -1.7812174388   -1.6838031577   -0.7974897761
 H   -0.6037002056    1.8119616694    0.5205750539
 H    0.5201859060   -0.3299920356   -0.8869597213
 H    0.7666291777   -1.5429958635    1.2601854145
 H    1.7840886221   -0.0954994761    1.2344604151
 H    0.4456126703   -0.4779492342    3.4163237438
 H    0.2849998307    1.1090770850    2.7120760206
 H   -2.0004197573   -0.0574581151    3.4017919464
 H   -3.1738561140   -0.5664700692    1.3439316593
 H   -3.2770275378   -0.1743498843   -1.1997912033
 H   -1.7034031236    0.1130384507   -2.0895136547
 H   -0.9685286193   -1.9840856668   -1.3325865132