14

 O   -0.0243985327    0.0163516263   -0.4285084572
 C   -0.0608239453    1.1707964270   -0.1458274293
 C   -1.1776827666    2.1878975991    0.0968304801
 C   -1.5157527378    2.3165610222    1.6062849926
 O   -0.4376360421    3.2589686923    1.8139012969
 C   -0.0944180779    3.2613374683    0.4292286143
 C    1.0539525302    2.2594763259    0.0748740291
 C    2.1078568888    2.0189496089    1.0353815845
 N    2.9378175376    1.8121589388    1.8126894428
 H   -1.9834847758    2.2673506071   -0.6300056718
 H   -2.4894665822    2.7809795978    1.7934857263
 H   -1.4150655000    1.4139614175    2.2167256200
 H   -0.0290201879    4.2600222012   -0.0038100591
 H    1.4792144118    2.4994911874   -0.9083181693