17

 C    0.1882727319    1.3933472845   -0.6255359115
 C    0.0413060370    0.0231032497   -0.1549240123
 C   -0.0803811715   -1.1063870579    0.2431284727
 C   -0.2231620495   -2.4825291817    0.7125349315
 C   -1.5044036223   -3.1466116366    0.2740511409
 N   -2.1305493188   -3.9858825610    1.0961916685
 N   -3.1909994280   -4.4217887017    0.3878046584
 C   -3.2597218226   -3.8810844873   -0.8522250831
 C   -2.1741010753   -3.0412248744   -0.9672511471
 H    0.8919922189    1.4567577389   -1.4631173706
 H   -0.7694270789    1.8020563233   -0.9667491778
 H    0.5613898820    2.0490774572    0.1691347872
 H    0.6333454394   -3.0732726331    0.3567933151
 H   -0.1791156544   -2.5220096344    1.8068329616
 H   -3.8302333885   -5.0681415653    0.8173125605
 H   -4.0580267883   -4.1263731300   -1.5348800496
 H   -1.9020660111   -2.4300454502   -1.8115610144