18

 C    0.1442524640    1.4486986798    0.2453406918
 C   -0.1425650631   -0.0221686227   -0.0845566851
 C    0.5786960268   -0.5037257569   -1.3079273432
 C    1.9978448121   -1.0075195532   -1.3719252888
 C    0.8285293673   -1.9120910284   -1.8073205763
 O    0.5206784681   -3.0915303244   -1.1773600245
 C    0.3682684064   -1.4208079085   -3.1792314550
 O    0.2542528201   -1.8773690312   -4.2800838916
 N    0.1231917074   -0.1281373664   -2.6620977062
 H    1.2124129716    1.6140712263    0.4199491569
 H   -0.1683566700    2.1049207493   -0.5737241898
 H   -0.3973913857    1.7588119013    1.1436009864
 H    0.1495369825   -0.6595721154    0.7577897970
 H   -1.2181383889   -0.1679130264   -0.2360896748
 H    2.7011897630   -0.6102358296   -2.0982868581
 H    2.4348276510   -1.3160632017   -0.4253817130
 H    1.1479903592   -3.7655993185   -1.4618917822
 H    0.4531231282    0.7029909765   -3.1425400234