15

 O    0.2292087546    0.3144725291   -0.7461847302
 C    0.3052538827    1.4866219058   -0.5313027982
 O    0.9358212909    1.9942636689    0.5418985132
 C    1.0392516109    3.4241686442    0.6491475695
 C    2.3954454606    3.9072301722    0.2132490512
 C    2.6611538988    4.2206976902   -1.2377838204
 C    2.5599606694    5.3388842554   -0.2319531404
 H   -0.1435006754    2.2693830392   -1.1756583974
 H    0.2490422928    3.9021686428    0.0541944035
 H    0.8533494762    3.6521408255    1.7025886748
 H    3.2171342280    3.4731941981    0.7746974749
 H    3.6357025255    3.9736681280   -1.6424988270
 H    1.8457883517    4.1016181289   -1.9441618382
 H    1.6765327591    5.9686270895   -0.2614555842
 H    3.4640807443    5.8617933122    0.0575281091