23

 C    0.0270362196    1.4060520185   -0.4577271209
 C    1.3146261374    0.7250386862   -0.0491992619
 C    2.1690500629    1.1687354321    1.1460822361
 C    1.9684371837    0.4196222315    2.4787545205
 C    0.8375281853    1.0066404647    3.3393621988
 O   -0.2819198080    1.4633633522    2.6035263397
 C   -1.2255213899    0.4845466840    2.2182311835
 C   -0.7382909394   -0.5575713725    1.2049156333
 C    0.0004088403   -0.0409667345   -0.0245192626
 H   -0.3622920427    2.1395436115    0.2379576226
 H   -0.1365409844    1.6449399559   -1.5035768309
 H    1.9328185989    0.4282378417   -0.8926601347
 H    3.2153120531    1.0393924260    0.8490570584
 H    2.0412302115    2.2436260006    1.3197764442
 H    1.8145201312   -0.6459873330    2.2846791483
 H    2.8878851468    0.4872631714    3.0738545848
 H    0.5223174217    0.2893890383    4.1145525580
 H    1.2132162988    1.8991683561    3.8528902123
 H   -1.6152622435   -0.0363464350    3.1092411638
 H   -2.0531575912    1.0542676823    1.7827785812
 H   -0.1344844309   -1.3217261796    1.7085106841
 H   -1.6398423946   -1.0836285972    0.8623285043
 H   -0.0727786267   -0.7505892110   -0.8456473633