20

 C    0.2659371926   -0.9849350915    1.9057684381
 C    0.0619463424   -0.4612625554    0.4783069096
 C   -1.3422464904   -0.6803490266   -0.0673854754
 C   -2.4619312980    0.0717825912    0.6523321594
 C   -2.3360990145    1.5257250787    0.5243067613
 N   -2.2238355279    2.6707861495    0.4162103486
 C   -1.5083346765   -0.8821918746   -1.5630771754
 C   -1.7040813170   -2.0378525765   -0.6103099239
 O   -0.7355619755   -3.0393054805   -0.5111009153
 H    1.2995512968   -0.8244184925    2.2266134953
 H   -0.3770254525   -0.4755533988    2.6315256945
 H    0.0577980715   -2.0574261143    1.9558332782
 H    0.2925440289    0.6102999807    0.4332085298
 H    0.7698802154   -0.9644052876   -0.1850346560
 H   -3.4379577963   -0.2207857203    0.2497768554
 H   -2.4758987437   -0.1810067062    1.7185905857
 H   -2.3765298175   -0.4635858329   -2.0617834071
 H   -0.6007497352   -0.8814880496   -2.1572770253
 H   -2.7263843571   -2.3830745917   -0.4480137602
 H   -0.7564743554   -3.5587973810   -1.3215059571