18

 C   -0.0419495719    1.3878708777   -0.0184418739
 O   -0.0355500746   -0.0366528339   -0.0637535859
 C    0.6733350631   -0.5523395857   -1.1302601965
 C    0.0678471993   -0.4736007114   -2.5736340398
 C    0.2839359256   -2.0127332888   -2.7388828817
 C    0.8991415902   -2.0762234736   -1.3284684543
 O    2.3465755182   -1.8481577264   -1.3606148610
 C    2.1960691923   -0.4946747715   -1.1210995280
 N    3.0518954151    0.4050159467   -0.9456770745
 H    0.9758373667    1.7856033900    0.0542870476
 H   -0.5313240868    1.8134089798   -0.9058790619
 H   -0.6133904222    1.6663346217    0.8689359537
 H   -0.9886094497   -0.2005878747   -2.5308194714
 H    0.5814677188    0.1803679696   -3.2797527380
 H   -0.6490025580   -2.5730826363   -2.8301374712
 H    0.9674547820   -2.3273441347   -3.5290030645
 H    0.6300485382   -2.8522830009   -0.6141978951
 H    4.0029114136    0.0334181423   -0.9901496436