16

 C    0.0137817746    1.5716887973    0.0155889044
 C    0.0259147351    0.0494665783    0.0656582392
 C    0.7392226764   -0.6322678724   -1.1458839646
 O    1.5366420183   -1.7295011234   -0.6207954513
 C    1.6451435459   -1.5017159381    0.7032304789
 C    2.2743905939   -1.9705333451    1.8288116673
 N    1.8099470147   -1.2171194809    2.8779572110
 N    0.9449525163   -0.3298008769    2.4673307106
 N    0.8578366599   -0.5002105344    1.1259802179
 H    1.0291322715    1.9642143637   -0.0911244817
 H   -0.5884447583    1.9166722344   -0.8303621925
 H   -0.4184610480    1.9770459274    0.9333553548
 H   -0.9971470838   -0.3293764016    0.1784256243
 H    0.0449769356   -1.0435592455   -1.8795621351
 H    1.4151937521    0.0752761287   -1.6391726183
 H    2.9958071157   -2.7571308014    1.9607457752