17

 O    0.3205915671    0.0696351744   -0.1199804721
 C    0.2050051875    1.2496216166   -0.2134459208
 O   -0.7969088980    1.9510488028   -0.8335535619
 C   -0.2141189010    3.2349268364   -0.4352401725
 C    0.9570956075    2.5042641242    0.2509417288
 C    1.1504668172    2.6612594757    1.7604030813
 C    2.1287033914    1.6472630050    2.3121890208
 C    3.5491732539    1.9681160559    2.5057894095
 O    2.6468999836    1.9199453275    3.6128536855
 H    0.0280412200    3.8384728933   -1.3116503786
 H   -0.8930861943    3.7737589458    0.2295350919
 H    1.9087255947    2.6170110260   -0.2769359138
 H    1.5121377994    3.6700426952    1.9883149885
 H    0.1854366542    2.5441686223    2.2696298434
 H    1.8601369205    0.6050626080    2.1404921055
 H    4.2944165724    1.1750842778    2.4731357347
 H    3.9167502538    2.9613648831    2.2483104999