19

 C    0.0373173768    1.5398645918    0.0032252887
 C    0.0556462796    0.0045907892    0.0105430982
 C   -1.3325153634   -0.5804050567    0.0367012649
 C   -2.3270606572   -0.3800529651    1.2229591494
 C   -2.9713801443   -1.6942009058    0.7750718197
 C   -3.0172673467   -1.6941672199   -0.7609023397
 C   -1.7540294282   -2.1180807926    0.0280913178
 C   -2.2561362940   -0.4875362022   -1.2011488223
 O   -2.1907605540    0.1427154960   -2.2219564787
 H    1.0548861167    1.9404311424   -0.0216049975
 H   -0.5002721666    1.9102316468   -0.8734247737
 H   -0.4548919035    1.9357595483    0.8979518439
 H    0.5771379764   -0.3574130733   -0.8841366772
 H    0.6238377008   -0.3617992455    0.8751782982
 H   -1.8266490018   -0.4947429043    2.1892324934
 H   -2.9357010355    0.5310395986    1.2233437856
 H   -3.6705783212   -2.3175112191    1.3184017175
 H   -3.6931803044   -2.3268015887   -1.3193056278
 H   -1.1948639396   -3.0359086898   -0.0691337204