19

 C    0.2131526801    1.1537213514    0.0813961766
 N   -0.1994118853   -0.1309640388    0.6133157598
 C   -1.4198073152   -0.6442175593    0.1546342176
 C   -2.4009021563    0.0216944122   -0.5426334174
 N   -3.4609247574   -0.8689475754   -0.7143560198
 C   -3.1384586500   -2.0645652506   -0.1540458299
 O   -4.0515052383   -3.0576546993   -0.2384448865
 C   -3.6677057686   -4.2749662068    0.3752419667
 C   -1.8827102493   -1.9807960100    0.4037771796
 H    1.2065922952    1.4029236718    0.4628486262
 H    0.2379329500    1.1909087910   -1.0214016891
 H   -0.4800233367    1.9311494310    0.4229998268
 H    0.5391489150   -0.8196181471    0.5676052155
 H   -2.4570895691    1.0279778713   -0.9176284334
 H   -4.3229746855   -0.6860111924   -1.1947341492
 H   -4.4947944620   -4.9712485925    0.2291029445
 H   -2.7590394687   -4.6814291783   -0.0871688809
 H   -3.4882330669   -4.1368549260    1.4491296174
 H   -1.3560523810   -2.7534890023    0.9392030957