16

 C    0.1157328329    1.4789270738    0.2765777683
 C   -0.0231633089    0.0013100582   -0.0196717161
 C    0.5435451373   -0.5610686447   -1.2844330616
 N    1.1752624380   -0.8711671358   -0.0008023563
 C   -1.2322640519   -0.6266036569    0.5546800640
 N   -2.1621668692   -0.0508838049    1.2635859130
 C   -3.0222532747   -1.0947365763    1.4951799147
 N   -2.6689166329   -2.2365250714    0.9743400203
 O   -1.4605416385   -1.9270708086    0.3366053552
 H    1.0109691952    1.8758330646   -0.2113249574
 H   -0.7526695741    2.0356906245   -0.0851593958
 H    0.1936221232    1.6554670093    1.3531673883
 H    0.0541162184   -1.4028416846   -1.7640789426
 H    1.0227964048    0.1435107492   -1.9593899330
 H    1.9992896192   -0.2902760595    0.1383714514
 H   -3.9339124689   -0.9994940968    2.0669827274