15

 C   -0.5282316557    1.3992274611    0.4234296169
 N   -1.0192480607    0.0334532454    0.3855253145
 C   -1.2260339818   -0.5659563525   -0.7959594100
 O   -1.0386774453   -0.1093959790   -1.8895277209
 O   -1.7176952866   -1.9010022899   -0.7431037939
 C   -2.0229856189   -2.6271644223    0.3533732021
 N   -1.9119745028   -2.2119262989    1.5535328866
 C   -2.4912011505   -3.9326538914   -0.0187388511
 C   -2.8883164723   -5.0355055397   -0.2837846661
 H   -0.3042409059    1.6569263438    1.4600040425
 H    0.3811444565    1.4999054719   -0.1753836732
 H   -1.2695613514    2.1054373967    0.0339958447
 H   -1.2494931525   -0.4845755148    1.2285213884
 H   -2.1998228867   -2.9284197968    2.2138051364
 H   -3.2386055955   -6.0091643735   -0.5269802469