23

 C    0.0301126953    1.5843033755    0.2433361876
 C    0.0011308717    0.0615392275    0.0286098458
 C    0.8414318101   -0.6612068114    1.0916529939
 C   -1.4077515331   -0.4556826881   -0.0021316737
 C   -2.4367706251   -0.7479033276    1.0705403306
 C   -3.4922279128    0.1112960601    0.3812608812
 C   -2.6676613778   -0.1053194145   -0.9165456353
 C   -2.8149065564   -1.6225654770   -1.2107698817
 C   -2.0119860626   -1.8407251243    0.0677017715
 H    1.0561538399    1.9655004682    0.2077681466
 H   -0.5489040318    2.1059736278   -0.5252306259
 H   -0.3936016730    1.8465683403    1.2192445710
 H    0.4564102123   -0.1441021966   -0.9522593681
 H    0.8513379452   -1.7429498953    0.9273113897
 H    1.8771351745   -0.3075742538    1.0712721935
 H    0.4457334330   -0.4747511775    2.0964561275
 H   -2.2702049180   -0.8850117662    2.1319511795
 H   -4.5356341377   -0.2276205473    0.3753837596
 H   -3.4469740571    1.1489368821    0.7237936792
 H   -2.6958479000    0.6245843534   -1.7239670540
 H   -3.8330124455   -2.0252587233   -1.2788855795
 H   -2.2437422972   -1.9226553805   -2.0941143801
 H   -1.5408121340   -2.7512819814    0.4174817811