19

 C    0.2308773260    1.4893352691    0.2941836671
 C   -0.0039560394    0.0012987184    0.1268724625
 O   -1.3997730659   -0.1694829717    0.0790096767
 C    0.6712287362   -0.7910924290   -1.0817280488
 C    2.0743466913   -1.4854197697   -0.9045220331
 C    3.0715472897   -1.1147350110    0.2085957559
 C    2.0830280340   -0.6394275865    1.2663366169
 C    0.8312066409   -1.0294957334    0.9437598075
 C    0.8579728621   -2.0204412953   -0.2381114325
 H    1.2811127174    1.7465458093    0.1493795440
 H   -0.3719926612    2.0279487864   -0.4426389224
 H   -0.0833574796    1.8209690151    1.2884911764
 H   -1.5807932635   -1.1157031337    0.0508367470
 H    0.2420159713   -0.7500275412   -2.0813291833
 H    2.4403805333   -1.9373466365   -1.8254937034
 H    3.6989651417   -1.9825795097    0.4565636338
 H    3.7520509186   -0.2903143760   -0.0385475645
 H    2.2851762231    0.2685614240    1.8262134182
 H    0.4119871539   -3.0040371587   -0.3074083579