19

 C   -0.2745345275    1.5139515496    0.1175188863
 C   -0.0321164015    0.0140264160   -0.0044498706
 O   -1.2124552659   -0.6754345762   -0.3539377166
 C    1.1435601870   -0.3629138749   -0.9457345373
 C    2.0673108411   -0.5619965531    0.2860017755
 O    2.8154201694    0.5892028510    0.6478421680
 C    0.7992186465   -0.6271531089    1.1702922799
 C    0.8134111123   -0.0123368207    2.5430508352
 O   -0.1561288123    0.4932245322    3.0560916957
 H    0.6579980868    2.0427533478    0.3289223849
 H   -0.6907080953    1.8886380889   -0.8231597002
 H   -0.9736221785    1.7296475106    0.9308730063
 H   -1.9183480573   -0.3633682610    0.2234378206
 H    0.9338493552   -1.3066871040   -1.4547912189
 H    1.4569941916    0.3882942675   -1.6760959995
 H    2.7068042182   -1.4527859132    0.2733274365
 H    3.4542293193    0.7651763046   -0.0504443312
 H    0.4742849498   -1.6693469756    1.2739228984
 H    1.7839025710   -0.0654276706    3.0819062769