18

 C    0.1241456361    1.3593894872   -0.0379013739
 O    0.1642643527   -0.0597820922    0.0393535965
 C    0.6631541472   -0.6095974979    1.2287752451
 C   -0.1639410878   -0.2575776834    2.4575090037
 C    0.8106111149   -2.1263254525    0.9551628032
 N    2.2087942058   -2.2008620008    0.6030982925
 C    2.9132958275   -1.0943531319    0.9964240741
 O    4.0979194556   -0.9140005486    0.9778048670
 O    2.0099915815   -0.1604083332    1.4515889862
 H    1.0892372208    1.8007706842    0.2300681965
 H   -0.1050205553    1.5994094735   -1.0779347274
 H   -0.6608719192    1.7839425690    0.6009091617
 H   -1.2014589932   -0.5690541303    2.3072299231
 H    0.2379026219   -0.7623950469    3.3386380753
 H   -0.1420208393    0.8174090275    2.6471850402
 H    0.5642197773   -2.7215081711    1.8436564277
 H    0.1518379211   -2.4138752489    0.1327768818
 H    2.7026888323   -3.0579771237    0.4255391565