18

 O    0.8189041923    0.2894851604    0.4450899655
 C    0.0805968307    1.1779696754    0.1219447735
 C   -1.4404364050    1.1767606435    0.1733934073
 N   -1.9698145474    2.3966405424    0.7669624177
 C   -1.5206632050    2.6992365529    2.1228157701
 C   -0.1300245434    3.2206109048    2.4856119232
 C    1.0608362118    3.3564587779    1.8933877108
 C    1.5464204910    2.9654407515    0.5270594107
 O    0.4998498925    2.4185929831   -0.2699003680
 H   -1.8422969115    1.0762326688   -0.8410947951
 H   -1.7585741815    0.3004593489    0.7456341353
 H   -1.7564713478    3.1762484595    0.1554802209
 H   -2.2194255850    3.4461180819    2.5247413951
 H   -1.6953993794    1.8011007386    2.7339459855
 H   -0.1529118920    3.5671960884    3.5203272566
 H    1.8543871574    3.7976488039    2.4964454038
 H    1.9245242513    3.8354683969   -0.0200611261
 H    2.3663940509    2.2414418013    0.6147084732