17

 C    0.0736482603    1.5378438524   -0.2668012066
 C   -0.1023950977    0.0943972835    0.1222876878
 O    1.0314372611   -0.7890584793    0.0380538049
 C    0.4509816215   -0.5580771247    1.3203860269
 C    1.3202556780    0.0693918686    2.3833345967
 C    2.3609041195   -0.8608102276    3.0481429548
 O    3.4404491336    0.0301452083    2.6286372244
 C    2.5768433481    0.8762354239    1.9932460655
 O    2.8459991758    1.8787407093    1.4142705965
 H    0.9743009758    1.9774326714    0.1619621541
 H    0.1292105427    1.6204745109   -1.3573549054
 H   -0.7981999886    2.1143656651    0.0627540672
 H   -1.0136492216   -0.3655004192   -0.2676859651
 H   -0.1115801599   -1.4112834172    1.7112870439
 H    0.7058738903    0.6141042033    3.1072983369
 H    2.3272800302   -0.9423869136    4.1359031466
 H    2.4728790709   -1.8434427252    2.5853719109