18

 C   -0.1012375909    1.4869535479    0.2203523131
 N   -0.0635873761    0.0602792586   -0.0979997145
 C    0.8515144446   -0.6393814658    0.8038374511
 C   -1.4206400865   -0.5110310721   -0.1560697086
 C   -2.1162508725   -0.0446118774   -1.4616018968
 O   -1.3069295803   -0.3069058712   -2.5759451147
 C   -1.3869054987   -1.9808882014   -0.1407609819
 N   -1.4105634044   -3.1355468872   -0.1186363886
 H    0.9157229236    1.8854078224    0.1832744781
 H   -0.7001274758    2.0361333247   -0.5086849439
 H   -0.5114381920    1.6858306094    1.2268751109
 H    0.5393027133   -0.5809748070    1.8612344226
 H    0.9318775575   -1.6906030170    0.5244510222
 H    1.8419459962   -0.1843714185    0.7175234635
 H   -2.0340691801   -0.1985436483    0.7101220531
 H   -3.0577685389   -0.5881856613   -1.5835271634
 H   -2.3635532926    1.0240735506   -1.3665664320
 H   -0.4005026363   -0.1300255067   -2.2829321801