20

 C   -0.0832355959    1.5998283937   -0.0534187134
 C   -0.0325238595    0.0699212026   -0.0766553301
 C   -1.4118730547   -0.5700001432    0.0404160596
 C   -1.3582397695   -2.0880643791   -0.0328654702
 O   -2.6395249569   -2.6952784728    0.2015502027
 C   -3.4752015370   -2.1412330758    1.1235464040
 N   -4.4301630240   -2.7844517545    1.6456133194
 C   -3.2999412545   -0.6639801508    1.4190698314
 O   -1.9668755401   -0.2106919778    1.2991093769
 H    0.9231785887    2.0247156548   -0.1054438593
 H   -0.6554468736    1.9894150454   -0.9025075221
 H   -0.5592862786    1.9531774992    0.8642563891
 H    0.4344900649   -0.2803320671   -1.0053667399
 H    0.5876997100   -0.2968757531    0.7500103244
 H   -2.0673685687   -0.1946870449   -0.7663425389
 H   -1.0452038228   -2.4319130230   -1.0223678449
 H   -0.6484116794   -2.4656881954    0.7146864597
 H   -4.4429081849   -3.7448025963    1.2947944606
 H   -3.9567897059   -0.1049411925    0.7304264225
 H   -3.6317862775   -0.4678949595    2.4387030586