21

 C    0.1310710411    1.5945371493   -0.1662093919
 C    0.0140764415    0.1023853669    0.0412607680
 O    0.9315924887   -0.6747954262   -0.8152224679
 C    1.0347651740   -1.6561846228    0.2588879062
 C    2.2766404128   -2.2914160720    0.9289731833
 C    2.1251140954   -1.5450441258    2.2951456177
 C    2.0421892721   -0.0914784745    1.7691816410
 C    0.6614286301   -0.5852771501    1.2634677111
 C    0.5662715331   -1.4041777001    2.5765954742
 H    1.1447741396    1.9447111543    0.0438352539
 H   -0.1149146666    1.8535024051   -1.2007664956
 H   -0.5674630622    2.1222240973    0.4920825577
 H   -1.0167701769   -0.2387033925   -0.1372343352
 H    0.2470469896   -2.4078467440    0.1068543957
 H    2.1936963870   -3.3795992793    0.9935305614
 H    3.2299200020   -2.0459297179    0.4536844799
 H    2.8029744317   -1.8271082006    3.1017048551
 H    1.9419500397    0.6520907051    2.5641891008
 H    2.7831287825    0.2275869602    1.0328996564
 H   -0.0566159160   -2.3030192842    2.5661288567
 H    0.3888287209   -0.8271977182    3.4872079914