17

 C   -0.0013509020    1.5128714342   -0.1666374258
 N   -0.0055140841    0.0701635304   -0.0523853443
 C   -0.0472516333   -0.8271653494   -1.0703830050
 N   -0.0392566443   -2.0721825319   -0.6412734614
 C    0.0101703222   -1.9685208284    0.7253955174
 N    0.0300331854   -3.1398373425    1.4746638763
 C    0.0775972114   -3.2408082450    2.8346516537
 N    0.1110259312   -2.2248925276    3.6111594676
 C    0.0323373773   -0.6546579151    1.1270241722
 H    0.9064533210    1.9366242311    0.2741692334
 H   -0.0371630407    1.7858129228   -1.2231121031
 H   -0.8708523852    1.9467642614    0.3370452071
 H   -0.0823911650   -0.5175794585   -2.1044778861
 H    0.0057553279   -3.9833205350    0.9257255994
 H    0.0830212480   -4.2875648591    3.1602662028
 H    0.1434975312   -2.5321035786    4.5800145442
 H    0.0698646689   -0.2068969887    2.1016298316