15

 C   -0.0643614004    1.5617443975   -0.0065584967
 C    0.0921587056    0.0594988313    0.0442708410
 O    1.1496560206   -0.4610351712   -0.8185009688
 C    1.7057092169   -1.2065882399    0.2515958065
 C    2.2178351781   -0.3205014546    1.3294067965
 C    0.7232801351   -0.6268182813    1.2720723800
 C    0.0043871893   -1.2355170388    2.3357604318
 N   -0.5963488193   -1.7225256057    3.1978070915
 H    0.8490721156    2.0757732318    0.3025657407
 H   -0.3064570365    1.8752969005   -1.0265815850
 H   -0.8829195120    1.8732749864    0.6501925169
 H   -0.8466143861   -0.4425552522   -0.2156415995
 H    2.0113699417   -2.2297864363    0.0688252780
 H    2.7301970942   -0.8179062645    2.1460550885
 H    2.5760828373    0.6746705470    1.0868629287