23

 C   -0.6125870173    1.0030391991   -1.4211155335
 C    0.2381812920   -0.1751489797   -0.9730095072
 C    1.7571601738   -0.1746827047   -1.3215898875
 C    2.0892974744   -0.6585003923    0.1223252832
 C    3.2409798322    0.0131044238    0.8557352485
 C    0.6389649182   -0.3076730343    0.5074083593
 C    0.1866503706    0.5966886065    1.6295082785
 C   -0.2124746340   -0.8488336837    1.6158948769
 O   -1.5666205498   -1.1093400903    1.3623700983
 H   -0.1657000372    1.9534052566   -1.1094643286
 H   -0.7119996665    1.0210672982   -2.5122458570
 H   -1.6182357963    0.9456883492   -0.9917033769
 H   -0.2287904610   -1.1086633339   -1.3153200294
 H    2.0828242929   -0.8078301686   -2.1507995013
 H    2.1251579549    0.8422948012   -1.4952609051
 H    2.2307124220   -1.7468304433    0.1382836786
 H    3.1249352278    1.1023376400    0.8582905054
 H    3.3063083794   -0.3191225465    1.8983239664
 H    4.1979080356   -0.2210057458    0.3761443561
 H    0.9145162324    0.9215071078    2.3660778116
 H   -0.5963987265    1.3164008706    1.4148276484
 H    0.2531373963   -1.5115401722    2.3478792773
 H   -1.6172996239   -1.9012269476    0.8160192980