21

 C   -0.3609156572    1.2584137502    0.0101615651
 C    0.1502415185   -0.1811147012   -0.1450866532
 C    1.0770751016   -0.3116155926   -1.3626495788
 C    0.8523022107   -0.6420946506    1.1219931610
 C    0.0537711060   -1.1021565692    2.3270775180
 C    0.8587775671   -2.0881679299    1.5438735410
 O    0.1073782443   -3.0243943782    0.7901051358
 C    0.8011610105   -3.9200419352    0.0598907020
 O    0.2708013812   -4.7337428266   -0.6344619787
 H    0.4697885293    1.9546833439    0.1762167477
 H   -0.8914799877    1.5841180234   -0.8903752183
 H   -1.0459863519    1.3485696922    0.8587078863
 H   -0.7143861001   -0.8367132234   -0.3041680056
 H    1.9692219965    0.3153193318   -1.2453380358
 H    1.4110404286   -1.3437666193   -1.5075439331
 H    0.5675816499    0.0054269976   -2.2780850349
 H    1.7728054823   -0.1030830167    1.3406988529
 H    0.3803534946   -0.8400225318    3.3269430224
 H   -1.0222387425   -1.1671706889    2.2027339230
 H    1.7556410441   -2.5139632607    1.9854079450
 H    1.8966526543   -3.8229608146    0.1878466584