13

 N   -0.0809978399   -3.7873704522   -0.1650958071
 C   -0.0542286623   -2.6269804250   -0.1128265447
 C   -0.0231460445   -1.2639880933   -0.0520620821
 C    0.0026965802   -0.0562444803   -0.0000869889
 C    0.0452943793    1.3817418325    0.0747131944
 C   -0.0991153654    2.0628811765    1.4692252630
 O    1.0951701336    2.8328705710    1.2570833685
 C    1.4337540324    2.0900163708    0.0748221336
 H   -0.6335612921    1.8176230096   -0.6630708978
 H   -0.9842391973    2.6919301413    1.6045901620
 H   -0.0050207095    1.3681012839    2.3122537010
 H    2.2774648945    1.4085027497    0.2359466723
 H    1.6396972411    2.7383801456   -0.7823144842