6

 O    0.0029355305   -0.0651970155    0.0027724031
 C   -0.0133825672    1.1361776600    0.0066838599
 C    1.2043551853    1.9484701259    0.0005879903
 N    2.1698535337    2.5842697159   -0.0042705309
 C   -1.2527321226    1.9150408255    0.0179336562
 N   -2.2351431619    2.5243365681    0.0268262514