20

 O   -0.3262828480    1.3654742989   -0.4281612996
 C   -0.0863742045   -0.0176908153   -0.2178112567
 C   -1.4392346181   -0.6918534710   -0.0237184707
 C   -1.3314420315   -2.1841080769    0.2793546556
 C   -2.6883645542   -2.9112071590    0.3643699004
 C   -2.8850186280   -3.4282294211   -1.0672258852
 C   -1.4687826375   -3.5807979177   -1.5776718428
 N   -1.1107938626   -4.2612768271   -2.5787737274
 O   -0.6179918283   -2.8625191661   -0.7827245651
 H    0.5126827396    1.7872378978   -0.6346409269
 H    0.4330998281   -0.4741167938   -1.0716138227
 H    0.5403160367   -0.1833570650    0.6748669342
 H   -1.9588901061   -0.2029601182    0.8091214874
 H   -2.0493982254   -0.5307794214   -0.9205312124
 H   -0.7337183778   -2.3324430827    1.1850232662
 H   -2.6196187090   -3.7481331088    1.0651447505
 H   -3.4885257841   -2.2511432936    0.7051898641
 H   -3.4281357916   -4.3706962215   -1.1380722297
 H   -3.4114089165   -2.6994922069   -1.6931571525
 H   -0.1015852511   -4.1860856306   -2.7188865066