19

 C   -0.0780203475    1.6854738218   -0.0501256317
 C    0.0391182259    0.1603915912   -0.0105478917
 O    0.8143274170   -0.2691590484    1.1048487438
 C   -1.3492505748   -0.4989803629   -0.0194403580
 C   -1.5280880588   -2.0411111177   -0.0598014763
 C   -0.3226325034   -2.9540367547   -0.0633548391
 O   -2.1734076740   -1.9836338806    1.2727065883
 C   -1.9909509437   -0.6378551794    1.3615158540
 O   -2.2320273863    0.0781847649    2.2855004332
 H    0.9160544430    2.1345822577    0.0177147685
 H   -0.5519857542    2.0247067817   -0.9767153548
 H   -0.6837215333    2.0426609784    0.7902478867
 H    0.5991052177   -0.1868398867   -0.8868480249
 H    0.4178285640    0.1095086638    1.8996575125
 H   -2.0052515789    0.0147337591   -0.7277131370
 H   -2.2767630571   -2.3673309463   -0.7872488518
 H    0.4276690202   -2.6159686477    0.6521721227
 H   -0.6287016669   -3.9749475516    0.1828898685
 H    0.1260983313   -2.9696450527   -1.0625773530