19

 O   -0.0588988607   -0.0312365051   -0.1372420734
 C   -0.0398695350    1.1724363816   -0.0468148886
 C   -1.3009249641    2.0853871473   -0.0559358619
 C   -0.8772458238    3.3658752057   -0.8279865771
 C    0.6338247857    3.4257790488   -0.6362565765
 C    1.1612822350    3.3193203235    0.7469634548
 C    1.1435583251    2.0641491194   -0.1054685859
 C    2.3078514610    2.0749637944   -1.1101208825
 C    1.7713042923    3.4386694803   -1.6776992490
 H   -2.1294017658    1.5471911278   -0.5195477718
 H   -1.6033012079    2.3055471752    0.9746986985
 H   -1.1052083339    3.2463008983   -1.8927382284
 H   -1.4021600875    4.2630890086   -0.4837276532
 H    2.1383756208    3.7277781031    0.9885988353
 H    0.4473780985    3.3735548707    1.5607376462
 H    3.3105616253    2.0867444348   -0.6737566359
 H    2.2507778467    1.2574636871   -1.8305081855
 H    1.3984631511    3.3406158628   -2.6999845195
 H    2.4518757171    4.2948450056   -1.6367802254