13

 C   -0.1186613917    1.4361023526    0.1396899094
 N   -0.0929375843    0.0648733942   -0.3785292183
 C   -1.1636090618   -0.7522356182   -0.1130628180
 C   -1.3119502950   -2.0241892750    0.2709316567
 O   -2.6730337519   -2.3402650146    0.2214480019
 C   -3.3394700814   -1.2215733904   -0.1505555808
 O   -4.5157256490   -1.0990133516   -0.2700503003
 O   -2.4136208619   -0.2246894617   -0.3714690225
 H    0.7380912384    1.9763485748   -0.2677642105
 H   -1.0296121641    1.9289263475   -0.2031689651
 H   -0.0850262215    1.4861415224    1.2373334688
 H    0.7861518729   -0.4082867578   -0.2215654141
 H   -0.6323090788   -2.8023311321    0.5626041926