29

 C    0.1056144617    1.5922311748    0.0503837997
 C   -0.0185844179    0.0657751274   -0.0017640837
 C   -1.4618868360   -0.4712910684   -0.0733844020
 C   -2.1693492169   -0.0289077268   -1.3630609108
 C   -1.4621222271   -2.0051132308    0.0894558236
 C   -2.8450795542   -2.6378357376    0.2899189964
 C   -2.8417508012   -4.1707894362    0.4507881092
 C   -2.1247172019   -4.6309933116    1.7282725515
 C   -4.2765402685   -4.7155652694    0.4180171223
 H    1.1500370338    1.8940414915    0.1786608006
 H   -0.2604896232    2.0676294722   -0.8644676160
 H   -0.4639179948    2.0062536029    0.8904664408
 H    0.5478634983   -0.3184708368   -0.8618738087
 H    0.4640881025   -0.3563514920    0.8890408219
 H   -2.0140070641   -0.0467560253    0.7795681769
 H   -1.6527838584   -0.4297344343   -2.2442691491
 H   -3.2055150350   -0.3765936933   -1.3991088490
 H   -2.1926273894    1.0602873098   -1.4587503002
 H   -0.9803876676   -2.4575132858   -0.7901735457
 H   -0.8235958478   -2.2552145618    0.9453037165
 H   -3.3258653254   -2.1887848485    1.1718514517
 H   -3.4876677314   -2.3896401794   -0.5633396387
 H   -2.3028189862   -4.5935405976   -0.4100961229
 H   -2.1515527881   -5.7219809936    1.8204633901
 H   -1.0745915309   -4.3259274554    1.7469733339
 H   -2.6103989270   -4.2119958509    2.6183262362
 H   -4.7898728272   -4.4348530035   -0.5078711820
 H   -4.2898285413   -5.8081809879    0.4916978098
 H   -4.8639560952   -4.3206802917    1.2559653876