18

 C   -0.5119249688    1.0893835375   -0.1645448454
 O    0.5192916807    0.1477112243    0.0847178684
 C    0.9413635131   -0.5304465990   -1.0462992038
 C    1.9392177676   -1.6886868599   -0.8129263943
 C    0.7606047644   -2.5186695279   -0.2164791766
 C    0.1843742337   -1.8460954803   -1.5052345639
 C    1.5196321477   -2.2248816813   -2.2126126795
 C   -1.1473760453   -1.9578213198   -2.0383646873
 N   -2.2212323706   -2.0308394475   -2.4638053827
 H   -0.2021020578    1.8290101241   -0.9171087146
 H   -1.4325351323    0.6013202162   -0.5095104307
 H   -0.7094105107    1.6022343064    0.7786559116
 H    1.1754400369    0.1606505609   -1.8689395030
 H    2.9496439716   -1.6006219798   -0.4185693585
 H    0.8599990734   -3.6050740941   -0.2582583914
 H    0.3472120556   -2.1727382896    0.7288447457
 H    1.7974477503   -1.6283936281   -3.0851343149
 H    1.6700457506   -3.2913922422   -2.3842525990