16

 O   -0.1620777328   -0.0855025647    0.0008700791
 C   -0.0924078783    1.1140906786    0.1162288126
 C   -1.2467251548    2.1666777002    0.0343149192
 C   -0.5955993486    3.5230371498    0.2699118074
 C    0.7031353317    3.2736810569    0.4348945854
 C    2.1335969147    3.6200087049    0.7473998824
 C    2.5967353302    2.7609181191    1.9218286923
 C    2.4372177323    2.1118723077    0.5824666653
 N    1.0143609738    1.9104481109    0.3061575298
 H   -1.7349665210    2.0764224043   -0.9431742778
 H   -2.0039784100    1.9167594400    0.7863545593
 H   -1.1097755899    4.4711011718    0.2907188239
 H    2.6914380048    4.4762609764    0.3983620770
 H    3.6215367255    2.9468898677    2.2298053272
 H    1.9106478184    2.5186252861    2.7270094527
 H    3.2086580341    1.6012884004    0.0235267743