17

 N   -0.0464603001    1.4508725755   -0.0230093350
 C    1.2777403767    0.8307080495    0.0224212372
 C    2.1168223232    0.8925581260    1.2679945878
 N    1.5640987521    1.6211666414    2.4166239246
 C    1.6948841305    0.1621480749    2.5097080126
 C    0.4412579421   -0.6621722998    2.4947715059
 O   -0.8132339545    0.0032269747    2.3680278976
 C   -0.3580754844   -0.7662382332    1.2508234508
 C    0.0339570201   -0.0136763660    0.0120098549
 H   -0.2716953028    1.7839753896    0.9165768655
 H    1.8443088549    0.9170801343   -0.9015922467
 H    3.1860911090    0.9653422275    1.0874114984
 H    2.2979344531    2.0819686703    2.9459478444
 H    2.4843714082   -0.2399310183    3.1396691161
 H    0.4337757354   -1.5029011212    3.1879730774
 H   -0.9264124335   -1.6787954434    1.0762427093
 H   -0.2571043099   -0.5019965018   -0.9147146507