17

 C    0.1911136027    1.2991383684    0.1856960982
 O    0.0988435319   -0.1031133398    0.1012230658
 C    0.5599797038   -0.5990374685   -1.1451190206
 C    0.4974637908   -2.0747191921   -1.1669774695
 C   -0.2617339068   -2.9958468355   -1.7999274069
 N    0.1335022167   -4.2815560095   -1.4448447898
 C    1.1149852493   -4.0730797488   -0.6188248407
 N    1.9133906093   -5.0062453717   -0.0095409682
 O    1.4127968761   -2.7783966284   -0.3901542556
 H    1.2291826183    1.6502627638    0.0691548114
 H   -0.4252131965    1.7987229197   -0.5793169886
 H   -0.1710196287    1.5901970475    1.1744682382
 H   -0.0592920952   -0.2158547347   -1.9723617372
 H    1.5928796038   -0.2536292104   -1.3234918574
 H   -1.0747711986   -2.8266946022   -2.4889568516
 H    1.4974754200   -5.9254232268    0.0108810879
 H    2.3045456531   -4.7172773110    0.8749414047