21

 C   -0.1779482949    1.5718549939   -0.0280664604
 C    0.0208154546    0.0571874286   -0.0166307856
 O   -1.2498781276   -0.5814808371    0.1590288878
 C    0.7644530564   -0.5003136988   -1.2838248118
 C    1.8891910555   -1.3493748379   -0.6610283045
 C    1.2286598534   -1.9146063429    0.6025712790
 C    0.9041993611   -0.4988689722    1.1329063339
 C    2.3104489236    0.1142393403    1.0593346361
 O    2.8799022799   -0.4447885340   -0.1389240412
 H    0.7589616204    2.1139096729   -0.1798375915
 H   -0.8484869325    1.8546468960   -0.8489239880
 H   -0.6338362386    1.9077496696    0.9084383545
 H   -1.8184033782   -0.3079602769   -0.5687749025
 H    0.0765577080   -1.1072350903   -1.8815290928
 H    1.1804471039    0.2872986805   -1.9171242909
 H    2.3887772389   -2.0442720600   -1.3366994279
 H    0.3350035044   -2.5081898984    0.4107978576
 H    1.9281420812   -2.4698090331    1.2322763191
 H    0.4266084531   -0.4244138282    2.1101158856
 H    2.3226353727    1.2073252880    0.9976351335
 H    2.9148325246   -0.1810585700    1.9277533099