14

 O    0.0724714327    1.3436114827   -0.0565670805
 C    0.0507012162   -0.0043686833   -0.0129054205
 C    0.0335408157   -0.7030317458   -1.2210771089
 C    0.0109336811   -2.0901956459   -1.2185562277
 C    0.0049143694   -2.8102692310   -0.0199654935
 C    0.0217986940   -2.1274142774    1.1846615549
 C    0.0447496219   -0.7246188971    1.1997476204
 C    0.0627009817    0.0196315701    2.4148373324
 N    0.0781484094    0.6957778601    3.3569731120
 H    0.0826189148    1.7024109726    0.8417768061
 H    0.0383766110   -0.1360818839   -2.1444462280
 H   -0.0022253439   -2.6200830369   -2.1651257000
 H   -0.0127978495   -3.8934197034   -0.0308431510
 H    0.0176238153   -2.6597575608    2.1285797342