20

 C    0.2977266426    1.5354287586   -0.3091025683
 C    0.0447477629    0.0638453509   -0.0401207905
 C    0.8399185444   -1.0277950829   -0.7758219716
 C    2.1144314913   -0.7261274680   -1.0927899897
 C    2.9829009504   -1.1469355674    0.0877665817
 N    1.9960033721   -1.4168739667    1.1751732531
 C    0.8301050695   -1.9270876519    0.4802008471
 C    0.6411414592   -0.6816522000    1.2475513154
 C    0.1073628714   -0.4509297587    2.6331326976
 H    1.3646570512    1.7752289481   -0.2731272292
 H   -0.0803479067    1.8268946079   -1.2949239418
 H   -0.2184077863    2.1518119113    0.4349424471
 H   -1.0358871916   -0.1273075155    0.0139686761
 H    2.3915615851    0.1334171363   -1.6952863642
 H    3.5949148219   -2.0530529363   -0.0155512276
 H    3.6582880604   -0.3211037689    0.3424740012
 H    0.4368412154   -2.9298175937    0.6091727203
 H    0.4308379443   -1.2478128617    3.3063360575
 H    0.4628258399    0.5022409535    3.0402302514
 H   -0.9882407375   -0.4215650547    2.6214806144