21

 C    0.2577219760    1.3830775656    0.3683696256
 C    0.0484467175   -0.0867909221    0.1761991532
 C    0.3393016088   -0.8085977187   -0.9137834812
 C   -0.0322460334   -2.2620453035   -0.7897616617
 C    1.1519564197   -3.2431216510   -0.5353825668
 C    0.9246379607   -3.0986947025    0.9974760252
 O    1.9028361488   -2.3596825932    1.6974954021
 C   -0.4420633446   -2.3700997667    0.7164845872
 C   -0.5872186720   -0.9417870780    1.2604082147
 H    0.8926196639    1.5853703997    1.2402919680
 H    0.7205268729    1.8470544775   -0.5068866055
 H   -0.6961167821    1.8918877614    0.5591240101
 H    0.7873884046   -0.3981904458   -1.8145550152
 H   -0.7486157240   -2.5797495091   -1.5547301321
 H    0.9557949780   -4.2558781275   -0.8991401786
 H    2.1392831021   -2.9323575570   -0.8910618306
 H    0.8298149301   -4.0397026613    1.5450225292
 H    2.0862077864   -1.5633114602    1.1860819391
 H   -1.2994973354   -3.0108684821    0.9299786558
 H   -0.0788725511   -0.8235888054    2.2252589699
 H   -1.6360132169   -0.6556041502    1.4195500518