18

 C    0.0624060565    1.5362766750    0.2235965730
 C    0.0151693695    0.0405830699   -0.1212332576
 C   -1.3712891600   -0.5332087593   -0.0525017566
 C   -2.0586907730   -1.0178596415    1.2122382024
 C   -1.9227876279   -1.9387099084    0.0429928329
 O   -2.9649443713   -1.6890325846   -0.9145395237
 C   -2.4509117692   -0.3532683293   -1.1348852921
 C   -3.4560635651    0.6968756550   -0.9498017418
 N   -4.2302937263    1.5409904999   -0.7961115968
 H    1.0850931270    1.9188188958    0.1594226480
 H   -0.5578368740    2.1230310636   -0.4618429901
 H   -0.3063913948    1.7163181474    1.2379997914
 H    0.4283986461   -0.1222402049   -1.1253553679
 H    0.6601479573   -0.5178312939    0.5678277952
 H   -1.3739686982   -1.2039759246    2.0344423272
 H   -3.0414716354   -0.6557786472    1.5005519917
 H   -1.4589778979   -2.9174843725    0.0339531008
 H   -2.0233175430   -0.2734727604   -2.1416823761