19

 C   -0.2253559195    1.5993202733   -0.0515915326
 C   -0.0124936444    0.0871351921   -0.0120265431
 C   -1.3456525054   -0.6551632446   -0.1954258896
 N    0.8989017032   -0.3220774564   -1.1051640193
 C    1.7494702976   -1.1236463267   -0.6013577952
 N    1.6268897571   -1.4356799772    0.7466494723
 C    0.6975917093   -0.4379898551    1.3144054553
 C    1.4001308163    0.5647264386    2.1112701278
 C    2.0001275857    1.3575718795    2.7880429038
 H    0.7240800411    2.1315565722    0.0347081424
 H   -0.6883224674    1.8734061685   -1.0034429278
 H   -0.8799536264    1.9286886028    0.7616265014
 H   -1.7656486841   -0.4267084647   -1.1783505311
 H   -1.2009873734   -1.7380134369   -0.1311169262
 H   -2.0679242080   -0.3544672491    0.5713951530
 H    2.5312517680   -1.6114434090   -1.1779553343
 H    2.4712770640   -1.6227070484    1.2696529146
 H   -0.0409644826   -0.9352337283    1.9523426504
 H    2.5212588889    2.0687868094    3.3803509484