25

 C   -0.1541054413    1.5477128570   -0.0303720407
 C    0.0038579471    0.0269468500    0.0012657781
 C    0.7041369465   -0.5982254542   -1.2502165333
 C    1.6871768795   -1.6646466007   -0.6911113380
 C    1.0853268126   -1.9855096959    0.6920387068
 C    0.7774665164   -0.5689840838    1.2095769344
 C    2.1080281625    0.1397513034    1.5418643467
 C    3.0719738269    0.2108993454    0.3400562726
 C    3.1026702115   -1.0901566700   -0.4848008808
 H    0.8065057623    2.0637532796   -0.1249574036
 H   -0.7742074484    1.8560386296   -0.8792065862
 H   -0.6390822308    1.9143444686    0.8813170545
 H   -1.0072578213   -0.3969600303    0.0553147838
 H   -0.0339124115   -1.0574722273   -1.9149114487
 H    1.2272992161    0.1594562976   -1.8437577133
 H    1.7421254968   -2.5449786774   -1.3387046764
 H    0.1640920444   -2.5723782832    0.5954693614
 H    1.7715172593   -2.5448981327    1.3369925742
 H    0.1477921694   -0.5768728381    2.1061655820
 H    1.9230316683    1.1501308275    1.9246014625
 H    2.5832061145   -0.4133641670    2.3626845674
 H    2.7679642823    1.0342588996   -0.3158315228
 H    4.0810343055    0.4644840731    0.6839030825
 H    3.7158403932   -1.8455430131    0.0240493689
 H    3.5837737681   -0.8997629976   -1.4519360321