14

 C    0.0716651845    1.4242813342   -0.0210658299
 N    0.0238974151   -0.0192944238    0.0501978992
 N   -0.0930756334   -0.7826719832   -1.0692510375
 N   -0.1123114689   -2.0297891504   -0.7544831703
 N   -0.0058753672   -2.0857749783    0.6011202517
 C    0.0489559057   -2.9801904876    1.6544688263
 C    0.1675587538   -2.1601777592    2.7579923941
 N    0.1897359455   -0.8095806689    2.4454662142
 C    0.0824392815   -0.8335672301    1.1381556531
 H    1.0131021624    1.7929782701    0.3949373472
 H   -0.0032141488    1.7020183801   -1.0719982098
 H   -0.7609944352    1.8587241778    0.5386210001
 H   -0.0007401853   -4.0457626430    1.5242012957
 H    0.2401401602   -2.4807500478    3.7869613960