18

 C    0.3138287960    1.4391776047   -0.0009023321
 C    0.0294975218   -0.0356499676   -0.0385455902
 C   -0.1685865148   -0.7363070652   -1.1597208643
 C   -0.4736210353   -2.2217096712   -1.1387907407
 C    0.2771455971   -2.8499470420    0.0287466827
 O    1.0273626448   -3.7902726744   -0.0655936886
 N    0.0237716894   -2.1979410201    1.2455696254
 C    1.0756531866   -1.4504599599    1.9147553374
 C   -0.0909707613   -0.7497268796    1.2647653635
 H    1.2745994242    1.6467436401    0.4857035683
 H    0.3395163113    1.8668969723   -1.0063128083
 H   -0.4507636700    1.9744925822    0.5764747050
 H   -0.0971125895   -0.2505183143   -2.1294027617
 H   -1.5529349119   -2.3975060359   -1.0331930172
 H   -0.1489196473   -2.7168643511   -2.0556854979
 H    1.1148850040   -1.5431921201    2.9966583480
 H    2.0399494491   -1.4065639491    1.4155290906
 H   -0.8607734942   -0.3669049289    1.9374775301