18

 C   -0.3850073120    1.2435954247    0.1615644770
 N    0.4759977828    0.1051553270   -0.1542754892
 C    0.9589778998   -0.5670684778    1.0126416121
 C    0.1986164173   -1.5708288554    1.8530508179
 N   -0.6783642911   -2.3414625370    0.9223466724
 C    0.4823088369   -2.9205954502    0.3095188724
 N    0.6894145582   -3.8854818099   -0.4725617664
 C    1.4336052901   -2.0084001743    1.0541556901
 O    2.6801380042   -2.3851749728    1.4938826663
 H    0.1944765012    1.9997278525    0.7032208995
 H   -0.7374276156    1.6986162595   -0.7682818396
 H   -1.2610115873    0.9847040629    0.7789490644
 H   -0.0383036335   -0.5524385270   -0.7305013595
 H    1.6174846341    0.0541743120    1.6191214361
 H    0.0258281161   -1.5435951886    2.9204649839
 H   -1.3284707175   -2.9962207613    1.3418041294
 H   -0.1822187313   -4.3510035757   -0.7349090695
 H    3.3212019176   -2.1684245087    0.8071266828