20

 C    0.0242406902    1.6027783309    0.0535120713
 C   -0.2105966834    0.1060541586   -0.1661425188
 C    0.7320271711   -0.4663227048   -1.2408814111
 O    2.0705547956   -0.1940275508   -0.9096619448
 C    0.5825642464   -1.9803157510   -1.4464774309
 O    1.5404445881   -2.7133649038   -1.2817932155
 N   -0.6212155131   -2.4359519093   -1.9581908959
 C   -1.8787437034   -2.5913015628   -1.2382354289
 C   -1.1046155063   -3.7776536737   -1.7236927347
 H    1.0621153881    1.7871241110    0.3387273773
 H   -0.1808804152    2.1710778426   -0.8606213622
 H   -0.6283639572    1.9885298990    0.8424267972
 H   -0.0426210080   -0.4375071030    0.7723152803
 H   -1.2497845523   -0.0660359766   -0.4662438553
 H    0.4815450468    0.0072243375   -2.2051950714
 H    2.5090091474   -1.0605505385   -0.8999019983
 H   -1.8791596651   -2.3995815399   -0.1692652199
 H   -2.7688304277   -2.2613453614   -1.7664755533
 H   -1.4417802057   -4.3150174403   -2.6048418930
 H   -0.5647633962   -4.3713764136   -0.9917617121