13

 N    0.0752776308   -1.1455295321   -0.0304055894
 C    0.0098033834    0.0108488183   -0.0086000871
 C   -0.0299185247    1.4293271572    0.0000909874
 C   -1.1292075969    2.1983273617    0.0842507585
 C   -0.7975090926    3.6706096417    0.0288671639
 C    0.7257573930    3.6856607331   -0.0233248135
 O    1.3520392395    3.1054007629    1.1222639530
 C    1.2015091743    2.2918250157   -0.0528850199
 H   -2.1379395858    1.8218667480    0.2029365306
 H   -1.2365438467    4.1441157472   -0.8585156013
 H   -1.1826350819    4.2106616254    0.9020491260
 H    1.2617689449    4.5080362337   -0.4875076333
 H    2.1190422327    1.9500800671   -0.5194522451