16

 N   -0.0553609805    1.3347672473    0.0976777673
 C    0.0412489942   -0.0346614704    0.0192409091
 O    1.1119184756   -0.6072121814   -0.0694681781
 C   -1.2597951793   -0.7567380628    0.0143829345
 C   -1.3665008475   -2.0860494043    0.1533205512
 C   -2.7996971256   -2.5607172086    0.1114175589
 C   -3.5903850587   -1.2622671909   -0.0141743294
 O   -3.4372750209   -0.3668794635    1.0883379526
 C   -2.6270265610   -0.1504307783   -0.0911892417
 H    0.8122110254    1.8264185885    0.2485056866
 H   -0.8888696215    1.7649211189    0.4635457297
 H   -0.5187292170   -2.7419913502    0.3100309194
 H   -2.9799324731   -3.2241464532   -0.7443500748
 H   -3.0761020210   -3.1232133889    1.0113874611
 H   -4.5627062446   -1.2438824129   -0.4986142752
 H   -2.8182609444    0.7775250408   -0.6226514913