16

 C   -0.1503408355    1.5706768432   -0.0364935107
 C   -0.0200571521    0.0628169198    0.0868747521
 O   -1.2823609786   -0.4681822591    0.3150287959
 C    0.8628131173   -0.5893988670   -1.0907369570
 N    1.9393027117   -0.7102145876   -0.0956239793
 C    1.1209746852   -0.4252427094    1.0003207709
 N    1.1814371953   -0.5360032735    2.2542092071
 C    0.3356271603   -1.8609506262   -1.5741112318
 N   -0.0751956056   -2.8823043754   -1.9274407832
 H    0.8075172693    2.0295957230   -0.2935838575
 H   -0.8862516992    1.8158206272   -0.8076126952
 H   -0.4936640741    1.9794060120    0.9167459046
 H   -1.1974080414   -1.3501390303    0.6951634926
 H    1.0993570029    0.0670988807   -1.9324151691
 H    2.6811305711   -1.3964166393   -0.1269074936
 H    2.0550739836   -0.9601495381    2.5705374438