19

 C   -0.0222960936    1.4337671714    0.0922201674
 C    0.0072135571   -0.0732076177    0.0136410943
 C    0.9734005611   -0.7401097853   -0.9671250737
 O    0.3822389786   -1.9954180348   -1.3134731578
 C   -0.6350191683   -2.2417221579   -0.3530845041
 C   -0.0428356554   -2.3444704399    1.0934927215
 C   -0.3709363869   -0.8621752932    1.2518954680
 O   -0.5008844782   -0.1930001070    2.4526048482
 C   -1.2727823395   -0.8827737628    0.0103378656
 H    0.9455216308    1.8281859565    0.4216412089
 H   -0.2466839237    1.8702888996   -0.8871818154
 H   -0.7724409154    1.7766268011    0.8074999220
 H    1.0872784191   -0.1424185369   -1.8801239067
 H    1.9718802790   -0.8929785562   -0.5335962119
 H   -1.2561359585   -3.0630741399   -0.7058404797
 H   -0.6812858271   -2.9565667497    1.7406864218
 H    0.9956947505   -2.6806602363    1.1820555953
 H   -1.1445231712   -0.6650694882    2.9929116072
 H   -2.2619228684   -0.4981639029   -0.1999707709