17

 C   -0.1115561237    1.5263864660    0.0188530955
 C    0.1308490002    0.0454340380   -0.0278428752
 O   -0.6946891086   -0.7699534171    0.8434714801
 C    0.7073638474   -0.7784774057    1.0772798120
 C    1.5244383319   -1.8737337478    0.4078071908
 O    1.1422270256   -3.2883139711    0.3465541605
 C    1.1624858840   -3.2729200239   -1.1157165269
 C    1.1435781735   -1.7648425309   -1.0370609229
 C    0.3567618008   -0.7248789719   -1.3081027800
 H    0.7410763633    2.0704862581   -0.4001228566
 H   -0.9984490669    1.7892619342   -0.5683259170
 H   -0.2754090281    1.8595527430    1.0462288682
 H    1.0263606898   -0.3408147748    2.0194717162
 H    2.5843300834   -1.7816417603    0.6800347108
 H    2.0816914830   -3.7323627897   -1.5011833172
 H    0.2862834814   -3.7624724386   -1.5517260604
 H   -0.2438172170   -0.5641989176   -2.1957588178