17

 O   -0.0735658026   -0.0146378669    0.1591466206
 C    0.0847050640    1.1553841978   -0.0621833391
 C    1.4324413071    1.7636318781   -0.4121545804
 O    1.2440917856    3.1457863443   -0.6312624481
 C    2.4204405111    3.8247246008   -0.9382966151
 C    2.9107380053    3.8446605857   -2.3474154103
 C    2.2822697309    5.1020628166   -1.7326452548
 C    0.9478143784    5.5224466600   -2.2322425487
 O    0.6039682615    6.6732975095   -2.3374728838
 H   -0.7452018633    1.8944090792   -0.0280057319
 H    2.1324495907    1.5757944667    0.4179647802
 H    1.8377195395    1.2572975953   -1.3016011643
 H    3.1578305504    3.8283902510   -0.1348319657
 H    3.9751160612    3.8596854734   -2.5496839040
 H    2.3066215570    3.3246131763   -3.0842458668
 H    2.9366263366    5.9246772519   -1.4680414889
 H    0.2757975165    4.6863100900   -2.5202430090