23

 C    0.0325593524    1.5316315474    0.0684346944
 C    0.0307820859    0.0151793840   -0.0584306520
 C    0.8439179156   -0.4950666795   -1.2530412290
 C    1.0584964132   -1.9795728880   -1.1356582193
 C    0.8902095636   -2.6206263712    0.0174293364
 C    0.5343826834   -1.9212929816    1.3092608535
 C   -0.8546948369   -2.3671758411    1.8085728565
 C    1.5976566313   -2.2218922602    2.3750899289
 O    0.5661564071   -0.4970328007    1.1568773580
 H    1.0524936045    1.8973544018    0.2234089959
 H   -0.3697245785    1.9946275721   -0.8380059800
 H   -0.5759339757    1.8454892634    0.9207569056
 H   -1.0078158801   -0.3331821663   -0.1815698520
 H    0.3182009844   -0.2581067681   -2.1868863157
 H    1.8082018515    0.0313708404   -1.3006280234
 H    1.3494577853   -2.5259808620   -2.0292357617
 H    1.0208455101   -3.6981599530    0.0815061237
 H   -0.8827593406   -3.4502764368    1.9653836254
 H   -1.0854378427   -1.8730216615    2.7570529145
 H   -1.6355861383   -2.1173546124    1.0850963295
 H    2.5825470785   -1.9024908182    2.0255787223
 H    1.3629568287   -1.6792029114    3.2955449690
 H    1.6334247275   -3.2919880469    2.6004411495