19

 C    0.6392010598    2.0077288597    0.3125515948
 C    0.2570576696    0.5303632022    0.1054617414
 C    0.8746098842   -0.0057553395   -1.1769947850
 C    0.1698406942   -0.9473412675   -2.0551265444
 O    0.2743270506    0.4401923504   -2.3892561587
 C    0.7439457936   -0.3121471520    1.2741183914
 O    1.9209782120   -0.4045116543    1.5586089316
 C   -0.2818667002   -1.0657201748    2.1021819285
 O    0.3153761901   -1.7863161568    3.1339040884
 H    1.7199538538    2.1023243351    0.4470929713
 H    0.3368030136    2.5909914987   -0.5606870405
 H    0.1468246738    2.4251040347    1.1958650682
 H   -0.8325854773    0.4422520251    0.0225330696
 H    1.9647286043   -0.0097913949   -1.1814868184
 H    0.7371129747   -1.6257765097   -2.6898620843
 H   -0.8307966581   -1.2870569014   -1.7898593463
 H   -1.0124182824   -0.3328281356    2.4872558490
 H   -0.8472162973   -1.7245225298    1.4194562452
 H    1.2665958712   -1.6122396499    3.0436185183