16

 O    0.0481906044   -0.0116376709   -0.1117059001
 C    0.0069469778    1.1830256707   -0.0169869861
 N   -1.0249117469    2.0800775194    0.1192500281
 C   -0.1920116250    3.2953590111    0.0904921750
 C   -0.1880817958    4.1955221709    1.2865330845
 C    0.9289828125    4.3654586765    1.9894999750
 C    2.1674364482    3.5578444440    1.7030328596
 O    1.8706173518    2.2952073876    1.1276575806
 C    1.0462834276    2.3463839552   -0.0065620948
 H   -2.0258865847    1.9475034175    0.1033919866
 H   -0.3525615573    3.8817183470   -0.8239100835
 H   -1.0945758586    4.7485387485    1.5176910625
 H    0.9790013820    5.0799360830    2.8063472126
 H    2.8648910246    4.1289225024    1.0643522155
 H    2.6990329337    3.3339222130    2.6331119155
 H    1.6292048555    2.4519017742   -0.9314002110