15

 N   -0.0032706626    1.4141802238    0.0537072115
 C   -0.0319987056   -0.0085998221    0.1069956066
 C   -0.6584237335   -0.7215839950    1.2582568808
 C   -1.3410563503   -0.8056754034   -0.1035324445
 O   -2.4690756908    0.0152788994   -0.3138663214
 C   -3.6520066318   -0.4097743757    0.2188976265
 O   -4.6477800359    0.2323753132    0.1151442212
 C   -1.3231171506   -2.0327097148   -0.8502091889
 N   -1.2824645860   -3.0211558626   -1.4515274859
 H    0.1033481216    1.7333381751   -0.9044040603
 H   -0.8680557018    1.8136237559    0.4034480933
 H    0.8445320984   -0.4744030721   -0.3309844399
 H   -0.1879212573   -1.6176051971    1.6452606332
 H   -1.1796684766   -0.1219559048    1.9980941817
 H   -3.5650845772   -1.3833585197    0.7321716361