16

 C    0.0186673213    1.4390607435    0.1107873936
 C   -0.0695594577   -0.0378433905   -0.2151453292
 O   -1.3038150234   -0.5361749090    0.3531883251
 C   -1.5458417638   -1.8299320413    0.1718675126
 C   -2.6330216529   -2.4768157366   -0.2652912833
 N   -2.3410053314   -3.8454687053   -0.1241543648
 C   -1.0747189264   -4.0225771380    0.3666866296
 O   -0.4596952456   -5.0260442448    0.6009532553
 O   -0.5770347521   -2.7352122752    0.5623530212
 H    0.9412627431    1.8558305603   -0.3033647877
 H   -0.8296906995    1.9826398125   -0.3138561490
 H    0.0230981760    1.5945181626    1.1929929479
 H   -0.0882414821   -0.2136179122   -1.2984838586
 H    0.7704384706   -0.5953574484    0.2105593348
 H   -3.5703161420   -2.1046949774   -0.6356440366
 H   -2.9352783539   -4.6188834803   -0.3620979409