21

 C   -0.6755211187    1.1891653840    0.0610657666
 C   -0.3143241009   -0.2643682101   -0.2775986314
 C    0.8235611187   -0.3524706912   -1.3049337549
 N   -0.0350686146   -1.0614582617    0.9278960845
 C    0.9532360184   -0.7391646273    1.6505337407
 N    1.2458274048   -1.4683706735    2.7958987131
 C    2.3043681050   -1.1871973583    3.6425527088
 C    2.4146528143   -2.1292271031    4.8277137650
 O    3.0677114948   -0.2660283483    3.4420591980
 H    0.1849254516    1.7296400104    0.4702147615
 H   -1.0091729543    1.7210750690   -0.8358158191
 H   -1.4808062928    1.2237714107    0.8005839543
 H   -1.2004440885   -0.7268479436   -0.7280913096
 H    1.7312684373    0.1391919348   -0.9385727035
 H    1.0671077951   -1.3966775846   -1.5214592348
 H    0.5339483896    0.1345086888   -2.2417460327
 H    1.6562318748    0.0827433342    1.4970120660
 H    0.6286886000   -2.2435077064    2.9920227059
 H    2.5476401356   -3.1630395781    4.4917262990
 H    3.2704889710   -1.8323834834    5.4324654389
 H    1.5068899088   -2.0926351224    5.4392477938