19

 C   -0.2648097036    1.5340954374   -0.0341210013
 C   -0.7716056467    0.1668985400   -0.4817215780
 N   -0.9716109084   -0.7115443628    0.6724658740
 C   -1.4290359262   -2.0124953277    0.4262673076
 C   -2.5720837086   -2.4144899729   -0.2342763905
 N   -3.6592780130   -1.7618089513   -0.8510588785
 N   -2.5588751508   -3.8006859024   -0.1341395979
 C   -1.4568247605   -4.1534524005    0.5676823698
 N   -0.7475317539   -3.0994230087    0.9193955072
 H   -0.1391081134    2.2013228530   -0.8919158051
 H   -0.9639490284    1.9945844299    0.6699258815
 H    0.7075423521    1.4484722450    0.4646393467
 H   -1.7344593216    0.2824157879   -0.9922902256
 H   -0.0763589598   -0.2689045329   -1.2197362745
 H   -0.1266797594   -0.7752213272    1.2295259212
 H   -4.0092052962   -1.0033315872   -0.2754770983
 H   -3.4270184289   -1.3747864335   -1.7607454298
 H   -3.2795406878   -4.3998347344   -0.5005581295
 H   -1.2080341249   -5.1806777417    0.7876640111