14

 O   -0.0381496588    0.0293991184    0.1759083959
 C   -0.0012310746    1.2219912471    0.0752254637
 N   -1.0024509748    2.1878518095    0.0002218847
 C   -0.0899518783    3.3282498644   -0.0010688293
 C    0.4519977797    3.8651259497    1.3627860564
 N    0.4912716740    2.7198294517    2.2955718813
 C    1.5840296954    2.9007160449    1.3144483873
 C    1.0954274358    2.3187937883   -0.0384350730
 H   -1.9319454315    2.1186220625    0.3919060564
 H   -0.2538010266    4.0740620093   -0.7783437016
 H    0.4089156275    4.8853560102    1.7230564924
 H    0.8249587885    3.0691743142    3.1927167658
 H    2.6122092091    3.0055900647    1.6343735713
 H    1.8106338946    2.2820837951   -0.8563708414