17

 O    0.1139027649    0.0366757941   -0.3739590501
 C    0.0253441236    1.1752780732   -0.0336759261
 C   -1.1805762415    2.0932457597    0.3629645618
 C   -0.1136239533    3.0764834933    0.8305810427
 C    0.2531776786    4.5481554231    0.9398101776
 C    1.7682078107    4.2881794638    1.3109491422
 C    1.7399468172    2.7284874995    1.3613549301
 O    0.4783708340    2.5158206083    2.0619374637
 C    1.0363456908    2.3631846407    0.0520162099
 H   -1.7103632358    2.4208987214   -0.5393298631
 H   -1.8913949449    1.7193657381    1.1015107055
 H    0.1282443211    5.0927656095    0.0009742834
 H   -0.2874706916    5.0715518854    1.7306239727
 H    2.4627521705    4.6857052922    0.5659858433
 H    2.0322485081    4.6950884704    2.2891628018
 H    2.5963564912    2.2051012471    1.7871647659
 H    1.4257790365    2.7079646001   -0.9096210611