24

 C    2.9589258337    0.2623423732   -4.0440932326
 C    2.4238392430   -1.0544586637   -3.4762102927
 C    2.2531588049   -1.0246887133   -1.9508632681
 C    1.6820504661   -2.3234113953   -1.4178610494
 C    2.5656822539   -3.4305222425   -0.9590459188
 N    1.7314517262   -2.6997903850   -0.0023198824
 C    2.4006019739   -1.8254832924    0.9610852821
 C    2.3673094552   -2.4913124076    2.3362530308
 O    2.9899575099   -3.7640344841    2.3289155427
 H    2.2839704894    1.0954127091   -3.8178805426
 H    3.9389227725    0.5081874767   -3.6200285296
 H    3.0707868646    0.2109815227   -5.1314803851
 H    1.4583174902   -1.2900752578   -3.9426714982
 H    3.0989859248   -1.8766164843   -3.7450647603
 H    3.2199020558   -0.8104757578   -1.4818947591
 H    1.5855151111   -0.1945614267   -1.6795823315
 H    0.7367381741   -2.6019432343   -1.8852409379
 H    2.3005327514   -4.4705153383   -1.1343988618
 H    3.6374371949   -3.2350103753   -0.9405633903
 H    3.4451734555   -1.6091587126    0.6885513214
 H    1.8613167060   -0.8713012887    1.0120017991
 H    2.9162884402   -1.8790041571    3.0597849208
 H    1.3226458101   -2.5625917827    2.6750967087
 H    2.4738057226   -4.3099883422    1.7258836748