11

 O   -0.0150626087    1.3724741647    0.0083837016
 C   -0.0194277021    0.0201362259    0.0010909993
 C   -1.1739804489   -0.6839109951    0.0040631499
 O   -1.1603400080   -2.0367842313   -0.0033270367
 C    0.0277330361   -2.7512119291   -0.0141565920
 O    0.0040361203   -3.9520022273   -0.0206237131
 C    1.2218502123   -1.8995696279   -0.0166070736
 N    1.1968333912   -0.6077921839   -0.0094632568
 H    0.9119952732    1.6432553115    0.0043694913
 H   -2.1681563711   -0.2598400892    0.0121976634
 H    2.1782798758   -2.4147746182   -0.0250438735