21

 C   -0.0957395831    1.6388202382    0.0665938786
 C   -0.1211406587    0.1365208963    0.3643580857
 C   -1.4263301118   -0.5368402942   -0.0514410983
 C   -1.6702099412   -0.6980219098   -1.5936333061
 C   -1.7777543696   -2.2203711870   -1.3777227623
 O   -2.0029218520   -3.1579309983   -2.0925929358
 C   -1.5043887950   -2.0745121459    0.0890978670
 C   -0.6510895283   -3.0252967225    0.9045532562
 C   -2.1178385919   -2.9317557299    1.1733218454
 H    0.8528889365    2.0880610617    0.3758497139
 H   -0.2236962872    1.8358563223   -1.0032240690
 H   -0.9006172755    2.1603436350    0.5964084008
 H    0.7167261826   -0.3588553259   -0.1438286262
 H    0.0391051561   -0.0224891072    1.4390157881
 H   -2.2703341010   -0.0387471780    0.4384910228
 H   -2.5717110642   -0.2321566593   -2.0001541458
 H   -0.8201399286   -0.4141952203   -2.2230023771
 H   -0.2744359384   -3.9013053362    0.3871706541
 H    0.0342878368   -2.5828073353    1.6195004740
 H   -2.4452989028   -2.4227324028    2.0740450273
 H   -2.7571686927   -3.7440519108    0.8435598668