23

 C    0.0313585266    1.5744195082    0.0764222498
 C    0.0119254908    0.0523145829   -0.0954379354
 C    0.8696837953   -0.4728155250   -1.2613696952
 C    2.3632844924   -0.1640340173   -1.0821737979
 C    0.6448319007   -1.9828345979   -1.4440836283
 C    1.1723611865   -2.5498137345   -2.7465301225
 O    1.3647656403   -1.8772013845   -3.7390436848
 C    1.4492813413   -4.0468716607   -2.8118902019
 O    1.8096445807   -4.4455955307   -4.0991664145
 H    1.0247634862    1.9449400392    0.3459933372
 H   -0.2730819630    2.0793733129   -0.8471919177
 H   -0.6586479787    1.8845573434    0.8672325008
 H    0.3398347041   -0.4264181970    0.8381792442
 H   -1.0252960485   -0.2715964506   -0.2524583890
 H    0.5320713461    0.0139430247   -2.1848321788
 H    2.9467741267   -0.5463740461   -1.9240089958
 H    2.5451234718    0.9120618853   -1.0222361211
 H    2.7502523235   -0.6193248284   -0.1618794287
 H    1.0665615086   -2.5529334714   -0.6051376308
 H   -0.4326004200   -2.2078868566   -1.4357181304
 H    2.2456797182   -4.2666375900   -2.0785551073
 H    0.5554709723   -4.5882645656   -2.4613529251
 H    1.8592479581   -3.6204783903   -4.6091334667