14

 O   -0.0034184087    0.0385257670   -0.1149515444
 C   -0.0433759729    1.2276097980    0.0345452899
 C   -1.1456102338    2.2309755846    0.0438171081
 C   -0.7310202447    3.4081772057    0.9469764567
 O    0.1400862465    3.1813732422    2.0224777500
 C    1.3908049093    2.7475532618    1.4698884565
 C    1.0536282429    2.3258418771    0.0350606252
 C   -0.0824019418    3.3130571820   -0.3659548983
 H   -2.1688920639    2.0977139919   -0.2862443465
 H   -1.5067336742    4.1317807901    1.1662274985
 H    2.1176469582    3.5719616329    1.4861257936
 H    1.7717389189    1.9233297692    2.0797476216
 H    1.9024370385    2.1664397993   -0.6273612932
 H   -0.1072359442    3.9990929580   -1.1997504578