20

 C   -0.1693936475    1.5948821521    0.1242195345
 C    0.0894777498    0.1080959472    0.0327795264
 C    0.6030570642   -0.6839850880   -1.1080625822
 C    1.7115103879   -0.0265959816   -1.9297403740
 C    1.3831494410    1.0752951241   -2.9463376624
 C    2.6240134100    1.5477427503   -3.6704893886
 O    3.0089323836    2.6874692468   -3.7114882882
 C    2.4151425964    0.2678575229   -0.5763075938
 N    1.4042131805   -0.5464494622    0.1925991198
 H   -1.1657970295    1.8223186190   -0.2690877601
 H   -0.1466241431    1.9107311210    1.1729658775
 H    0.5483494513    2.2076539675   -0.4205846804
 H   -0.6413198053   -0.4592177643    0.6094428855
 H    0.1394939071   -1.6275508829   -1.3849222009
 H    2.2698433330   -0.8137434695   -2.4482574688
 H    0.7023421376    0.6543832578   -3.7012860495
 H    0.8937519175    1.9402627128   -2.4956720602
 H    3.1925873466    0.7332591504   -4.1805237612
 H    3.4021378808   -0.1875317752   -0.4807947435
 H    2.4855729381    1.3145613816   -0.2666281598