17

 C   -0.1188482119    1.3708298989    0.3317387320
 O   -0.2673113717   -0.0114996278    0.0650545756
 C    0.5931818513   -0.4892833061   -0.9423121437
 C    2.0383632926   -0.6083442306   -0.4482771214
 O    2.9899432063   -0.6217981541   -1.1821883522
 C    0.0944284593   -1.8892853845   -1.3579332964
 O    0.2645579218   -2.8266408720   -0.3359734686
 C   -1.3687083216   -1.7957107190   -1.7604145167
 O   -2.2085387891   -2.4808003531   -1.2348233649
 H    0.8986331340    1.6214072745    0.6647307206
 H   -0.3509905052    1.9780260974   -0.5558861132
 H   -0.8213683052    1.6194555234    1.1294578273
 H    0.5882118120    0.1646531268   -1.8302073125
 H    2.1247286067   -0.7040335471    0.6551782928
 H    0.6747164670   -2.1796132029   -2.2502700848
 H   -0.6293966397   -3.1139793695   -0.0911889015
 H   -1.6139805567   -1.0708110145   -2.5623736423