14

 C    0.0749491088    1.5377030605    0.0074606958
 O    1.2052976181    0.6679412295   -0.0303845916
 C   -0.0928692823    0.0714595258    0.0222886255
 C   -0.4224409597   -0.6713488559    1.2558836596
 C    0.3556002557   -0.7799518635    2.3678587031
 O   -0.2616521017   -1.5379372467    3.3119040700
 C   -1.4557771826   -1.9229788943    2.7918274284
 C   -1.6117310911   -1.4290579104    1.5372483184
 H   -0.0598709752    2.0887919413    0.9363961177
 H   -0.1164553263    2.0961204496   -0.9082333054
 H   -0.4056244100   -0.4009622134   -0.9100055303
 H    1.3344807991   -0.4066309654    2.6142320594
 H   -2.0686779784   -2.5379909388    3.4297283134
 H   -2.4614441546   -1.5759185484    0.8886040359