17

 C   -0.2902121210    1.3382454400    0.1027696657
 C   -0.1420534178   -0.1448761394   -0.1261759927
 O    0.6224301906   -0.6723440263   -0.8887361327
 O   -1.0071037273   -0.8341017383    0.6672222522
 C   -1.0364435761   -2.2293526657    0.4663489331
 C   -2.3034407372   -2.9710046173    0.7670476509
 C   -3.4860211417   -2.1594986391    0.2444131581
 O   -2.8775625013   -2.0184856141   -1.0680293040
 C   -1.7851757249   -2.8374602316   -0.6699453563
 H    0.4853322021    1.8696001762   -0.4473172269
 H   -1.2758156695    1.6638940322   -0.2433952143
 H   -0.2255928147    1.5688113783    1.1692670478
 H   -0.1155529657   -2.7372834946    0.7366675936
 H   -2.3584383451   -3.8085163790    1.4492452310
 H   -4.4093848751   -2.7427006100    0.1716417439
 H   -3.6818768808   -1.1932871215    0.7194683363
 H   -1.3730823146   -3.5301767599   -1.3943928958