19

 O   -0.0748504958    1.2742378083   -0.5529605713
 C    0.0556456160   -0.0949025160   -0.2173721229
 C   -1.2944569316   -0.6402308547    0.2223039034
 O   -2.2782258740   -0.4188809824   -0.8279493583
 C   -2.5546678848   -1.8469118907   -0.9184470861
 C   -1.9540567005   -2.5276341098   -2.1167611621
 C   -0.8662897947   -3.2268491844   -1.7901351652
 C   -0.5276168839   -3.1531403103   -0.3172856741
 C   -1.5758026529   -2.1667983593    0.2399098024
 H   -0.8168890626    1.3180720225   -1.1696805043
 H    0.4412023567   -0.6755809495   -1.0681844488
 H    0.7832683580   -0.1596366752    0.5995969455
 H   -1.6079265273   -0.1209926475    1.1366996204
 H   -3.6263923077   -2.0324970410   -0.7873891404
 H   -2.3750619091   -2.4421718398   -3.1119479434
 H   -0.2666407602   -3.8031537991   -2.4874299337
 H   -0.6122448329   -4.1379770468    0.1595942069
 H    0.5063760080   -2.8277815302   -0.1497036151
 H   -2.0247248706   -2.5064731341    1.1726957771