17

 C   -0.0316277455    1.4112954697    0.0388013498
 N   -0.0791423513   -0.0277470449    0.1609526176
 C   -1.4424053029   -0.6093795635    0.1512514874
 C   -1.2061837374   -1.8929567978    0.8742967018
 N   -1.8235827836   -3.0395581488    1.1231011002
 N   -0.9271180095   -3.6661196703    1.8966401177
 N    0.2154304660   -3.0190370409    2.1620791446
 C    0.0353474006   -1.8802344414    1.5074966739
 C    0.7382839088   -0.5869439110    1.2636774262
 H    1.0074102063    1.7425353346   -0.0596808908
 H   -0.5671379707    1.7263435952   -0.8628591742
 H   -0.4774594021    1.9431550312    0.9020916248
 H   -2.1771668942    0.0198723467    0.6878037707
 H   -1.8013754569   -0.7246527153   -0.8780279992
 H   -1.0940770818   -4.5966810897    2.2426810108
 H    1.7839961506   -0.6877866384    0.9508322407
 H    0.7250413835    0.0496711747    2.1682641079