17

 C   -0.0203175954    1.4624096022    0.0194260952
 C    0.0005874574   -0.0291778161   -0.0176362544
 C   -0.0346558930   -0.8255016524   -1.0965176742
 N    0.0038553247   -2.1687937289   -0.6856040829
 N   -0.0074935737   -3.3348794732   -1.3474767591
 C    0.0494411014   -4.2365728054   -0.3609045026
 C    0.0970376634   -3.6428972295    0.9266224993
 C    0.0651506184   -2.2881218839    0.6690603932
 C    0.0690810989   -0.8988930191    1.2405514371
 H    0.8766594846    1.8656181713    0.5065160357
 H   -0.0724116306    1.8834315751   -0.9881931363
 H   -0.8812559970    1.8389732495    0.5863102682
 H   -0.0844850804   -0.5871234906   -2.1478239922
 H    0.0546666336   -5.2889103297   -0.6051454497
 H    0.1465162186   -4.1409781957    1.8808774727
 H    0.9713101383   -0.6847847573    1.8277148316
 H   -0.7843591591   -0.7115258463    1.9047457985