16

 O   -0.1675553275    1.2581414179    0.0683321438
 C   -0.1550227774   -0.1274828717    0.1998697831
 C   -0.8976948331   -0.7881095618    1.3052259301
 C   -1.4763998852   -0.8463817441   -0.1077863044
 C   -2.6874026558    0.0048082017   -0.4606737506
 C   -3.9070256793   -0.4188818665    0.2286194928
 N   -4.8616956474   -0.7615326491    0.7821330057
 C   -1.3270085855   -2.1458683518   -0.8194887019
 O   -0.4387004723   -2.9331602480   -0.5979056771
 H    0.2557056079    1.6411612181    0.8438558127
 H    0.7298614001   -0.6293816848   -0.1869404093
 H   -0.5105319609   -1.7226986852    1.6950728830
 H   -1.4285720731   -0.1561104819    2.0095921825
 H   -2.4780288882    1.0494440103   -0.2137901118
 H   -2.8684766314   -0.0287914126   -1.5419475988
 H   -2.0922984109   -2.3457679806   -1.6016722998