17

 C   -0.0353133658    1.5468233039    0.0117618336
 C   -0.0117969825    0.0073242940   -0.0455831200
 C   -1.4471100863   -0.5527532319   -0.0551676070
 C    0.8433412331   -0.5317543934   -1.1730416261
 C    1.8590745875   -1.2311469632   -0.6602737227
 N    1.8087913246   -1.2419853493    0.7435292000
 C    0.7233101159   -0.5269821855    1.2092806617
 O    0.4189123988   -0.3590178050    2.3688350191
 H    0.9770364957    1.9607991127   -0.0054691241
 H   -0.5845560805    1.9529968745   -0.8435587649
 H   -0.5258944254    1.8745382134    0.9330870072
 H   -2.0051986290   -0.1598194708   -0.9109471818
 H   -1.4473453208   -1.6446673825   -0.1203439920
 H   -1.9629035112   -0.2624398680    0.8649315191
 H    0.6496742497   -0.3680614888   -2.2228245277
 H    2.6601120766   -1.7537525748   -1.1636106655
 H    2.4632138894   -1.7013742152    1.3545392510