17

 C    0.0304848098    1.4813000032    0.0082937617
 C   -0.0543002249   -0.0475209680    0.0024962211
 C   -1.4939882158   -0.5317419398    0.0135988662
 O   -1.4669076575   -1.9721717258    0.0072365437
 C   -2.6437411773   -2.5792843328    0.0151165332
 N   -2.7417833431   -3.9063566883    0.0100735398
 N   -4.0667248134   -4.0382345696    0.0213646190
 N   -4.7484121853   -2.9112745429    0.0327173958
 N   -3.8492285147   -1.9538677886    0.0288757357
 H    1.0723104346    1.8127373614    0.0002021537
 H   -0.4629394931    1.9123910113   -0.8694706523
 H   -0.4467892582    1.9047874055    0.8986002280
 H    0.4475978056   -0.4537750384   -0.8828309055
 H    0.4636882995   -0.4613322912    0.8749621118
 H   -2.0311296756   -0.1854821625    0.9042312183
 H   -2.0473063734   -0.1779738743   -0.8640838462
 H   -4.5197404473   -4.9395678792    0.0213558859