15

 O   -0.2159647131    1.3503567325   -0.0397577692
 N   -0.0624075156   -0.0327017129   -0.2298658100
 C   -1.1401189719   -0.6545817013    0.0750203892
 C   -2.5077032801   -0.1937889069    0.3277303519
 C   -3.2326518156   -1.3222380476    0.5261815633
 C   -3.8836322404   -2.0618471281   -0.6316534461
 C   -2.5411081576   -2.8587280598   -0.5267635174
 C   -1.2712146444   -2.1441242089    0.0165421523
 N   -2.3994121843   -2.4839148980    0.9024629479
 H    0.6369387527    1.6908616734   -0.3297424021
 H   -2.8862231853    0.7432791790   -0.0568554627
 H   -4.6957673266   -2.7510370195   -0.3791617206
 H   -4.1304705774   -1.4757205813   -1.5170922716
 H   -2.4520238743   -3.9023442344   -0.8271822917
 H   -0.3857246261   -2.7708704162    0.0729352767