13

 C    0.0176169183   -1.1411407381   -0.0046302873
 C    0.0312946426    0.0585250368    0.0022125411
 C    0.0030682959    1.5083786453    0.0109990108
 O    1.3689833993    1.9945943730   -0.0019362026
 C    1.5336277509    3.3003814455    0.0037008101
 N    2.6768076877    3.9213065034   -0.0059447778
 C    2.2594380764    5.2252511905    0.0064325075
 N    0.9698077198    5.4263698344    0.0225173980
 O    0.4605073396    4.0994128354    0.0207435287
 H    0.0108908707   -2.2036457467   -0.0107551125
 H   -0.5242607115    1.8994660383   -0.8660506907
 H   -0.5038128238    1.8891329749    0.9044976922
 H    2.9440956242    6.0617100171    0.0033450524