20

 C    0.2149869425    1.4148643771    0.3258830769
 C   -0.2025895028    0.0261868847   -0.1745403129
 C    0.6114194733   -0.4556386869   -1.3702165727
 C    0.3984905964    0.3207870056   -2.6570636807
 C    1.9868564051   -1.0238347201   -1.1090896807
 C    0.8437271255   -1.9609489070   -1.4766692929
 O    0.2763413275   -2.7610554640   -0.4808242124
 C    0.8620241501   -2.5884867653   -2.7819806112
 N    0.8856034174   -3.1168638203   -3.8111700453
 H    1.2728074997    1.4319573535    0.6094661759
 H    0.0607443550    2.1892028412   -0.4315530612
 H   -0.3714264199    1.6950424327    1.2059776537
 H   -0.1127517091   -0.6994293084    0.6368061708
 H   -1.2628109116    0.0400346546   -0.4569386101
 H    0.7285701481    1.3572284728   -2.5377669522
 H    0.9547157481   -0.1103719419   -3.4928786959
 H   -0.6615160049    0.3329414484   -2.9323763866
 H    2.7730694500   -0.8618513567   -1.8383367680
 H    2.3195495424   -1.0984114307   -0.0788454338
 H    0.8703099371   -3.5020981294   -0.3142793907