17

 C    0.1260791708    1.0317820024   -0.6242949600
 N   -0.2577725488    0.2922035978    0.5607147633
 C    0.5739034505   -0.5219766188    1.0263530487
 O    0.2775305355   -1.2154383640    2.1639149497
 C    1.1082995036   -2.2422876776    2.5007332411
 C    1.7001439114   -3.2488401247    1.7770419878
 C    2.4285139590   -4.0400667893    2.7169916026
 C    2.2448786713   -3.4948083345    3.9625644755
 N    1.4370081566   -2.3869517857    3.8187496198
 H    1.1280398992    0.7798221707   -1.0068740660
 H   -0.6048111069    0.8488576703   -1.4196896390
 H    0.0996177789    2.1057542685   -0.4086645049
 H    1.5675407013   -0.7540171875    0.6211634460
 H    1.6020462770   -3.4134258086    0.7162610370
 H    3.0120017738   -4.9193777518    2.4927189469
 H    2.6059706434   -3.7930993073    4.9326541773
 H    1.1197443934   -1.7721640799    4.5480313143