16

 C   -0.0912818017    1.4124511994    0.2884537798
 N   -0.0603552661   -0.0384219695    0.2538503331
 C   -1.0733826071   -0.6823583917   -0.1705920608
 C   -1.0108971039   -2.1502661288   -0.2621925738
 C   -2.0179248767   -2.9923760514    0.0445936295
 N   -3.2701494935   -2.6909986131    0.5536850191
 C   -3.8636078996   -1.5661820311    0.3747585952
 C   -3.4138234439   -0.4348850972   -0.4479117067
 N   -2.2212810808   -0.0646376341   -0.7132143660
 H    0.9147306062    1.7895772106    0.0802777338
 H   -0.8057630023    1.8571774740   -0.4144414067
 H   -0.3543610486    1.7515500498    1.2990184670
 H   -0.0457425798   -2.5654778540   -0.5366923486
 H   -1.8348726643   -4.0623341040   -0.0124330156
 H   -4.8614906628   -1.4652025362    0.8082178938
 H   -4.2219298150    0.1488338271   -0.9010558929