15

 C    0.2268053109    1.5021133319    0.0924444409
 C    0.0349524743    0.0046913322   -0.0267380185
 C    0.7168383878   -0.6523565097   -1.2836328135
 C    1.4073004765   -1.8122154229   -0.6458121895
 N    2.0977947979   -2.8683555357   -0.9325449406
 O    2.4162731212   -3.4167533065    0.2988634811
 N    1.9001031957   -2.6666205386    1.3654287947
 C    1.2934360492   -1.6959443346    0.7574513052
 O    0.6059049777   -0.6329068014    1.1803124563
 H    1.2911844191    1.7553397820    0.1018856057
 H   -0.2441161197    2.0066491126   -0.7570742414
 H   -0.2288251599    1.8770448313    1.0121657104
 H   -1.0300317719   -0.2491438154   -0.0127418483
 H   -0.0214353668   -0.9331849159   -2.0378047863
 H    1.4290757281    0.0369293308   -1.7495251062