18

 C   -0.0586868468    1.3580187427   -0.0221739509
 O   -0.0789034809   -0.0517322047   -0.0635007679
 C    0.6798145463   -0.5984436284   -1.1255109386
 C    0.6374918968   -2.1092297095   -0.9576929895
 O    1.1020904077   -2.4765513163    0.3136302827
 C   -0.6745689750   -2.7683217655   -1.4628745286
 O   -0.0093170990   -3.2173670196   -2.6643333255
 C    1.2835391771   -2.8863362003   -2.1179746017
 H    0.9645890972    1.7451947115    0.0972164865
 H   -0.4893298245    1.7941708296   -0.9357718381
 H   -0.6594148700    1.6682569077    0.8358307590
 H    0.2677333397   -0.3035868848   -2.1029195592
 H    1.7241204890   -0.2483294139   -1.0712493112
 H    0.7546630099   -1.8154796119    0.9266408907
 H   -0.9907261780   -3.6041939155   -0.8263434964
 H   -1.5272974206   -2.1156734948   -1.6780300082
 H    1.9038296410   -2.3233598708   -2.8259226213
 H    1.8320264201   -3.7697337157   -1.7671568618