19

 C   -0.0780867946    1.4744829914    0.2381335743
 C    0.0465794459   -0.0189341595    0.0785773160
 C   -0.7590543602   -0.9617412955    0.9075413986
 C    0.7439448365   -0.9355719179    1.1194465743
 C    1.5357372000   -1.9400692734    0.2995993929
 O    0.9776703824   -1.9003643918   -1.0086306460
 C    0.5245486442   -0.5769842911   -1.2565990072
 C    1.3059095743   -0.3633816457    2.3565144669
 O    0.6966669763    0.3330070432    3.1380517300
 H    0.8199780415    1.9902524471   -0.1198397167
 H   -0.9305164487    1.8494304464   -0.3395898570
 H   -0.2333357420    1.7428132206    1.2854801943
 H   -1.3423414841   -0.5314996434    1.7141804603
 H   -1.1677421858   -1.8550167626    0.4454160487
 H    2.6043061465   -1.6647818482    0.2929480566
 H    1.4497731505   -2.9730315681    0.6524901509
 H   -0.2644314601   -0.6387371241   -2.0140371206
 H    1.3340359969    0.0599327325   -1.6508866617
 H    2.3798658705   -0.6018199000    2.5315243653