21

 C    0.3288224850    1.6550511419    0.0801481379
 C    0.0335899251    0.1642796380    0.0393364610
 C    0.8057188167   -0.7315373845   -0.9858331917
 C    1.2289375391   -1.6954614196    0.1624316583
 C    0.8968664876   -3.1570582603    0.0352263982
 O    1.7413359704   -3.6964920735   -0.9746895104
 C    2.5554639744   -1.2905386817    0.8260646625
 O    1.8922336415   -0.3047447838    1.6556579147
 C    0.5892928995   -0.7143730394    1.1894227780
 H    1.3909293314    1.8274101527    0.2745732045
 H    0.0675707353    2.1319165761   -0.8706120511
 H   -0.2407683152    2.1526009758    0.8728639955
 H   -1.0454487066   -0.0077022942   -0.0511411374
 H    0.1783399701   -1.1948948928   -1.7506570023
 H    1.6448116996   -0.2394850507   -1.4855272786
 H    1.0573980659   -3.6622495286    1.0019984004
 H   -0.1671168956   -3.2789073782   -0.2271521916
 H    1.5375366192   -4.6313363452   -1.0725532940
 H    3.0145508380   -2.0790274378    1.4376940859
 H    3.3205374088   -0.8465879079    0.1786451271
 H   -0.0741201703   -0.9919713261    2.0154388032