21

 C   -0.2070165309    1.6072075214   -0.0006246542
 C    0.0525679881    0.1064342870   -0.0045872759
 C    1.1200204721   -0.5718405181   -0.9198569791
 C    2.3945986076    0.1847624239   -0.5368980067
 C    2.3532028376   -0.1187707472    1.0154394938
 C    3.1179592008   -1.4217949676    1.1640717733
 C    2.4003484405   -2.3846730702    0.5726487315
 C    1.0949265326   -1.7830620797    0.1454811127
 C    0.8593909266   -0.5892493108    1.1143987476
 H    0.6868011161    2.1947855273    0.2261695446
 H   -0.5924784357    1.9463417372   -0.9690429899
 H   -0.9591151542    1.8584791138    0.7558013624
 H   -0.9017127281   -0.4202623431   -0.1232830128
 H    0.9337521045   -0.7577144769   -1.9779051856
 H    3.3020674385   -0.2074115876   -1.0004854918
 H    2.3246130694    1.2495798532   -0.7701034062
 H    2.6629481557    0.7050573627    1.6585186263
 H    4.1314127630   -1.4960620601    1.5402224394
 H    2.7032917688   -3.4086232745    0.3913788996
 H    0.2499413388   -2.4534144303   -0.0130055357
 H    0.4688797082   -0.7485340204    2.1218130565