18

 O   -0.6957945320    1.1335739169    0.9360145553
 C   -0.0155490181    0.1668614460    0.1365266346
 C    0.8952471846   -0.7648664495    0.9739148061
 C    0.0190800595   -1.9308886303    1.4022292852
 C   -1.3424956069   -1.6375797147    1.9616701732
 C   -1.2008351643   -1.9478065994    0.4778040701
 C   -1.0851800010   -0.7575055200   -0.4773297767
 C   -1.7371104939   -3.1770361965   -0.0292172560
 N   -2.1709089599   -4.1641656237   -0.4503821354
 H   -0.0330688643    1.6880531395    1.3605300096
 H    0.5572748022    0.6773712361   -0.6486936270
 H    1.7198348943   -1.1350640668    0.3539228232
 H    1.3404663297   -0.2274532364    1.8193186579
 H    0.4936104010   -2.8652823231    1.6781184711
 H   -1.8004446430   -2.4088202717    2.5700133003
 H   -1.5971107863   -0.6179763636    2.2229992545
 H   -2.0253639733   -0.2164446292   -0.6092445256
 H   -0.7582791283   -1.1137718536   -1.4587130306