17

 C   -0.0284627892    1.3437737427    0.0572271247
 C    1.3586101858    0.7297617265    0.0176873507
 C    2.2677017340    0.6752949846    1.2158579489
 N    1.7659053822   -0.2141979601    2.2743640896
 C    0.7110482097   -0.8909955438    2.1397577252
 O   -0.1875276581   -0.9587356130    1.0966961025
 C    0.1410905675   -0.1496375873    0.0155222827
 C    0.5371924191   -0.6538705071   -1.3662335310
 N    1.7385470992    0.2488699032   -1.3219354558
 H   -0.3409892093    1.7328176809    1.0212411336
 H   -0.4172395286    1.8814442776   -0.8040229380
 H    3.2422734722    0.2911409663    0.8968060087
 H    2.4477999246    1.6558801203    1.6724850223
 H    0.3691194226   -1.5495853689    2.9345978596
 H    0.8373293655   -1.7060312549   -1.3742976810
 H   -0.1784640244   -0.4754045679   -2.1771940779
 H    1.7337464671    0.9762917409   -2.0326689847