15

 C   -0.0892511181   -1.2057467347    0.0442730507
 C   -0.0493133293   -0.0042827947    0.0628620584
 C    0.0102766544    1.4299362054    0.0396746094
 N    0.6142010217    2.1141449156    1.2206521588
 C    1.3071824478    2.1558589306   -0.0467374035
 C    2.7081676445    1.6262037492   -0.3144034374
 O    2.9689246565    2.7457599284   -1.1978081478
 C    1.6878382012    3.3464046254   -0.9228191900
 H   -0.1279079349   -2.2669971196    0.0413892981
 H   -0.8401943040    1.9187165741   -0.4325753460
 H    0.1220769916    2.9887214114    1.3943113547
 H    3.3702903026    1.6216874186    0.5595424171
 H    2.7696121973    0.6631518931   -0.8334221542
 H    1.0932783851    3.5010032699   -1.8320234087
 H    1.7842332036    4.3016254773   -0.3867602094