13

 C   -0.0004530061    1.5331493734   -0.0301839272
 C    0.0007208942    0.0363133915    0.0150172116
 C   -0.0600968472   -0.8272242830   -1.0400490296
 O   -0.0382100342   -2.1178565748   -0.6332383191
 C    0.0392149776   -2.0902575157    0.7291979846
 C    0.0659276145   -0.7984375394    1.1745940301
 C    0.0768867838   -3.3238584914    1.4135345871
 N    0.1090889162   -4.3242167582    1.9972708502
 H    0.9086634178    1.9457128089    0.4199436406
 H   -0.0582982935    1.8953174393   -1.0597860805
 H   -0.8523131211    1.9473484477    0.5194485635
 H   -0.1205579735   -0.6760404933   -2.1059222481
 H    0.1249153113   -0.4864689350    2.2056987967