15

 C   -0.0262451436    1.4812853418    0.0928947012
 N    0.0863841335    0.0330359013    0.0023432761
 C    0.6276028388   -0.7203750541    0.9757875420
 C    0.7295909933   -2.0982132130    1.1556280057
 C    0.2357547375   -3.1655502799    0.3219066693
 O    0.3673304321   -4.3513623325    0.5497817262
 C    1.4529605626   -2.1924274307    2.3803822366
 N    1.7607742940   -1.0406060307    2.8995549567
 O    1.2171166342   -0.0773274421    1.9824789713
 H    0.9415946330    1.9142688653    0.3544881030
 H   -0.3296205828    1.8657908073   -0.8818833013
 H   -0.7602082823    1.7946837315    0.8449721147
 H   -0.4710424891   -0.4484436713   -0.6827675657
 H   -0.3047822202   -2.8264124006   -0.5959480988
 H    1.7522314390   -3.0995093224    2.8867906630