17

 O    0.0552039339    1.4062978558   -0.0490390119
 C   -0.0349271491    0.0241164999   -0.0537363240
 C   -0.4708416383   -0.6815594956   -1.3140316299
 C   -1.3174384422   -0.7818996012   -0.0631342989
 C   -1.1277295754   -1.9948880397    0.8546078307
 C   -0.1307800990   -3.0456311345    0.4804292676
 C    0.2788008706   -1.9363709253    1.4394581325
 C    0.8788535343   -0.6568094201    0.9423585231
 O    1.8305356966   -0.0774578017    1.4190024592
 H    0.8523695936    1.6005753710    0.4682589352
 H   -0.8369268622    0.0056202343   -2.0701029962
 H    0.0609921296   -1.5353625520   -1.7157998022
 H   -2.2844691533   -0.2940868925   -0.0602682131
 H   -1.9666239802   -2.2763648994    1.4794367021
 H   -0.2411350442   -4.0212242082    0.9413970943
 H    0.2905456403   -3.0842482015   -0.5153653127
 H    0.5174340952   -2.2030866794    2.4613645241