17

 C   -0.1646378000    1.4711201930    0.3558966428
 C   -0.0321644282   -0.0090096833    0.0527819732
 O    0.7287972617   -0.6035137983    1.1187774502
 C    0.9630199060   -1.9226907767    1.0225227236
 N    0.5526020445   -2.6382184130    0.0606923505
 C    1.7531150356   -2.3899364994    2.2095341870
 C    1.1898315722   -3.4024429382    3.1200506903
 O    2.1872446193   -3.7434110275    2.1583290905
 H    0.8179776170    1.9480675351    0.4134696888
 H   -0.7397011109    1.9614717759   -0.4351369378
 H   -0.6807412759    1.6312769146    1.3068513169
 H   -1.0056136956   -0.5066810332   -0.0087064153
 H    0.4839399010   -0.1926210715   -0.8951882233
 H    0.8806156777   -3.5947378453    0.1993888818
 H    2.4741332613   -1.6761027830    2.6036379466
 H    1.5112392541   -3.4275459810    4.1596923413
 H    0.1954005903   -3.7954815682    2.9177618730