16

 N   -0.0579977594    1.3276711284    0.0081732199
 C    0.0374285033   -0.0339191096    0.0028697156
 O    1.1054545635   -0.6172300141   -0.0078995416
 C   -1.2704165535   -0.7657613034    0.0116271508
 C   -1.3426641529   -2.1044718639    0.0087609062
 C   -2.7532494467   -2.5555152459    0.0192411489
 O   -3.1557388430   -3.6943373598    0.0194548170
 C   -3.6282246860   -1.2895319646    0.0287305343
 C   -2.6383495469   -0.1079178252    0.0243610343
 H    0.7954517016    1.8613352826    0.0031236055
 H   -0.9354777320    1.8153883178    0.0177789446
 H   -0.4948694288   -2.7756865429    0.0001415224
 H   -4.2863142695   -1.2986936511   -0.8446350423
 H   -4.2737118092   -1.3029894205    0.9113764695
 H   -2.7570871359    0.5339416481    0.9063422320
 H   -2.7709531545    0.5391972242   -0.8517672871