19

 C   -0.0317003119    1.4679920859    0.0861351971
 C   -0.0231458360   -0.0237046666    0.0121580317
 C   -1.0323586049   -0.8780304393    0.1669997591
 C   -0.5601370013   -2.3028592403   -0.0145072590
 C   -1.2736593320   -3.0731446153   -1.1249116198
 O    0.8390974316   -2.1743101393   -0.2958651819
 C    1.2288332407   -0.8042178037   -0.2992628645
 C   -0.6932643011   -3.0252593826    1.3354702995
 O   -1.6377384873   -3.6903189030    1.6693542849
 H    0.6607832256    1.8280047474    0.8571952860
 H    0.2979275126    1.9115689627   -0.8616172431
 H   -1.0277097741    1.8536342006    0.3156398964
 H   -2.0624649853   -0.6355963704    0.3956419965
 H   -1.2623839566   -2.4974637602   -2.0534520891
 H   -0.7728042165   -4.0300860316   -1.2958032023
 H   -2.3067546827   -3.2754436646   -0.8325552869
 H    1.6515529555   -0.5331405954   -1.2801666033
 H    2.0202936739   -0.6362567446    0.4478177806
 H    0.1805404899   -2.8477072898    2.0020218382