16

 O   -0.0391208937    0.0341737018    0.5113462054
 C   -0.0815206881    1.1730017835    0.1505444283
 C   -1.1937663960    2.2140325608   -0.0886701420
 C   -0.0353725781    3.2519077102   -0.0791170527
 C    0.5238618885    3.7118610663    1.3122510462
 C    1.6318210184    2.6305040929    1.1658451203
 N    0.9705279089    2.1047759767   -0.0747037768
 C    0.0163737964    4.2130897646   -1.1541367623
 C    0.0406112532    5.0337720405   -2.0325645566
 H   -1.7108774457    2.1336244261   -1.0469901883
 H   -1.9265863234    2.2811905256    0.7176804328
 H    0.8658274004    4.7462438327    1.3440472258
 H   -0.1714978634    3.5370496091    2.1366510512
 H    2.6236498096    3.0295831251    0.9442814788
 H    1.7108357861    1.8810559360    1.9562832791
 H    0.0684985268    5.7507189878   -2.8158414893