14

 C    0.0013857093    1.5390051618   -0.0622250274
 C   -0.0336746108    0.0436722339   -0.0784249959
 C   -1.1291055382   -0.7367756691    0.0864521202
 O   -2.3461466570   -0.2638755887    0.2890071324
 C   -1.0507902293   -2.2224870360    0.0520086406
 N   -2.1820517329   -2.8025653732    0.2258543238
 O    0.1179548753   -2.7887353592   -0.1439659069
 N    1.4284306474   -1.7818367754   -0.3401629700
 N    1.1705731881   -0.6194080031   -0.2817782723
 H    0.6515099930    1.9093160674    0.7373844225
 H    0.3859156428    1.9339218105   -1.0083565070
 H   -1.0037478520    1.9317967985    0.0965548763
 H   -2.8958676786   -1.0854865514    0.3647446024
 H   -2.1153519672   -3.8169728959    0.2005608213