22

 C    0.0416154011    1.5072836495   -0.2393066863
 C    0.0136140495    0.0021311180    0.0084025734
 O    0.8142727076   -0.3507951773    1.1360866812
 C   -1.4231600440   -0.5738653829    0.1157951965
 C   -1.4079163926   -2.1064756554    0.1409067972
 N   -2.1850676721   -0.0128657398    1.2357648034
 C   -2.0309872944   -0.5423921063    2.5885758740
 C   -3.1633880469    0.9143280138    1.0194464946
 O   -3.8796097144    1.3962551309    1.8728442915
 H    1.0748851783    1.8531034071   -0.3307445828
 H   -0.4902335541    1.7701847697   -1.1590334925
 H   -0.4345916577    2.0482520116    0.5867044710
 H    0.4836362328   -0.5049671740   -0.8447098984
 H    0.7280873083    0.3522732477    1.7879342332
 H   -1.9470239156   -0.2534409013   -0.7936449426
 H   -2.4214335284   -2.5061546157    0.2338729166
 H   -0.9751324758   -2.4877204500   -0.7887104886
 H   -0.8011819359   -2.4829231640    0.9676479838
 H   -2.3993258204    0.2102851312    3.2860919354
 H   -2.6184420299   -1.4572842879    2.7332596547
 H   -0.9837359090   -0.7682323245    2.7870837817
 H   -3.2347769863    1.1968204296   -0.0497292470