17

 C   -0.0507736744    1.6324500756   -0.5895002300
 C   -0.0444939678    0.1922525050   -0.1409488127
 C    1.1855158120   -0.6580611487   -0.2625264366
 C    0.6694810079   -0.2449399861    1.1021190267
 O   -1.2351812336   -0.5182412824   -0.4706177969
 C   -2.3401824707   -0.2386949944    0.2750262272
 N   -3.3711183554   -1.0412529170   -0.1304464899
 O   -2.3968842608    0.5663125330    1.1731643251
 H    0.9193112916    2.0951240097   -0.3867306813
 H   -0.2405737218    1.6990767946   -1.6662055844
 H   -0.8209955537    2.1950153246   -0.0571355577
 H    1.0423905665   -1.6907006400   -0.5588531875
 H    2.0879069166   -0.1944537567   -0.6456230931
 H    1.2127915218    0.5057469095    1.6650182327
 H    0.1919697327   -1.0043824605    1.7092623920
 H   -3.2971648890   -1.5128004239   -1.0157603108
 H   -4.2871425319   -0.7792816325    0.1905311071