17

 O   -0.1637115125    0.0342715702   -0.1140821365
 C   -0.0025168620    1.2260261411   -0.1630538936
 C    1.3432370359    1.9206416675   -0.0553637760
 C    1.4604665787    3.0077558359   -1.1267153399
 C    1.9049703298    4.1511863250   -0.5685847072
 C    0.8410174364    5.1577027574   -0.1105948234
 C    1.0057840632    4.3582799022    1.2383699697
 C    1.4422173141    2.8322229940    1.1985507707
 C    2.3940407316    3.9223479395    0.8710548487
 H   -0.8672368332    1.9222312607   -0.2617874304
 H    2.1120258023    1.1388370671   -0.0207816478
 H    0.7694744042    3.0097220820   -1.9662765486
 H    1.1714959151    6.1891111288    0.0549745013
 H   -0.1137359707    5.1443741684   -0.6432238115
 H    0.6928983489    4.7543877634    2.2015222853
 H    1.4463756637    2.3734936414    2.1855837249
 H    3.3533430346    4.1637052754    1.3084396543