16

 O    0.1042436563    1.3100483069    0.3001613662
 C    0.0251704866   -0.0092408598   -0.1965720647
 C   -1.3856781195   -0.5764788489   -0.0873821193
 C   -2.3936256361    0.1596457503   -0.8106597624
 N   -3.2106266568    0.7399277763   -1.3885934203
 C   -1.7150786101   -2.0752504672    0.0155556638
 C   -0.6794418620   -2.7778705181    0.8867498400
 O   -0.8544168430   -1.7887086466    1.9442147452
 C   -1.9105432003   -1.1844693397    1.2096543593
 H   -0.0457969420    1.2772920574    1.2510633511
 H    0.3175744671    0.0430742266   -1.2492670198
 H    0.7241926216   -0.6770055892    0.3186228298
 H   -2.4298752216   -2.5447383175   -0.6449559554
 H   -1.0234096560   -3.7583053778    1.2308391546
 H    0.3548292110   -2.8464989152    0.5367469637
 H   -2.7834433151   -0.8257328974    1.7412929583