25

 C   -0.4124967668    1.1274616660   -1.4620231296
 C    0.0940961866   -0.2177981378   -0.9483278206
 C    1.5528786122   -0.5891577298   -1.3499969600
 C    2.0292278847   -0.3965635010    0.1275946181
 C    2.7774560089   -1.5857006394    0.7290654793
 C    2.8473642598    0.8854526900    0.3185665311
 C    0.5195548824   -0.2984306744    0.5539726816
 C    0.0699844417    0.7807674246    1.5203985856
 O   -1.3368423482    0.6349252787    1.6954205473
 H    0.3092352141    1.9346187721   -1.2953356133
 H   -0.5982706774    1.0791579429   -2.5406879049
 H   -1.3468728115    1.4039268433   -0.9639120586
 H   -0.6389616648   -0.9846302080   -1.2136871492
 H    1.6593762498   -1.6196225585   -1.7010592922
 H    2.0236727147    0.0713037211   -2.0854030391
 H    3.7656547359   -1.7043292384    0.2684732983
 H    2.9287831277   -1.4564246849    1.8077090886
 H    2.2249700504   -2.5193566862    0.5793630628
 H    2.3596055813    1.7610787799   -0.1192795436
 H    3.0275812110    1.0968975114    1.3790561478
 H    3.8250559386    0.7810823158   -0.1662873479
 H    0.1944680211   -1.2554446172    0.9762297412
 H    0.6007924321    0.6630734453    2.4797748681
 H    0.3118127260    1.7824546188    1.1372844538
 H   -1.6419074906    1.3435634555    2.2696849153