18

 C   -0.0998436667    1.5364431375    0.1414164522
 C    0.0129839989    0.0214165174    0.1923922441
 O    0.9866862812   -0.5689637897    0.6217193763
 N   -1.0716511705   -0.6533865329   -0.2936210478
 C   -2.4786054888   -0.2746461624   -0.4738562460
 C   -2.8521860644   -1.7805173089   -0.4128655738
 C   -1.3421741759   -2.0918219499   -0.1217783405
 C   -0.6689776467   -2.9878510602   -1.0480604009
 C   -0.1522027660   -3.7498408138   -1.8201040227
 H    0.8778446621    1.9642088374    0.3616062444
 H   -0.4445271569    1.8828148462   -0.8375585427
 H   -0.8171829497    1.8926908417    0.8895508618
 H   -2.8845023466    0.3312336016    0.3446514248
 H   -2.6911174404    0.2294829125   -1.4225652750
 H   -3.5342870146   -2.0618024294    0.3888694981
 H   -3.2026681990   -2.1959734903   -1.3564628885
 H   -1.1494666102   -2.4162537060    0.9078959676
 H    0.3276913744   -4.4155426210   -2.4941238813