18

 C    0.0168477134    1.4134944472    0.1029710125
 C    0.0478535434   -0.0882353758   -0.0542836866
 O    1.0794049690   -0.7019345270   -0.2331686689
 C   -1.2691701564   -0.8682050446    0.0106977481
 O   -1.0166634399   -2.2333726496   -0.1914662728
 C   -2.0044576230   -0.6356046453    1.3411511544
 C   -3.3023539679   -1.4305968498    1.4159051349
 O   -3.9223730521   -1.1178422878    2.6546376089
 H    0.9589643442    1.8384855162   -0.2454181364
 H   -0.8234723239    1.8554807134   -0.4407789709
 H   -0.1138726673    1.6679733886    1.1610100574
 H   -1.9046153044   -0.4813624015   -0.8077641605
 H   -0.0528475589   -2.2957725922   -0.3020614783
 H   -1.3568769284   -0.9334600901    2.1738291547
 H   -2.2378323618    0.4279252362    1.4643240860
 H   -3.9504105839   -1.1592306768    0.5652319243
 H   -3.0759245520   -2.5011058520    1.3305181150
 H   -4.6795787401   -1.6999280990    2.7650089182