19

 C   -0.4200274818    1.4147820791   -0.4190622714
 O   -0.6367984183    0.0414655428   -0.6420659337
 C   -0.8617922827   -0.6778466158    0.5488729643
 C   -1.0810885772   -2.1179508226    0.1946733038
 C   -0.1197455218   -2.9537808937   -0.6915737729
 C   -1.3049533803   -3.9071385159   -0.8445692268
 C   -2.0413344135   -3.8211903094    0.5043574370
 O   -1.2849302535   -2.9671110695    1.3645695892
 C   -2.3055258377   -2.7959091186   -0.5393455764
 H   -0.2618665966    1.8824822514   -1.3936655178
 H   -1.2851665706    1.8907667214    0.0687506720
 H    0.4670701415    1.5907092336    0.2095634565
 H    0.0037857293   -0.6063956197    1.2309044681
 H   -1.7385369353   -0.2883074765    1.0913260317
 H    0.1049431292   -2.4354509828   -1.6253747678
 H    0.7959294829   -3.3091555325   -0.2075580823
 H   -1.4237195972   -4.7423226374   -1.5226460610
 H   -2.6478766942   -4.6035693543    0.9402355299
 H   -3.1892269422   -2.4284099193   -1.0410260925