12

 C    0.0010187327    1.4319437371    0.1339526345
 C   -0.0170777391   -0.0406809644   -0.0480307367
 N   -0.1439536282   -0.7185319507   -1.1520159629
 C   -0.0960663795   -2.0395619894   -0.7640785919
 C    0.0609527500   -2.1032563318    0.5874082057
 O    0.1129674825   -0.8126567541    1.0571077229
 C    0.1696041293   -3.1663835326    1.5041379600
 N    0.2569412418   -4.0568935434    2.2400930744
 H    0.9424570101    1.7561334889    0.5883454724
 H   -0.1133051397    1.9097327557   -0.8387122862
 H   -0.8120876889    1.7524387858    0.7927658072
 H   -0.1759968210   -2.8534528609   -1.4666655393