16

 O    0.1430800229    1.3831518754   -0.2351479481
 C    0.0797248760    0.0302611032   -0.0768259510
 C    0.0769790562   -0.8651933704   -1.1225023071
 N   -0.0214094809   -2.1346906276   -0.5787559850
 C    0.0754699903   -3.3547077792   -1.3365478083
 C    1.5142350926   -3.7062670425   -1.7230026621
 O    1.7901494870   -4.5210122020   -2.5608091691
 C   -0.0588018725   -2.0404472089    0.7853106776
 C   -0.0052774448   -0.7081571342    1.1351963285
 H    0.1335735230    1.7925466577    0.6345151691
 H    0.1167033137   -0.7064989373   -2.1869304124
 H   -0.3243393280   -4.1819245887   -0.7386835580
 H   -0.5285079050   -3.2976193587   -2.2479855226
 H    2.2883133958   -3.1487075287   -1.1495693010
 H   -0.1283896129   -2.9261596786    1.3969113966
 H   -0.0406386435   -0.3095547495    2.1382086229