23

 C   -0.3990445665    1.4765800815   -0.2046169911
 C    0.4009823797    0.1772208180   -0.0942417109
 C    1.0422225936   -0.2672508013   -1.4098441271
 C    1.9111593597   -1.5137407499   -1.2316867147
 O   -0.0288830356   -0.5168132969   -2.3299501037
 C    0.3111498590   -0.4565726652   -3.6990163349
 C   -0.8478804910   -1.0642443678   -4.4918880433
 C    0.5119852784    0.9916129560   -4.1442783079
 O    1.2331319063    1.3342430842   -5.0439535312
 H    0.2388101335    2.3097177819   -0.5216477871
 H   -1.2056335982    1.3721594495   -0.9344464866
 H   -0.8429060765    1.7474828827    0.7579889071
 H    1.1964724473    0.2864171076    0.6524083997
 H   -0.2490356957   -0.6346667792    0.2551869150
 H    1.6665557936    0.5562748311   -1.7960231134
 H    2.3588361786   -1.8368782074   -2.1759538892
 H    2.7276279596   -1.3137326259   -0.5307172466
 H    1.3094232726   -2.3391443492   -0.8383863205
 H    1.2358531852   -1.0069677301   -3.9205670441
 H   -1.7702060075   -0.5025456378   -4.3137065225
 H   -0.6250134335   -1.0508066328   -5.5616898741
 H   -1.0086751127   -2.0959664522   -4.1695067388
 H   -0.1086603201    1.7186674032   -3.5694650141