25

 C    0.0252727499    1.5476456656    0.3596906717
 C   -0.1063918223    0.0494963802    0.0723680471
 C    0.7451368499   -0.4072941652   -1.1194211187
 C    0.6680997442   -1.9119178552   -1.3910309729
 C   -0.6955423956   -2.4480579293   -1.8610721847
 C   -0.3038975363   -3.8121037015   -2.4287108101
 O    0.9941390290   -3.6486188518   -2.9911462435
 C    1.6179562864   -2.4563993562   -2.4907986155
 C    1.8909269693   -1.5198462613   -3.6670695750
 H    1.0627693223    1.8177942940    0.5863272344
 H   -0.2892628391    2.1455242830   -0.5030436900
 H   -0.5906316670    1.8467478978    1.2135406723
 H    0.1840778819   -0.5221092449    0.9640377079
 H   -1.1598403300   -0.1938316279   -0.1138343224
 H    0.4379938816    0.1483356529   -2.0146768604
 H    1.7913225150   -0.1278139065   -0.9319897964
 H    0.9239224222   -2.4367391746   -0.4598391232
 H   -1.4343633077   -2.5223857042   -1.0595640315
 H   -1.1114385784   -1.8048826563   -2.6459525450
 H   -0.2791384954   -4.5717904825   -1.6310707653
 H   -0.9791706262   -4.1722807969   -3.2124412611
 H    2.5799484876   -2.7438366685   -2.0440538359
 H    0.9609108321   -1.1572222024   -4.1164584269
 H    2.4900976893   -0.6564014833   -3.3610749812
 H    2.4442485574   -2.0643422752   -4.4371859737