15

 O    0.2399197669    1.3778900494   -0.0991514566
 C    0.1744078995    0.0154843223   -0.0710140174
 C    0.3916299487   -0.9734313909    1.1100718124
 O   -1.0600219745   -0.9374264862    1.5210016715
 C   -1.0763347772   -0.9313216727    0.0662114373
 C   -1.8462098108   -0.8887822444   -1.2287787893
 C   -0.8242794449   -0.8773858840   -2.1051659713
 C    0.4849476652   -0.9193711480   -1.2713886393
 C    0.1232986897   -1.8921811123   -0.0983275908
 H   -0.1619322558    1.7137798362    0.7124485411
 H    1.1134333449   -1.0301464291    1.9227788749
 H   -2.9107855843   -0.8510098228   -1.3982797642
 H   -0.8779110169   -0.8466810504   -3.1838215188
 H    1.4406110102   -0.9370736523   -1.7932833359
 H    0.0514148393   -2.9773059649   -0.1049052937