17

 C    0.3083011308    1.3282587008   -0.1095030598
 O   -0.1525731692    0.0139896051    0.1667327452
 C    0.5619709495   -0.6111058596    1.1896476478
 C    0.1663493706   -2.0829135583    1.4053083468
 O    1.5353880220   -2.5079084721    1.1255973693
 C    1.9253381625   -1.2060047805    0.8423758549
 N    3.0110496824   -0.7476174585    0.4260987823
 C    4.1117024320   -1.6610469260    0.1462866498
 H    1.3588690404    1.3261384859   -0.4217949992
 H   -0.3159048513    1.7172083852   -0.9165822453
 H    0.2017227875    1.9786076739    0.7723358168
 H    0.5778521111    0.0004071529    2.1043406048
 H   -0.1411440253   -2.3762800720    2.4110047783
 H   -0.5297029183   -2.4592795935    0.6526199021
 H    3.8508231613   -2.7202925098    0.2511974957
 H    4.4704867757   -1.4830466267   -0.8729107033
 H    4.9442800484   -1.4361947768    0.8222337839