16

 O    0.0552708802    0.0331414239   -0.0509550611
 C   -0.0068585325    1.2178843348    0.0221290365
 O    1.1402888648    1.9837394033   -0.0592257317
 C    1.0122664882    3.3328947374   -0.0221860108
 N   -0.0588251225    4.0239020961   -0.0261180045
 C    0.5567899571    5.4039506735    0.0291711885
 C    1.7028681650    5.2998074348   -1.0208484754
 C    2.2207689281    4.2477753120    0.0274497189
 C    1.6606504681    5.2367811065    1.1155104871
 H   -0.9074109741    1.8296823595    0.1599709231
 H   -0.1843850825    6.1995845375    0.0378897514
 H    1.4389325707    4.9372788371   -2.0166638001
 H    2.3356109269    6.1885333045   -1.0784222926
 H    3.2223768591    3.8240683223    0.0347938259
 H    2.2902353253    6.1193674572    1.2510685844
 H    1.3580407480    4.8166846296    2.0772436702