21

 C    0.1769419461    1.5792418340    0.0080888617
 C    0.0332816371    0.0661906586    0.0286754288
 C    0.9298608845   -0.7994997407   -0.9190156716
 C    1.3984599134   -1.6617478925    0.2880585630
 C    2.6490936228   -1.1175840020    0.9881329252
 O    1.8730049477   -0.1265438204    1.7083819892
 C    0.6176733107   -0.7069341302    1.2399067304
 C   -0.2446008382   -1.0660318413    2.4251079100
 O   -0.4986972220    0.0915173999    3.2053259398
 H    1.2154788540    1.8669597120    0.1945735906
 H   -0.1282466756    1.9897154767   -0.9603710373
 H   -0.4435247939    2.0359866527    0.7854528453
 H   -1.0191559922   -0.2146845266   -0.0941292501
 H    0.3794019365   -1.3495271543   -1.6850998650
 H    1.7404404410   -0.2500408178   -1.4078232445
 H    1.2540051739   -2.7404087666    0.2411595883
 H    3.1311952142   -1.8213905306    1.6790859478
 H    3.4150683918   -0.6581701422    0.3513963586
 H   -1.2162869546   -1.4513188471    2.0981422118
 H    0.2489383299   -1.8521074246    3.0197332638
 H    0.3676565631    0.4725584231    3.3959342241