16

 C    0.3293749917    1.3368249863    0.1880229438
 N   -0.2958560892    0.1243096957   -0.3416565759
 C    0.4872513635   -0.5136532900   -1.3482188565
 C    1.6009927671   -1.4773392157   -1.0272215325
 O    1.8156045790   -1.7012372876    0.3241395944
 C    0.2884351276   -1.9958197323   -1.6518316476
 C   -0.5695849369   -2.7873308507   -0.8229828828
 N   -1.2355954481   -3.4363268789   -0.1332337208
 H    1.3221511250    1.1699605574    0.6326457693
 H    0.4351311210    2.0719848464   -0.6176188063
 H   -0.3259246015    1.7702270507    0.9481252433
 H   -0.4807673491   -0.5249888695    0.4152069938
 H    0.6307929267    0.1056773150   -2.2303381904
 H    2.4824132847   -1.5182143472   -1.6666641968
 H    1.9161908069   -2.6473236677    0.4799012165
 H    0.3114729214   -2.2959013318   -2.6938601215