21

 C    0.0102501091    1.4598549115   -0.0407637814
 C   -0.0073920495   -0.0479499625   -0.0232660310
 C   -0.8847811820   -0.8112902315    0.9411730753
 C    0.6191774217   -0.9270616940    1.0436452421
 C    1.3768551244   -1.9417467886    0.1610318752
 C    0.3701746570   -2.2953227566   -0.9684335801
 C    0.5196713902   -0.7814458661   -1.2800471660
 O    0.0934226649   -0.1925278560   -2.4679572335
 C    2.0349741836   -0.9726150016   -0.8771426032
 H    0.9723476957    1.8471842325   -0.3941057226
 H   -0.7638823213    1.8525141760   -0.7083978293
 H   -0.1685229196    1.8656958139    0.9600409349
 H   -1.3508221382   -0.2008524957    1.7095269597
 H   -1.5039579819   -1.6448223389    0.6330891866
 H    1.1295899278   -0.5070862581    1.9040039409
 H    1.9523307265   -2.7199452809    0.6600316675
 H    0.8458736639   -2.9063999131   -1.7405276209
 H   -0.6069350656   -2.7139336107   -0.7282525805
 H    0.4973872948   -0.6641224574   -3.2031178604
 H    2.5761434760   -0.1045481745   -0.4920690666
 H    2.6251816726   -1.4864281177   -1.6432604767