21

 C   -0.0594872609    1.5149807855    0.0684647253
 C    0.0221667456    0.0179099562    0.0503851433
 C   -0.0401913687   -0.8788364916   -1.1520176194
 C    1.1656992465   -1.8155162937   -1.2366477189
 C    1.9065151976   -1.5840422362    0.1099586892
 C    0.8456930450   -0.9191576561    0.9964322847
 C   -0.4265463794   -1.8178801260    1.1483964908
 O   -1.1262738556   -1.6461518686    2.3651575369
 C   -1.0517921558   -1.0694190737   -0.0260403067
 H    0.9081872668    1.9711740709   -0.1740201076
 H   -0.7862760938    1.8767090153   -0.6668987975
 H   -0.3643040960    1.8977896819    1.0498982100
 H   -0.4618703161   -0.4753300389   -2.0676410120
 H    0.8622447870   -2.8603898538   -1.3619709131
 H    1.7971210460   -1.5642924688   -2.0944002120
 H    2.2908610987   -2.5114288366    0.5470627513
 H    2.7591200783   -0.9102113645   -0.0313119728
 H    1.2087187671   -0.5123922838    1.9419631807
 H   -0.2742404306   -2.8992307026    1.0557186572
 H   -1.3728925244   -0.7163313202    2.4291235279
 H   -2.1188383372   -0.9787792145   -0.2064019374