21

 C   -0.0222023897    1.5051596814    0.0119499479
 C    0.0820958089   -0.0002209085   -0.0617214870
 C    0.4763941634   -0.6746678776   -1.3984403464
 C   -0.5982390996   -1.6863941921   -0.9694717950
 C   -0.0461449273   -2.7738056931   -0.0321359298
 C    0.6914007182   -2.1454306778    1.1526570783
 C    2.0295037933   -1.4570323145    1.0233721145
 C    0.7687405454   -0.6335421551    1.1449609751
 O   -1.2380741767   -0.6503100477   -0.1755244222
 H    0.9765813931    1.9542475507    0.0346199831
 H   -0.5674607636    1.8983839987   -0.8501641664
 H   -0.5516109143    1.8081314799    0.9215473479
 H    0.1425544804   -0.0694853522   -2.2437248133
 H    1.4996267371   -1.0111008794   -1.5671150668
 H   -1.2702798687   -2.0962788999   -1.7284255542
 H   -0.8937487600   -3.3528725240    0.3495966631
 H    0.5881247424   -3.4699672178   -0.5960955765
 H    0.5029606967   -2.6209873487    2.1092686773
 H    2.6851153456   -1.4861198898    1.8877408285
 H    2.5599292988   -1.4910332182    0.0789727254
 H    0.6050568364   -0.1078883043    2.0810108266