18

 O   -0.5917756782    0.9651381763   -0.7701711797
 C    0.2622989159    0.9662104746    0.0862820516
 C    1.4351870612    1.8775675897    0.0609015399
 C    1.7437804959    3.0524638521    1.0651729040
 C    2.9036386533    3.0820856614    0.0212459154
 C    2.9597900286    1.5273682140    0.1581589590
 C    1.8247620182    2.8598087704   -1.0549042282
 C    1.7902721099    2.7803728491   -2.5180267536
 N    1.0359452026    3.8346485185   -1.7663891683
 H    0.1999434300    0.2772435951    0.9589376794
 H    1.0447352186    3.8902652465    1.0488817706
 H    2.0124825124    2.7560031302    2.0821548376
 H    3.7453683304    3.7724856081   -0.0073979915
 H    3.3035502421    1.1439008584    1.1216014626
 H    3.3777675093    0.9672126574   -0.6809471593
 H    2.6148301043    3.1591565733   -3.1158534045
 H    1.2172866653    1.9789698603   -2.9755480706
 H    0.0526645703    3.5724306747   -1.7345812544