24

 C   -5.2461927704   -0.7268237798    1.7960459251
 C   -4.0819241323   -1.7076746809    1.6340093670
 C   -3.2273624867   -1.4101453104    0.3924970031
 O   -2.6618464764   -0.0977882871    0.4464847407
 C   -2.1528708757   -2.4648503888    0.1316507017
 C   -1.1341529477   -2.6683609190    1.2398311314
 C   -2.5106963076   -3.6227905629   -0.7455554444
 N   -1.5771727056   -2.6056170647   -1.2105376820
 C   -1.9850621830   -1.7329432984   -2.3031115104
 H   -5.8061894414   -0.9240641760    2.7149971520
 H   -4.8791284267    0.3023658907    1.8284694947
 H   -5.9450026097   -0.8029647783    0.9555172251
 H   -3.4443745885   -1.6730639850    2.5276261146
 H   -4.4559061373   -2.7365625763    1.5648853309
 H   -3.8973766153   -1.3726455749   -0.4720582697
 H   -2.0921375802   -0.0534472983    1.2219860069
 H   -1.5934839367   -3.0625274319    2.1520092786
 H   -0.3668068537   -3.3695861913    0.9057999618
 H   -0.6244191957   -1.7302123622    1.4916605157
 H   -2.0976165344   -4.6112644414   -0.5557628250
 H   -3.5113839717   -3.6300236927   -1.1800736281
 H   -3.0734680224   -1.6172056772   -2.4206627325
 H   -1.5529836314   -0.7401148956   -2.1527826227
 H   -1.5948435596   -2.1468758275   -3.2386453745