19

 N   -0.3384780461    1.4428324619   -0.0939941413
 C   -0.2314635026    0.0385225933   -0.0391615376
 C   -1.1748469274   -0.9745717209   -0.0317666130
 C   -2.6685549232   -0.8132240059   -0.0006815617
 C   -3.2947342946   -0.3400005339   -1.3143891800
 O   -2.9587239474    1.0355725289   -1.5099008592
 C   -0.4512826371   -2.2074274348   -0.0390850435
 C    0.8906085862   -1.9157178681   -0.0380212585
 N    1.0108898906   -0.5463146741   -0.0424157644
 H   -0.2879571935    1.8712304037    0.8262869900
 H   -1.2285637267    1.6878420623   -0.5181889233
 H   -3.1287859133   -1.7727261159    0.2612084729
 H   -2.9726099591   -0.1007188924    0.7783051835
 H   -2.9207294918   -0.9542382086   -2.1450829116
 H   -4.3890486592   -0.4539495681   -1.2692459207
 H   -3.1206905277    1.2637245471   -2.4292708457
 H   -0.8830200057   -3.1978213706   -0.0235288847
 H    1.7595530698   -2.5530890560   -0.0258003454
 H    1.8649300889   -0.0219570178   -0.1206437460