19

 C   -0.7894427795    1.1717934253   -0.0527501013
 C   -0.0099062695   -0.1335524356   -0.0897101337
 C    1.3691425176   -0.1142920263   -0.7757802266
 O    1.8825300664    0.6245160770   -1.5698592815
 C    1.9810438806   -1.0630176290    0.2667391842
 O    3.2947885635   -0.8397871744    0.6814309932
 C    0.7718368468   -0.6422937738    1.1459558867
 C    0.9348555590    0.0741949614    2.4519977967
 C    0.2870344430   -1.2941479805    2.3993124753
 H   -0.1687449534    1.9894436022    0.3245419432
 H   -1.1242651535    1.4440695794   -1.0578151585
 H   -1.6743536607    1.0876888149    0.5863922855
 H   -0.6256916768   -0.9424949190   -0.5044980963
 H    1.8867149258   -2.1154168130   -0.0314371032
 H    3.5441741061    0.0469342114    0.3943059243
 H    1.9421629933    0.1423715793    2.8497566142
 H    0.3020918196    0.9302224350    2.6614698421
 H   -0.7844397781   -1.3541128047    2.5642921926
 H    0.8474832199   -2.1409739096    2.7832483831