22

 C    0.4264735330    1.7739503968   -0.0478216500
 C    0.1274976713    0.2694560213    0.0166627568
 C    0.6151994077   -0.4563826398   -1.2413809785
 C    0.2180628952   -1.9429005651   -1.4722152501
 C    0.0584570239   -1.6219893747   -2.9821546117
 C   -0.0338569917   -0.1164267288   -2.6134578783
 C    0.8305210802   -0.3404728365    1.2339225645
 N    0.0392820633   -1.0813159521    2.0637511279
 O    2.0199914681   -0.1850696413    1.4399871521
 H    1.5073225896    1.9356027510   -0.0408902791
 H    0.0075108396    2.2133669374   -0.9578248590
 H    0.0012668161    2.3019389376    0.8114745909
 H   -0.9578815365    0.1188235533    0.1018394832
 H    1.7034576637   -0.3493804014   -1.2984737960
 H    0.9347322735   -2.7142226424   -1.1811677063
 H   -0.7477880287   -2.1739064284   -1.0083296506
 H    0.9718413849   -1.8451675676   -3.5405984542
 H   -0.7874237038   -2.0678420028   -3.5104530360
 H   -1.0747944553    0.2040112902   -2.4929724887
 H    0.4773372242    0.6027520665   -3.2577385053
 H   -0.9317989434   -1.2500383831    1.8723937023
 H    0.4705933749   -1.5472874499    2.8456669060