16

 O   -0.0103436533    1.2954247650   -0.3022604580
 C   -0.0499450930   -0.1143639496   -0.1050470559
 C   -1.5101253006   -0.4633296498    0.1453464790
 O   -1.9922725768    0.2505852164    1.2575337578
 C   -2.3959502180   -0.3989259210   -1.1507595664
 C   -2.4029096164   -1.9329698219   -1.1477997489
 O   -2.7024682741   -2.7667618237   -1.9522169222
 C   -1.7797876718   -1.9880827496    0.2558909689
 H    0.9046767654    1.5886978195   -0.2775818389
 H    0.3335676189   -0.6557246356   -0.9829941918
 H    0.5429226180   -0.4105907104    0.7723934209
 H   -1.6652586500    1.1539462350    1.1529374782
 H   -3.3872352072    0.0071158991   -0.9258545332
 H   -1.9926222780    0.0991431961   -2.0353087763
 H   -0.9298801019   -2.6611357769    0.3988827207
 H   -2.5306602012   -2.1910521027    1.0261545960