15

 C   -0.0592497306    1.4710279267   -0.2477742018
 N    0.0030017103    0.0361110924    0.0186254853
 C   -1.1619993833   -0.6942977412    0.1524699920
 C   -1.1651393505   -2.0109573577    0.4023147570
 C    0.0922839760   -2.7080339469    0.5401052820
 N    0.2144735430   -3.9446989829    0.7751459262
 O    1.2353199428   -1.9057642277    0.3930386052
 C    1.2472241751   -0.5664541128    0.1405109285
 O    2.2921702555    0.0165796398    0.0372554538
 H    0.9607892056    1.8361016537   -0.3460889993
 H   -0.6071780650    1.6617329101   -1.1755080524
 H   -0.5550000068    1.9929246701    0.5767185319
 H   -2.0730137702   -0.1189867285    0.0391022209
 H   -2.0787266689   -2.5763902578    0.5050513944
 H    1.1988765969   -4.2082449572    0.8293813265