21

 C   -0.1325156956    1.3491485576   -0.0366310365
 O    0.0532549816   -0.0450924028   -0.0300452555
 C    0.5820429373   -0.5246183380    1.1912998602
 C    0.6816149849   -2.0339532176    1.0808639836
 C    1.8446226957   -2.7322249555    0.2974410764
 C    2.7742598814   -2.4159103989    1.5032563991
 C    1.4393994708   -2.8920654305    2.1451131830
 C    1.4806893767   -4.0387868790    1.0767392543
 O    0.3632599645   -4.8140773199    0.7616983720
 H    0.8158282517    1.8905262703    0.1112315397
 H   -0.5444595743    1.6210168860   -1.0116404680
 H   -0.8347608795    1.6726653899    0.7486599775
 H    1.5501248722   -0.0448464484    1.3982717101
 H   -0.0903982832   -0.2599595651    2.0270277673
 H   -0.3234077813   -2.3902567695    0.8245707259
 H    2.0755590688   -2.6316048152   -0.7633808413
 H    3.6381412209   -3.0735329732    1.6352315807
 H    3.0565833684   -1.3757173993    1.6554079986
 H    1.2082770306   -2.9817619649    3.2080412595
 H    2.3047867171   -4.7453277507    1.2025636876
 H   -0.3861135586   -4.2403338054    0.5733153860