19

 C   -0.0418981283    1.5028762910    0.0215789158
 C    0.0189478113   -0.0096353264    0.0208725287
 C   -1.1866057984   -0.6965168819   -0.6057038301
 C   -1.1511304857   -2.2368094550   -0.5509703047
 C   -0.6790733751   -2.7538138510    0.7839072552
 C    0.1498806174   -2.0502240481    1.5588346882
 C    0.6752385829   -0.7210881165    1.1594801441
 N    1.3708614252   -0.5586684647   -0.1531592050
 H    0.8528732184    1.9215602517    0.4883597686
 H   -0.0987204602    1.8902962375   -1.0023910570
 H   -0.9224839234    1.8610246091    0.5664030018
 H   -2.0770197404   -0.3436094214   -0.0689838218
 H   -1.3035468780   -0.3653906526   -1.6448425371
 H   -2.1485059669   -2.6288610150   -0.7788769937
 H   -0.5044356246   -2.6267931609   -1.3508798125
 H   -1.0193002990   -3.7365497779    1.0974866491
 H    0.4771188031   -2.4449085909    2.5165774698
 H    1.1298077437   -0.1296001659    1.9499416692
 H    1.3409458178   -1.4490017812   -0.6456581885