17

 C    0.1216840349   -1.0929101673    0.2766035824
 C    0.0168473994    0.1011980029    0.1535289328
 C   -0.0476592744    1.5043936473   -0.0122550198
 C   -1.1443765325    2.2784667675    0.0474771800
 C   -0.8654102464    3.7395839897   -0.2000197099
 C    0.6693420856    3.8003359069   -0.3017834603
 C    1.4723481216    3.9282951361    1.0125531686
 O    1.9981208173    2.5881800668    0.8905466828
 C    1.1907816899    2.3415536374   -0.2844942210
 H    0.2038780577   -2.1448037802    0.3947868652
 H   -2.1422585292    1.9012496710    0.2420972261
 H   -1.3543214060    4.0839975162   -1.1210901461
 H   -1.2574817237    4.3752393675    0.6051773438
 H    1.0294248212    4.4364035014   -1.1098900356
 H    2.2745230798    4.6750309927    1.0167128206
 H    0.8622819801    4.0535719771    1.9171854163
 H    1.8015665246    1.9559909169   -1.1072982459