18

 O   -0.0683607050    1.3049114528    0.0058361835
 N    0.0388489822   -0.0994625508    0.0013203243
 C   -1.1118764140   -0.6600197437    0.0081445275
 C   -2.4507651110   -0.0712023374    0.0194440523
 C   -3.3784347790   -1.0384650894    0.0237364552
 C   -2.7777245077   -2.4213840132    0.0158379918
 C   -1.2683803191   -2.1505398286    0.0052772534
 C   -0.2896303592   -3.0183432209   -0.7549834480
 C   -0.2782983109   -3.0225252524    0.7457666927
 H    0.8550103516    1.5764853488   -0.0000943437
 H   -2.6240439661    0.9950037474    0.0234692622
 H   -4.4501799225   -0.8741913099    0.0320029817
 H   -3.0942308678   -2.9979502535    0.8953703507
 H   -3.1073198362   -2.9936832708   -0.8616630920
 H   -0.6857248094   -3.8872586497   -1.2709639330
 H    0.5147954366   -2.5017648210   -1.2668138601
 H    0.5337925607   -2.5087851408    1.2482650069
 H   -0.6665806033   -3.8943271268    1.2628154745