16

 O   -0.1104872391    1.3475899127    0.2809943610
 C    0.0441556132    0.0073349548    0.0442468528
 C    0.0758061529   -0.6992891470   -1.1455580268
 N    0.0591275014   -2.0272256341   -0.7772150656
 C    0.7741505622   -3.3083764001   -1.0068639051
 C    0.6759670799   -3.5669315735    0.5386746840
 C    0.1386915598   -2.1504915419    0.5992920788
 C    0.1367038317   -0.8961206522    1.1527440531
 O    0.1943692340   -0.5339069539    2.4653674591
 H   -0.0313652346    1.8313401787   -0.5459881998
 H   -0.0404085750   -0.3605937581   -2.1631580587
 H    0.2466190036   -3.9949612286   -1.6743786969
 H    1.8028562128   -3.1702808875   -1.3528766650
 H   -0.0145399126   -4.3621450139    0.8329739189
 H    1.6382477945   -3.7321192166    1.0285457977
 H    0.1419529753    0.4283504712    2.4951156426