15

 C    0.0197668841    1.5594525759    0.0153889523
 C    0.0885210905    0.0500810033    0.0669153126
 C    1.3231624131   -0.7476116058   -0.1464561461
 O    2.4719629548   -0.0255140605    0.3768750114
 C    1.9686152310   -0.1326257234    1.6730107395
 O    2.5187814384    0.1513147678    2.6867984915
 C    0.6720976097   -0.7820332051    1.2302499970
 N   -0.1007744404   -1.7710261773    1.8800122498
 H    0.9681834190    2.0122970398    0.3115575984
 H   -0.2060957173    1.8912007306   -1.0032988990
 H   -0.7673781034    1.9389897867    0.6740900147
 H   -0.7960635009   -0.4659720092   -0.3045374624
 H    1.5192900714   -1.5335024668   -0.8616563576
 H    0.4815806766   -2.4094693633    2.4119823461
 H   -0.7703334168   -1.3575901228    2.5206533117