17

 C    0.1614231814    1.3144281793    0.1609646697
 O   -0.1684270561   -0.0355330099   -0.1418904949
 C    0.5110993481   -0.5386084491   -1.2185689503
 C    0.1651967772   -0.3597484681   -2.6864020160
 N    0.8843369555   -1.6914130584   -2.9786670206
 C    2.2597747137   -1.2713144111   -3.1909881398
 N    2.9095012818   -0.8846449465   -2.1685506129
 C    1.9752936055   -1.0569870632   -1.0678277368
 C    0.8657484730   -1.9695302420   -1.4860051614
 H    1.2324146086    1.4218935185    0.3768969381
 H   -0.1009427076    1.9888299730   -0.6652039358
 H   -0.4183952965    1.5900040526    1.0436619525
 H   -0.9029094880   -0.4855751941   -2.8727738943
 H    0.5494961802    0.5001463689   -3.2457654488
 H    2.6426348333   -1.2347289726   -4.2055650701
 H    2.3661009319   -1.0626957069   -0.0586184059
 H    0.5443644280   -2.9191830404   -1.0767497225