21

 C    0.1119135294    1.5058730851   -0.0538954975
 C   -0.0822445309   -0.0056782290   -0.1262721608
 C   -1.5079985142   -0.4551694455    0.1613953507
 O   -2.3812042759    0.3368191997    0.4591510146
 C   -1.7589002954   -1.9212524275    0.0542486927
 C   -2.9526485375   -2.5280543657    0.7874579873
 C   -2.9663615277   -2.4675857395   -0.7049306187
 C   -3.9236427602   -1.5681400515   -1.4490998147
 O   -2.6336104155   -3.6509127429   -1.3876846875
 H    1.1527807910    1.7731195877   -0.2567557553
 H   -0.5247971727    2.0160369304   -0.7813065948
 H   -0.1585696219    1.8860186519    0.9343696601
 H    0.1990944090   -0.4016808447   -1.1122133954
 H    0.5765484650   -0.5265210533    0.5833052054
 H   -0.8799300666   -2.5485736259   -0.0433852291
 H   -2.7987992336   -3.4934856998    1.2551898027
 H   -3.5641502017   -1.8158975155    1.3314665461
 H   -4.0740654732   -0.6277779604   -0.9177659675
 H   -3.5431420940   -1.3556503302   -2.4531390316
 H   -4.8962387215   -2.0648291104   -1.5548632971
 H   -3.4412446317   -4.1691275132   -1.4810555398