17

 C   -0.2011931251    1.5328763353   -0.0418600527
 C    0.0797895880    0.0209668618    0.0259596500
 C    0.7748644322   -0.4948360080   -1.1950292391
 C    2.0270460472   -0.9330442848   -1.3545740173
 C    2.2446332567   -1.3368062412   -2.7813280448
 O    0.9908012434   -1.0877719826   -3.4239919304
 C    0.0986413514   -0.5941603590   -2.5059095762
 N   -1.1053723264   -0.2862516113   -2.7542461840
 H    0.7301527689    2.1020739203   -0.1255605889
 H   -0.8271599766    1.7627256235   -0.9067866413
 H   -0.7222477540    1.8643539576    0.8612320219
 H    0.6817227976   -0.2112882680    0.9110074142
 H   -0.8740035026   -0.5088177339    0.1297642347
 H    2.7962635565   -1.0052410354   -0.5964272204
 H    3.0267061481   -0.7501763273   -3.2822212623
 H    2.5000564923   -2.3991374044   -2.8947944911
 H   -1.3280314375   -0.4575010826   -3.7356197124