20

 N   -0.1815479715    1.0846954651   -0.5856954867
 C   -0.0955155457   -0.0909197860   -0.1564106346
 O    1.0026137777   -0.8113075715    0.2666878750
 C    0.1666014459   -1.9616179343    0.6086784381
 C   -1.0895952307   -1.2062270357    0.1195930566
 C   -2.2005788557   -0.9048054506    1.1281783322
 C   -3.2562860113    0.0215887710    0.5624583167
 C   -4.4178120603   -0.5419079154   -0.2193316189
 C   -4.6410037789    0.0457360962    1.1536633850
 H    0.7320025060    1.5413145242   -0.6088701739
 H    0.4650152957   -2.8452003021    0.0397066979
 H    0.2099265711   -2.1664054617    1.6821064006
 H   -1.5136296836   -1.6184071158   -0.8003700901
 H   -2.6656280271   -1.8503115425    1.4374546945
 H   -1.7566400581   -0.4639750504    2.0306641842
 H   -2.8611894084    0.9697659143    0.2111166646
 H   -4.7762543609    0.0082864207   -1.0820537176
 H   -4.4889298801   -1.6206469651   -0.3215620964
 H   -4.8585523036   -0.6403025680    1.9663789747
 H   -5.1522966506    0.9987667276    1.2312012082