16

 O   -0.0157372561    0.0397556704   -0.0444499616
 C   -0.0207115324    1.2401071595    0.0046191647
 C   -1.2130231753    2.1553616453   -0.0036597851
 C   -1.0274374430    3.3510623124    0.9010551595
 C    0.1311840059    3.3591534268    1.8302914653
 C    1.2604598144    2.7771679676    1.4143368708
 C    1.1954836564    2.1950276207    0.0240083090
 C    0.6434573458    3.3106631056   -0.9098180364
 N   -0.7896633909    3.4549310614   -0.5614111145
 H   -2.1958176064    1.7654760836   -0.2389274038
 H   -1.9308778218    3.8631468178    1.2155993265
 H    0.0300685179    3.8578996734    2.7871732859
 H    2.1742482626    2.7440978530    1.9950553685
 H    2.1083253927    1.7074128779   -0.3110078692
 H    1.1577169491    4.2658693442   -0.7836462893
 H    0.6963041610    3.0089961303   -1.9598338602