14

 N    0.0172130667    1.3932176715    0.1594168761
 C   -0.0001157248    0.0164178649    0.0582489467
 C   -1.1757823269   -0.6981205675    0.0356158247
 C   -1.2099908256   -2.1346537768   -0.0080872138
 O   -2.1951441666   -2.8575843296   -0.0302398836
 N    0.0801551563   -2.7246625325   -0.0338202602
 C    1.2467117476   -2.0328571381   -0.0166115132
 C    1.2563350366   -0.6768710157    0.0290688363
 H    0.8409476653    1.8629561105   -0.1819866778
 H   -0.8409038674    1.8715131459   -0.0675223769
 H   -2.1373222929   -0.1984162324    0.0531490821
 H    0.0749031134   -3.7336538273   -0.0684500312
 H    2.1556143820   -2.6226226731   -0.0408221395
 H    2.1924975563   -0.1348314999    0.0552070204