17

 N    0.0488134561   -1.1257508448    0.0433622115
 C    0.0387489449    0.0288167857    0.0051898774
 C   -0.0062966562    1.4829332070   -0.0102211147
 C   -0.7064058020    2.1335677510    1.2525170767
 C   -0.1438079687    3.5814825453    1.1932860646
 C    0.7696001184    3.5187508905   -0.0850799078
 N    1.3250507817    2.1424272201   -0.0438055718
 C   -0.1740782355    3.3820521118   -1.2669275526
 C   -0.6551842311    2.1414119240   -1.2272068955
 H   -1.7943390165    2.0796262610    1.1866384228
 H   -0.3956840133    1.6096624905    2.1600312430
 H   -0.9243779878    4.3412637626    1.1140112316
 H    0.4575142820    3.8095427214    2.0781261937
 H    1.5340280993    4.2919491184   -0.1494105500
 H    1.8022165984    1.9843758297    0.8444104419
 H   -0.4614941131    4.1881271267   -1.9277915662
 H   -1.4160753764    1.6718265091   -1.8335460247