14

 O    0.5757589545    0.9433144472    1.2186243347
 C    0.5972280356    1.7306398162    0.3130606944
 C    1.2910262749    1.4456144803   -1.0193204905
 N    1.3860558187    2.6256631799   -1.8598544769
 C    2.3162964777    3.5832655695   -1.5627967126
 N    2.7242210828    4.5277672607   -2.4096540267
 N    3.5681874444    5.1996186380   -1.6210177932
 N    3.6907119443    4.7298307303   -0.3995502870
 N    2.8962231430    3.6874596741   -0.3356633608
 H    0.0850707588    2.7165272588    0.3605795872
 H    2.2634485664    0.9833933671   -0.8056860448
 H    0.6810843535    0.7036763741   -1.5454290811
 H    1.2123908194    2.5055961216   -2.8444449214
 H    4.0796759560    6.0084170224   -1.9397236313