22

 O    0.3577587194    0.9636465702   -0.7010251157
 C    0.0500247198   -0.1630131326    0.0896703600
 C   -0.2154430853    0.0226214965    1.6074152291
 C   -1.4326301133   -0.9316476175    1.4567419103
 C   -1.3974978840   -0.6974518612   -0.0855270539
 C   -2.3829537357    0.3413878271   -0.6182591114
 N   -3.7141537644   -0.2408694747   -0.7744220513
 C   -4.6707555361   -0.0238294030    0.3063051500
 C   -4.8077945324    0.6979083826   -0.9879868473
 H    1.2562014768    1.2413613060   -0.4972689146
 H    0.7768970465   -0.9707384190   -0.0806466797
 H    0.5774828760   -0.2572135139    2.3059619475
 H   -0.5253971020    1.0507149910    1.8151969874
 H   -1.1876303695   -1.9633857826    1.7213042899
 H   -2.3487088071   -0.6532113868    1.9803740350
 H   -1.4917237477   -1.5951346552   -0.7016891920
 H   -2.3975294116    1.2378731650    0.0274459060
 H   -2.0444321162    0.6727634489   -1.6053173678
 H   -5.3178151846   -0.8627789645    0.5470194922
 H   -4.3494874103    0.5646622776    1.1647610284
 H   -4.5763642727    1.7624303128   -0.9878904682
 H   -5.5561862457    0.3962847532   -1.7157167539