18

 C   -0.0386459144    1.5758774259    0.1794876633
 C   -0.0581452560    0.0457208557    0.0165736592
 C    0.8576400237   -0.6322185152    1.0509957902
 C   -1.4602406322   -0.4973533342    0.0825717200
 N   -1.9904716515   -1.1263954139   -0.9658152832
 N   -3.2314182132   -1.4728353847   -0.5674027811
 C   -3.5088415792   -1.0852332643    0.6998852628
 C   -2.3804832311   -0.4450586351    1.1615353776
 H    0.9820508656    1.9619177425    0.0868990860
 H   -0.6586494104    2.0617643274   -0.5795353977
 H   -0.4190753705    1.8729495910    1.1632550726
 H    0.3149265180   -0.1979834187   -0.9845581923
 H    0.5161621229   -0.4307601694    2.0725563008
 H    0.8751142850   -1.7171095163    0.9120260295
 H    1.8834518422   -0.2588117191    0.9632505687
 H   -3.8280251879   -1.9676763898   -1.2075796622
 H   -4.4622820003   -1.2901901114    1.1610750884
 H   -2.2403373508   -0.0039337004    2.1350664376