18

 C    0.1008317890    1.5237945420    0.1628563295
 C   -0.0649043476    0.0231740161   -0.1026747740
 C    0.7244450827   -0.4743756482   -1.3174022287
 C    2.2646441695   -0.5013934069   -1.2245762063
 O    2.2997920779   -1.9314544561   -1.4283353541
 C    0.8688013156   -2.0226393190   -1.4459666347
 C    0.1820329882    0.1307723045   -2.5930052922
 O    0.8283652947    0.7116658530   -3.4260077342
 H    1.1508032323    1.7824602565    0.3350591385
 H   -0.2512584095    2.1254451639   -0.6816851950
 H   -0.4659080787    1.8270387052    1.0476580065
 H    0.2574364335   -0.5488305842    0.7752294797
 H   -1.1277758186   -0.2139315544   -0.2485417216
 H    2.7829738993    0.0435665408   -2.0188657675
 H    2.6733007563   -0.2182913797   -0.2465997065
 H    0.4704181413   -2.5804917227   -0.5874505347
 H    0.4908316745   -2.4761350963   -2.3716518485
 H   -0.9163802603   -0.0206988448   -2.7237474264