16

 C    0.0229948136    1.3551562914   -0.0040622669
 O   -0.0288800640   -0.0715678779   -0.0436530064
 C   -1.2655831031   -0.5845058111   -0.0006958301
 N   -2.4024075941    0.0511855537    0.0727522179
 C   -3.3577009732   -0.9573835183    0.0870473010
 C   -2.7844957306   -2.1942579371    0.0228484186
 C   -3.3476773712   -3.5726669545    0.0078618843
 N   -1.4141132183   -1.9374414267   -0.0348295240
 H    1.0813164907    1.6148903716   -0.0471897869
 H   -0.5123266167    1.7859577220   -0.8552605523
 H   -0.4271664816    1.7336616855    0.9183240604
 H   -4.4104047480   -0.7245502825    0.1438915318
 H   -3.0875766779   -4.1197304215   -0.9073728577
 H   -3.0006580793   -4.1743920356    0.8576150330
 H   -4.4377642463   -3.5224746897    0.0631103653
 H   -0.6674233500   -2.6088524692   -0.0900546582