21

 C    0.1868286769    1.6840506590    0.0083538401
 C    0.1793946058    0.1604359508    0.1251693143
 N    0.6477331773   -0.4399021267   -1.1277202201
 C   -0.3459679288   -0.6448748002   -2.2644490803
 C    0.6753691249   -1.6782066973   -2.8207537531
 C    0.5377552709   -1.9469784808   -1.2968962378
 C   -0.9882966725   -1.8193120494   -1.4953202474
 C   -2.2041999978   -2.0157892336   -0.6961596250
 N   -1.9340404714   -2.8399331936   -1.9069731779
 H    1.1766436853    2.0409852962   -0.2894195749
 H   -0.5335270986    2.0262928908   -0.7428081384
 H   -0.0823582514    2.1480425920    0.9623224228
 H    0.8883838400   -0.1506261326    0.9027963383
 H   -0.8145598258   -0.1814746421    0.4466084271
 H   -0.8212129170    0.1896796659   -2.7834869656
 H    0.2908422683   -2.4462863120   -3.4920789669
 H    1.6319579901   -1.2563231759   -3.1287141783
 H    1.1000553468   -2.6424304036   -0.6726208701
 H   -2.1720683647   -2.5662205703    0.2406040054
 H   -2.9858720980   -1.2608050458   -0.7451518435
 H   -2.5029789003   -2.5137486710   -2.6852275586