21

 C   -0.1402388414    1.4499187765   -0.2631702510
 C   -0.0505899058   -0.0265673317    0.0209498728
 O    1.2522950488   -0.6342586720   -0.0977239443
 C    0.6268802226   -0.6348774986    1.1724021732
 C    1.1960149760   -0.0651765336    2.4869542685
 C    1.0406088937    1.3977215605    2.8765894108
 C    0.3213624734   -1.1239211403    3.2276423997
 C    0.1754170694   -1.9048882682    1.8894465496
 O   -1.0905164183   -2.3820114195    1.5009143160
 H    0.7095698492    1.9899722231    0.1568571990
 H   -0.1526487751    1.6206323525   -1.3450050318
 H   -1.0644436144    1.8680252845    0.1502662076
 H   -0.8441708795   -0.6288525804   -0.4232699594
 H    2.2527579329   -0.3523926206    2.5491821314
 H    0.0026438535    1.7305960464    2.7763934040
 H    1.3373302391    1.5429247638    3.9212191279
 H    1.6690719089    2.0519644358    2.2644416426
 H    0.7665117723   -1.6436714326    4.0783916249
 H   -0.6458334817   -0.7039583075    3.5193173221
 H    0.9462279558   -2.6831642316    1.7955643811
 H   -1.2146249495   -3.2614048266    1.8699438052