22

 C    0.1258877365    1.3785322876   -0.1040490343
 O    0.2836087280   -0.0178527296   -0.1177905205
 C    0.4698225059   -0.5626688083    1.1763318890
 C    0.5527014075   -2.0667607055    1.0615132621
 C   -0.7147608639   -2.7053860666    0.5225184394
 C    1.8792528311   -2.6767057529    0.6646246381
 C    1.3621239543   -2.8580813933    2.0722141686
 C    2.0787688982   -2.2595503256    3.2651310160
 H    1.0103516996    1.8883695471    0.3119465883
 H   -0.0128958061    1.7043846997   -1.1380544285
 H   -0.7519294674    1.6878843864    0.4864714314
 H    1.3804233632   -0.1422604087    1.6298359307
 H   -0.3769138155   -0.2762819564    1.8264057617
 H   -0.9664077954   -2.2932002539   -0.4588532501
 H   -0.5984105380   -3.7886720175    0.4201638130
 H   -1.5644844582   -2.5225225781    1.1919705806
 H    1.8748393073   -3.5236980615   -0.0134040217
 H    2.7187434889   -2.0027135355    0.5230144877
 H    0.9405080124   -3.8391388145    2.2815076144
 H    2.5791211950   -1.3185315440    3.0208699315
 H    1.3908901742   -2.0668293059    4.0964381509
 H    2.8498024824   -2.9482648630    3.6283053617