18

 C    0.0276327018    1.5884119066   -0.1010170213
 C    0.0271279208    0.0837088770    0.1908567881
 C   -1.3653264722   -0.5327910278    0.1271601122
 C   -2.0102304878   -0.8071488598   -1.2552046873
 C   -1.2361147795   -2.1542593597   -1.4360213500
 O   -2.4272390140   -2.9418013006   -1.7311410676
 C   -2.8453660959   -2.0006736426   -0.6980889044
 C   -1.5086141636   -2.0730800804    0.1019236767
 H    1.0364112245    2.0071349406   -0.0340493607
 H   -0.3544544109    1.7981028798   -1.1058741721
 H   -0.6051287801    2.1287031579    0.6119067096
 H    0.6908033378   -0.4285509389   -0.5177473430
 H    0.4511158814   -0.0945777751    1.1878762820
 H   -2.0385271587   -0.0353876796    0.8373196980
 H   -2.3114045900   -0.1196880577   -2.0459719695
 H   -0.3207470630   -2.3778874085   -1.9819869471
 H   -3.8755398255   -2.0284678615   -0.3439650948
 H   -1.2376704451   -2.8171848497    0.8515916412