23

 C    0.0494796483    1.4700724815    0.1769714713
 C   -0.0340353593   -0.0488377028   -0.0046648900
 C   -1.4711169525   -0.5246480276   -0.1879979857
 O    0.6822887054   -0.4894658844   -1.1539315685
 C    2.0864821486   -0.4903876453   -1.0317885400
 C    2.6694424557   -1.1577506927   -2.2717018566
 C    4.2093168967   -1.1976786527   -2.2346290755
 C    4.7897296987   -1.8253226418   -3.4152844117
 C    5.2465842214   -2.3458938144   -4.3975495563
 H    1.0789339354    1.8073960241    0.3273625855
 H   -0.3532067554    1.9779766321   -0.7054189534
 H   -0.5312992156    1.7820537813    1.0508555329
 H    0.3953421071   -0.5374523810    0.8872553319
 H   -1.9125494029   -0.0616903504   -1.0763822642
 H   -1.4998131712   -1.6095049104   -0.3185022585
 H   -2.0814815553   -0.2587342664    0.6800840902
 H    2.4846999103    0.5335411501   -0.9374232737
 H    2.3923170291   -1.0376693361   -0.1222899628
 H    2.2736618873   -2.1748276965   -2.3535137045
 H    2.3358247102   -0.6145096150   -3.1614463329
 H    4.6019369231   -0.1765520393   -2.1371430208
 H    4.5425496700   -1.7358068923   -1.3370439843
 H    5.6598698648   -2.8040468102   -5.2614040523