18

 C   -0.1799310074    1.5516504704    0.0130971016
 C    0.0949257415    0.0390702088    0.0514068061
 C    0.7571515396   -0.4790759998   -1.1998286440
 C    2.0296412566   -0.9166559017   -1.2078464738
 O    2.6715064151   -1.3757789629   -2.3078600254
 C    2.0434526076   -1.4297888033   -3.5541834068
 N    2.6688940395   -1.8586838758   -4.5739310243
 C    0.6668735891   -0.9749043987   -3.5795028954
 C    0.0573911737   -0.5228133979   -2.4652270840
 H    0.7533621368    2.1146493918   -0.0846115632
 H   -0.8188312149    1.8201949338   -0.8344710556
 H   -0.6838174908    1.8788367561    0.9276704100
 H    0.7247405754   -0.1957801446    0.9166815105
 H   -0.8516562914   -0.4949639980    0.2077440804
 H    2.6738157693   -0.9499789940   -0.3366076429
 H    3.6216889745   -2.1262021931   -4.3259736749
 H    0.1717811613   -1.0266249822   -4.5405143458
 H   -0.9758609055   -0.1903872489   -2.5049387923