23

 C   -0.0499447725    1.5439160261   -0.0258074509
 C    0.0079271145   -0.0001804862    0.0106055749
 C    0.7614241346   -0.4601177679    1.2792128605
 C   -1.4281964100   -0.5710976742    0.0261641381
 C    0.7142271349   -0.4881882405   -1.1814066536
 C    1.2960475754   -0.8776830646   -2.1623756561
 C    1.9913396057   -1.3805884205   -3.3411722514
 C    1.9189286716   -2.9066097741   -3.4607050004
 O    2.6249329054   -3.2649476203   -4.6369124213
 H    0.9562939724    1.9721868197   -0.0382954447
 H   -0.5782917588    1.8935597701   -0.9172728871
 H   -0.5754225549    1.9230909460    0.8575065773
 H    0.2446310010   -0.1030100800    2.1767945721
 H    0.8172242120   -1.5515075280    1.3262237819
 H    1.7822284189   -0.0677072084    1.2908045928
 H   -1.9824814919   -0.2570880592   -0.8628500541
 H   -1.4136774348   -1.6645662442    0.0482389997
 H   -1.9668736995   -0.2160128639    0.9115371567
 H    1.5682442887   -0.9435198032   -4.2541336965
 H    3.0480926845   -1.0867458400   -3.3203087591
 H    2.3621032869   -3.3643037545   -2.5636212343
 H    0.8650101418   -3.2194382659   -3.5063742146
 H    2.5934397240   -4.2214249762   -4.7282669499