19

 C   -0.0746510306    1.5496177991   -0.1629517059
 C   -0.0104498800    0.0331430473   -0.0509292611
 C    1.2204561316   -0.6145975438   -0.8157316668
 C    1.8969710958   -0.6044690903    0.5270433420
 C    2.9662311047   -0.1565457704    1.1920439078
 C    2.5303236296    0.2429697743    2.5630153199
 O    3.2294250991    0.6046530243    3.4786715944
 C    0.9711100549    0.2204799962    2.5768938398
 C    0.6087887641   -0.5315687414    1.2948410021
 H    0.8897618349    2.0106899929    0.0766566929
 H   -0.3445047637    1.8527370708   -1.1797653819
 H   -0.8249356969    1.9640078435    0.5183682257
 H   -0.9754674048   -0.4096168843   -0.3106021141
 H    0.9778711592   -1.6193230905   -1.1748231520
 H    1.6872854761   -0.0460727770   -1.6238349950
 H    3.9713308985    0.0167898470    0.8302850246
 H    0.5952581641   -0.2245862271    3.5008591392
 H    0.6328498170    1.2630205203    2.5575812285
 H    0.1760155762   -1.5165968908    1.4978382097