19

 C    0.0508459685    1.6624600232    0.0400313107
 C    1.5959452646    1.4732410117   -0.1088132269
 C    2.3764017026    1.5876353382    1.2154504259
 C    1.6673455808    1.0210184469    2.4251502368
 C    0.7918417326    0.0140226264    2.3938169666
 C    0.4656494981   -0.7116138593    1.1217664690
 O    1.6791788082   -1.0069399603    0.3587025980
 C    1.3304807614   -0.0019037187   -0.5941255576
 C   -0.1136673344    0.1385815150   -0.0773002693
 H   -0.3020136458    2.1436741216    0.9555100812
 H   -0.3891509391    2.1725270379   -0.8214033302
 H    2.0657754574    2.1108017901   -0.8624238977
 H    3.3556715367    1.1031758803    1.1021322000
 H    2.5846885398    2.6480456538    1.4045764470
 H    1.8962246913    1.4916123620    3.3785601295
 H    0.3047305558   -0.3177766470    3.3064215993
 H   -0.0881594226   -1.6342914204    1.3178317097
 H    1.6286257026   -0.2553084299   -1.6140858583
 H   -0.9882721385   -0.2908583914   -0.5659532937