14

 C   -0.0753943556   -1.2169800652    0.0047080997
 C   -0.0662177338   -0.0160170758    0.0382230259
 C   -0.0181258811    1.4361156909    0.0335816238
 N   -0.5657467607    1.9308669882    1.3728990890
 C    0.2911506281    2.8178015322    1.6569952039
 O    1.2859628585    2.6056292647    2.6225891514
 C    2.1314328627    2.5549453285    1.3862859050
 C    1.4238349756    2.0328401159    0.0312927916
 C    1.2627045028    3.4075911329    0.5839760874
 H   -0.0926790826   -2.2786458421   -0.0155628502
 H   -0.5732177912    1.8203327852   -0.8356352992
 H    3.1992630521    2.5255338225    1.5644534273
 H    2.1047122846    1.8065820197   -0.7855167649
 H    1.3427937605    4.4026695022    0.1696495792