16

 O    0.0803763522    1.3647570701   -0.0644413978
 C    0.0553685030   -0.0517979968   -0.0006897079
 C   -1.4118375223   -0.4623923140    0.0916378262
 C   -2.1702457846    0.0171176283   -1.1466159053
 O   -3.3588145655    0.2020425819   -1.1726181211
 C   -1.5511456089   -1.9682272735    0.2486794028
 C   -2.7731718206   -2.7038355382   -0.0889655123
 O   -1.6326786788   -2.7350972899   -0.9583268475
 H    0.9811460955    1.6500162399   -0.2435430175
 H    0.5053055829   -0.5061481899   -0.8980029751
 H    0.6074296638   -0.4299867614    0.8732572671
 H   -1.8640997810    0.0258206755    0.9634437268
 H   -1.5414141417    0.1721290225   -2.0489051914
 H   -0.8941899534   -2.4029664319    1.0049179198
 H   -2.9862793231   -3.6396991459    0.4246842138
 H   -3.6345643375   -2.1611968467   -0.4700472207