22

 C   -0.3226935173    1.4707604203   -0.1367748903
 C    0.0376228094   -0.0197003832   -0.0195313383
 C    0.8416934740   -0.2936229840    1.2599566174
 O   -1.1768708057   -0.7845560234    0.0053363290
 C    0.8037831978   -0.5149024848   -1.2556421171
 C    2.1177195114    0.1949973071   -1.5963762602
 O    2.6124592330   -0.2169493559   -2.8490812429
 C    0.6585765309   -1.9312078445   -1.6696300183
 N    0.0354030269   -0.8484947321   -2.4674181289
 H    0.5613524327    2.1124435122   -0.1061491907
 H   -0.8616703230    1.6657797406   -1.0680137192
 H   -0.9663775695    1.7645579447    0.7009001014
 H    0.2716045187    0.0203895105    2.1420409152
 H    1.0571339483   -1.3612127564    1.3504693670
 H    1.7877909269    0.2557167440    1.2688603544
 H   -1.7200824824   -0.4502532387    0.7257825877
 H    1.9634209168    1.2859365919   -1.5761984184
 H    2.8839353720   -0.0414841320   -0.8491922437
 H    1.8250482462   -0.2926569371   -3.4114194629
 H    1.4930979721   -2.4228944166   -2.1584100403
 H   -0.0023439668   -2.5643341026   -1.0896511564
 H   -0.9572955822   -0.8140828999   -2.2489698643