17

 O   -0.0066930781   -0.0313231901    0.0096152919
 C   -0.0583195316    1.1760097202   -0.0094386693
 C   -1.2689802595    2.0271581760   -0.0510588042
 C   -0.9253561095    3.3190420046   -0.0119091195
 C    0.5655248476    3.5475661431    0.0601864509
 C    1.0437086818    4.1024727453    1.4286280608
 O    1.2997511678    2.9639469658    2.2300068360
 C    1.9222058482    2.0146334369    1.3749982275
 C    1.1619201921    2.1166893579    0.0373622837
 H   -2.2693297415    1.6153962375   -0.0859277325
 H   -1.6229438501    4.1508754220   -0.0104549910
 H    0.9067198466    4.1876071575   -0.7593513740
 H    1.9604492629    4.6985642742    1.2895130595
 H    0.3013266941    4.7198987053    1.9414230087
 H    2.9867657182    2.2598603960    1.2332891934
 H    1.8437456611    1.0276179309    1.8360904994
 H    1.8091708897    1.9104549570   -0.8177742214