22

 O   -0.6813204987    1.4571441246    1.1831166696
 C   -0.7709572434    0.0436069627    1.2729300949
 C   -1.3214269661   -0.4701839320   -0.0551113206
 C   -1.4125958759   -1.9821689911   -0.0632920545
 C   -2.6444532571   -2.7733896151    0.2199635291
 C   -4.0100742270   -2.0987702962    0.1880843795
 C   -4.1326292503   -1.4768508433   -1.2277301448
 C   -2.9528104679   -2.0803645176   -2.0394869029
 N   -2.0395767229   -2.7910048848   -1.1264690332
 H   -0.3295587704    1.7901173436    2.0137380133
 H    0.2155585730   -0.4079098901    1.4672929976
 H   -1.4371465682   -0.2648901535    2.0948372995
 H   -2.2850333765    0.0128260881   -0.2271751345
 H   -0.6505080188   -0.1332478343   -0.8556165304
 H   -0.4771366818   -2.4437985152    0.2571053619
 H   -2.5595426377   -3.6922701906    0.7958306327
 H   -4.7835026961   -2.8549063568    0.3542749077
 H   -4.1275022293   -1.3485052039    0.9771168647
 H   -5.0947849104   -1.7174230348   -1.6881151206
 H   -4.0717765732   -0.3868496685   -1.1888196958
 H   -3.3165018734   -2.8204689630   -2.7594770908
 H   -2.4067971477   -1.3207985682   -2.6085750925