21

 C    0.0466506202    1.5910599503   -0.0646608074
 C    0.0608492628    0.0591714231    0.0121587457
 C    0.6292305568   -0.5246959989   -1.2831077766
 C    0.8289780031   -2.0279923164   -1.1574777475
 N    1.6766435230   -2.2660092586   -0.0069957795
 C    1.5353269669   -1.6065306290    1.1978501435
 O    2.0579607917   -2.0468333426    2.2115181028
 N    0.8224856801   -0.4165695049    1.1740671137
 C    0.5025899930    0.1747490774    2.4650800459
 H    1.0677398258    1.9834142249   -0.1136654633
 H   -0.4876238210    1.9067995203   -0.9660825443
 H   -0.4553303686    2.0452929483    0.7923506191
 H   -0.9858290934   -0.2802920928    0.1140049447
 H   -0.0521160286   -0.2946631602   -2.1074997496
 H    1.5935790167   -0.0518383049   -1.5015406218
 H   -0.1471320304   -2.5334515630   -1.0694710842
 H    1.3205886657   -2.4293087499   -2.0496478093
 H    2.0832763538   -3.1793193227    0.1185284426
 H    0.9806254996   -0.4298727807    3.2333183003
 H    0.8704784228    1.2030461445    2.5417341036
 H   -0.5837391301    0.1842911157    2.6335411117