21

 C   -0.0193697957    1.5410768310   -0.0806629892
 C    0.0407243337    0.0244098832    0.0191585928
 O    0.6440073311   -0.4632475494   -1.1816914662
 C    0.8642096730   -1.8439835455   -1.1111499287
 O    1.9016230867   -2.1763593640   -0.2248999174
 C    1.7032413340   -1.6833790535    1.0841745086
 C    1.7511272047   -2.7829486073    2.1142558844
 C    2.2980405315   -0.3245675308    1.3559981555
 C    0.7947260482   -0.4845953316    1.2378157922
 H    0.9884819383    1.9626266826   -0.1237056678
 H   -0.5603390739    1.8394004224   -0.9829677146
 H   -0.5340650926    1.9589535263    0.7898819390
 H   -0.9874429983   -0.3756826128    0.0708141136
 H   -0.0716104517   -2.3562369649   -0.8199855269
 H    1.1841920629   -2.1771528585   -2.1005277818
 H    2.7020502726   -3.3217812739    2.0477684804
 H    1.6569359782   -2.3757328814    3.1253253792
 H    0.9423475540   -3.5044502401    1.9563081241
 H    2.7174248981   -0.1175954741    2.3346892299
 H    2.8185111680    0.1330563659    0.5221078385
 H    0.2262742272   -0.4298170436    2.1623147145