17

 O   -0.0669423453    0.0020621242    0.1041510922
 C   -0.0880244768    1.2095649269    0.0463315034
 C   -1.2595390318    2.1034889789   -0.0303486408
 C   -0.8592717852    3.3817961282   -0.0404910153
 C    0.6404578263    3.5416225642    0.0074757852
 C    1.1790167095    2.1055422118    0.0560995112
 C    2.2524789005    1.6685296007    1.0809171106
 C    3.0360539148    1.1940206929   -0.1562616242
 O    2.0538935201    1.7706177220   -1.0477195698
 H   -2.2776543260    1.7375248524   -0.0614107365
 H   -1.5227312985    4.2399343868   -0.0740128331
 H    1.0232271164    4.0517323605   -0.8838013408
 H    0.9511508135    4.1403657837    0.8724295974
 H    2.7117713115    2.4950507519    1.6259855285
 H    1.9381246319    0.8890313605    1.7754267635
 H    4.0285167517    1.6313850374   -0.3121840358
 H    3.0922750375    0.1064933272   -0.2699283357