23

 C   -0.1107171303    1.5726244414    0.0898686273
 C    0.0180737542    0.0545086758    0.0484869211
 C    0.7304497896   -0.5910307375   -1.1863908860
 C    2.0814938830   -0.2760983319   -0.4832219340
 C    1.2279261677   -0.5806533538    0.7909107087
 O    1.5390250939   -0.0969805853    2.0612849788
 C    0.9390476392   -2.0876598134    0.6253147360
 C    0.5937902913   -2.1098792283   -0.9044060270
 C   -0.7526920119   -2.7357262449   -1.2616016933
 H    0.8028545343    2.0928092683   -0.2082320497
 H   -0.9133704487    1.9049706929   -0.5774272067
 H   -0.3595873374    1.9026372000    1.1034154787
 H   -0.9497950998   -0.3859756678    0.3131068758
 H    0.5222816942   -0.2517568289   -2.2017831592
 H    2.9309528532   -0.9309758585   -0.7034510023
 H    2.3878750921    0.7671030590   -0.5503285324
 H    2.2475410241   -0.6357177575    2.4291987681
 H    1.8060804468   -2.7096470949    0.8755611227
 H    0.1005669414   -2.4062123904    1.2531760790
 H    1.3758893080   -2.6459219869   -1.4547786626
 H   -1.5857057747   -2.2338442751   -0.7586296494
 H   -0.9351949348   -2.6836536631   -2.3409176428
 H   -0.7821925953   -3.7914125689   -0.9705064308