19

 C    0.0207479975    1.5680318970   -0.0033564991
 C   -0.0426046876    0.0403148372   -0.0670107536
 N   -1.4038582133   -0.4874563380    0.0489575477
 C   -2.2171039275   -0.5534218030   -1.1530922056
 C   -1.8540528523   -0.7859655671    1.3126076816
 O   -1.2301962362   -0.5413857785    2.3204201886
 N   -3.1111568620   -1.4432080432    1.3282185960
 C   -3.9404670399   -1.6143696819    2.4274500585
 O   -3.8144905993   -1.1241726623    3.5149488407
 H    1.0546080893    1.9090945240   -0.1172143730
 H   -0.5740802486    2.0320551477   -0.7974933013
 H   -0.3543260199    1.9169223524    0.9617665555
 H    0.3779528047   -0.3272550562   -1.0099448814
 H    0.5399605257   -0.3866528565    0.7506746947
 H   -2.1899580594   -1.5429380079   -1.6340861420
 H   -3.2573057633   -0.2906367950   -0.9432298323
 H   -1.8433404965    0.1738933369   -1.8778086184
 H   -3.4102947795   -1.9151298900    0.4893265916
 H   -4.7875593020   -2.2786887857    2.1544524118