17

 O   -0.0296355560    0.0092209786   -0.0026992774
 C    0.0016370541    1.2027452837    0.0036616888
 O    1.1591545401    1.8969086183    0.0131719869
 C    1.0661008949    3.3005781783    0.0153088743
 C    0.5626477376    4.0834965357   -1.2268459600
 C    1.4967511597    5.1918687283   -0.7401785465
 C    1.4609529417    5.1885405264    0.7982139345
 C    0.5052664828    4.0783101962    1.2362301859
 C    2.3441240810    4.2216189873    0.0470742965
 H   -0.8942684967    1.8507892383    0.0011240026
 H    0.9346625022    3.6303054166   -2.1493061137
 H   -0.5123637045    4.2816876380   -1.3068698470
 H    1.8313788398    6.0615650435   -1.2891059139
 H    1.7694746313    6.0558073993    1.3659661937
 H   -0.5721809158    4.2768286520    1.2672255303
 H    0.8340048600    3.6213640619    2.1732006690
 H    3.4024087677    4.0119475375    0.0713315261