23

 C    0.0077402025    1.6588925610   -0.2115533910
 C    0.0076811776    0.1350893098   -0.0569220049
 C   -1.3963099037   -0.4862924326    0.0747378823
 C   -1.3339034187   -2.0112765762   -0.0684711370
 O   -2.5852207558   -2.6216510379    0.1935850088
 C   -3.0560254794   -2.4481535790    1.5271589847
 C   -2.5215454886   -3.5500086429    2.4562677437
 C   -2.7836564424   -1.0645662275    2.0548947921
 C   -2.0612341866   -0.1651910111    1.3907006871
 H    1.0276637826    2.0416480556   -0.3161055077
 H   -0.5556850407    1.9646540944   -1.1000036340
 H   -0.4415710511    2.1591443724    0.6522905000
 H    0.5037428063   -0.3102588813   -0.9294796362
 H    0.6093929905   -0.1502018984    0.8158232867
 H   -2.0168760442   -0.0923240866   -0.7450830180
 H   -1.0698835181   -2.2997890488   -1.0906362697
 H   -0.5520790011   -2.4054459139    0.6013762422
 H   -4.1449876176   -2.5768162522    1.4492391410
 H   -1.4348580639   -3.4834098299    2.5649987059
 H   -2.9639775695   -3.4615366666    3.4540643794
 H   -2.7736669809   -4.5333893640    2.0503368958
 H   -3.2252775466   -0.8259906500    3.0194437275
 H   -1.9221212706    0.8304723154    1.8041942513