17

 C    0.1020456756    1.4989616845    0.4176154472
 N   -0.0078638942    0.2422151470   -0.2878406794
 C   -1.1772124828   -0.6632256017   -0.3029588799
 C   -1.8603369783   -1.5004193091   -1.4624688395
 C   -0.5904360481   -1.4355690249   -2.2930461378
 C   -0.2165167217   -1.7131093915   -0.8053015055
 O   -1.3014627781   -2.7419628358   -0.7648845373
 C    0.9022083875   -0.8701331398   -0.1658261886
 N    2.0749692169   -1.0480986114    0.2426427048
 H    1.1367186640    1.8525831122    0.3651562823
 H   -0.5328685804    2.2502593497   -0.0597324945
 H   -0.1828472964    1.4171862517    1.4775877337
 H   -1.6073935533   -0.8495821407    0.6842285366
 H   -2.9097883244   -1.5871382422   -1.7524622275
 H   -0.4384062802   -2.2797037447   -2.9637901202
 H   -0.2858898946   -0.4747351882   -2.7069227859
 H    2.5003409885   -0.1878251052    0.5935937115