19

 O   -0.3635730191    1.5736510922    0.2686278940
 C   -0.4632645245    0.2274384353    0.6749495324
 C   -1.2202610338   -0.5920654731   -0.3730956127
 O   -0.6085341962   -0.3813251447   -1.6608641971
 C   -1.3465246913   -2.0538357011   -0.0734471408
 C   -0.8779853747   -2.7574852819    0.9556607243
 C   -1.2738882086   -4.1996384221    0.8175991964
 O   -1.9556532117   -4.2832115799   -0.4298040271
 C   -2.0976347713   -2.9854677605   -0.9965060968
 H   -0.1532404963    1.5409798923   -0.6740778757
 H    0.5330292229   -0.2220151140    0.8353273041
 H   -0.9943121491    0.2080396394    1.6322571990
 H   -2.2193201997   -0.1515635770   -0.4881941456
 H    0.2125647199   -0.8885187265   -1.6719710817
 H   -0.3098234900   -2.3840698817    1.7981305500
 H   -0.4074458900   -4.8790077609    0.8114942043
 H   -1.9327263696   -4.5275552912    1.6389717749
 H   -3.1633726109   -2.7100236687   -1.0688676427
 H   -1.6947535561   -2.9785234658   -2.0189546392