19

 C    0.1024125427    1.6121164294   -0.1065990624
 C    0.0440880592    0.0990861660    0.0292519629
 O    0.7541822329   -0.4710959778   -1.0982983477
 C    1.1848818081   -1.7964466615   -0.7700397130
 C    1.4666265857   -1.7247781239    0.7110854027
 C    2.2211029612   -0.5874529435    1.3098320888
 C    0.7050202448   -0.5293397710    1.2397770865
 C    0.1011215215   -1.5564371393    2.2072101533
 O    0.9357994477   -2.6326081315    1.6853754800
 H    1.1340759298    1.9672728473   -0.0335337252
 H   -0.3032384287    1.9254502137   -1.0723223814
 H   -0.4844083286    2.0847368072    0.6867009800
 H   -1.0078534286   -0.2323783296    0.0049552556
 H    0.3990492439   -2.5470818455   -0.9453534179
 H    2.0404581993   -2.0188408066   -1.4140871432
 H    2.7006916765   -0.7273795061    2.2726877483
 H    2.7459313345    0.0566163252    0.6130913372
 H    0.2616723902   -1.3991727398    3.2796102920
 H   -0.9593256220   -1.7579116526    2.0164921335