21

 C    0.1176401676    1.5056213972    0.1350183509
 C   -0.0068635147    0.0170479253    0.0506823896
 C    0.1122180562   -0.7450767207   -1.0369949966
 C   -0.0418201499   -2.2175133797   -0.7664212157
 C    1.2663735095   -3.0326637429   -0.9291513065
 O    1.8976599717   -3.0010481246    0.3398815528
 C    0.8518547252   -3.1550963974    1.2874754104
 C   -0.3154443544   -2.2869397833    0.7782749134
 C   -0.3010049275   -0.8164665826    1.2775756518
 H    0.9286578644    1.7953079126    0.8154800868
 H    0.3190911908    1.9521554121   -0.8424139695
 H   -0.7985990078    1.9587310021    0.5352778171
 H    0.3224189032   -0.3652947071   -2.0325786487
 H   -0.8424729539   -2.6639998510   -1.3666551359
 H    1.0386969355   -4.0720036999   -1.2209421099
 H    1.9583796357   -2.6093621831   -1.6620729276
 H    0.5445512591   -4.2130977343    1.3491778386
 H    1.2359548995   -2.8513506466    2.2651405007
 H   -1.2715292664   -2.7635273684    1.0041608051
 H    0.4565458114   -0.6565501284    2.0572633020
 H   -1.2594997852   -0.5283470890    1.7302032611