18

 C    0.0028960230    1.5305040572   -0.2776292120
 C   -0.0459153882    0.0446477782    0.1240392110
 C   -1.4258758693   -0.5296757320    0.1761943804
 C   -2.1898736215   -0.9606995945    1.2365636290
 C   -3.4432379430   -1.4147449311    0.7284928714
 C   -3.4163291584   -1.2394093310   -0.6363996543
 N   -4.3644517614   -1.4510301769   -1.6630187563
 N   -2.1930308996   -0.7019126155   -0.9593713942
 H    1.0335357317    1.8998174730   -0.2911688383
 H   -0.4196005773    1.6903148154   -1.2756052315
 H   -0.5730226608    2.1403458462    0.4247262309
 H    0.5820782002   -0.5340001524   -0.5685127065
 H    0.4046902476   -0.0777871245    1.1143445163
 H   -1.8735197666   -0.9641233950    2.2692865283
 H   -4.2605429774   -1.8377016022    1.2930907275
 H   -5.3020057255   -1.4617936577   -1.2797108459
 H   -4.2236930334   -2.3390962458   -2.1378135268
 H   -1.9473345903   -0.4088132713   -1.8895689191