17

 O   -0.0303027761    0.0685251673   -0.2852282655
 C   -0.0142419764    1.2275855267    0.0264152364
 C   -1.1645984629    2.2575161294    0.2468644256
 C   -0.1031416141    3.3428448815   -0.0279391470
 C    0.9410921514    3.3042511991    1.0327851388
 C    1.0556711217    2.2733038873   -0.0727558244
 C    1.9322292401    2.5569828120   -1.2822719419
 C    1.2400472967    3.7726158823   -1.8992455764
 C    0.1380509358    4.1641781219   -1.2438407422
 H   -1.9173416426    2.1385116438   -0.5363947479
 H   -1.6587219361    2.2958840418    1.2212510070
 H    1.7002802108    4.0785113468    1.0019821139
 H    0.6722586510    2.9795389814    2.0338588860
 H    2.9770939074    2.7699732369   -1.0265809611
 H    1.9464057366    1.7053502056   -1.9726031195
 H    1.6429272814    4.2739029149   -2.7741441018
 H   -0.4912654849    4.9968379013   -1.5376304202