16

 C   -0.2009933053    1.4745718929   -0.0607334078
 C   -0.0814980748   -0.0459630767   -0.1561652557
 C    0.8860762465   -0.5070536959   -1.2883411131
 C    2.2495009393    0.0035454897   -1.0647811871
 N    3.3082763341    0.4245485094   -0.8763445299
 C    0.8877122344   -1.9609649477   -1.4349044666
 C    0.8371463759   -3.1610261124   -1.5453465184
 C    0.8192995217   -4.5991909481   -1.6755871386
 O   -0.1800180383   -5.2491254433   -1.8731367420
 H    0.7652155715    1.9389991254    0.1567237788
 H   -0.5816716133    1.9037781393   -0.9937751408
 H   -0.8939136593    1.7479327468    0.7394097641
 H    0.2716742539   -0.4681680104    0.7892603711
 H   -1.0538832215   -0.5001272334   -0.3679859768
 H    0.5305949823   -0.0696530896   -2.2325311985
 H    1.8154374429   -5.0743708861   -1.5781554886