19

 O    0.1172125969    1.3754561999   -0.3770864592
 C   -0.0289642730    0.0609868843    0.1494803578
 C   -1.4432462878   -0.4380055446    0.1121893278
 C   -2.5580263270   -0.0377076733    1.0907516370
 C   -3.2656356206   -1.3895297619    0.7486385737
 O   -4.2367205593   -1.2326119812   -0.2723461281
 C   -3.5409082409   -0.7500809978   -1.4291424201
 C   -2.0652445633   -1.0144302102   -1.1527944950
 C   -1.9593093347   -1.8745092523    0.0714927472
 H   -0.4147569313    1.9673443629    0.1644127026
 H    0.6108383530   -0.5770055764   -0.4702876877
 H    0.3579858687    0.0050029366    1.1804327634
 H   -2.1898844312   -0.0237965512    2.1219734453
 H   -3.1392743149    0.8710864200    0.8995848735
 H   -3.7076902758   -1.9571875713    1.5658142125
 H   -3.8958383457   -1.3031061277   -2.3064312455
 H   -3.7576681604    0.3153279641   -1.5860107535
 H   -1.3914478975   -1.1828147487   -1.9846848583
 H   -1.4509364352   -2.8258425010    0.1521904266