16

 O   -0.0027861541    0.0064989453    0.2473572996
 C    0.0022437721    1.1746587569   -0.0047123921
 O   -1.1406220920    1.8545373357   -0.3237367529
 C   -0.8968827024    3.2283290580   -0.6941723611
 C    0.5794682839    3.5100711417   -0.3833226539
 C    0.9767643347    3.9751671602    1.0243869709
 C    0.4463642354    3.1054285712    2.0910795375
 N    1.6418866103    2.6416500922    1.3567892211
 C    1.1746825270    2.1467583848   -0.0058613540
 H   -1.1250601379    3.3314173659   -1.7597103421
 H   -1.5862609168    3.8565960875   -0.1233978194
 H    1.0878556432    4.0523578834   -1.1790641498
 H    1.4775529395    4.9137476985    1.2373735506
 H    0.6895860408    3.3849849578    3.1112984669
 H   -0.5033759124    2.5879876085    1.9876272932
 H    2.0201871187    1.7581370123   -0.5710883945