18

 C   -0.0733817078    1.4571215249    0.0701142840
 C    0.0652970813   -0.0294598535   -0.0710817872
 C   -0.6321565807   -0.8957738970   -1.1199791602
 C   -0.3894802443   -2.0371723107   -0.1178058987
 N   -0.2448938626   -0.9826774400    1.0362260752
 C    1.2098569220   -0.8051115997    0.5369974400
 C    2.3283322640   -0.2448937780    1.3572449491
 C    1.1278942814   -2.1786040612   -0.0491937478
 O    1.9055822397   -3.0851365987   -0.1547734021
 H    0.4952966310    1.9746233795   -0.7100805643
 H   -1.1245125472    1.7482010333   -0.0248137152
 H    0.2846601170    1.8038845119    1.0423949588
 H   -1.6911796665   -0.6274830623   -1.1802852387
 H   -0.2131949456   -0.9878764518   -2.1268177199
 H   -1.0538663563   -2.8895466916   -0.0039326277
 H    1.9735307605    0.5261355886    2.0449782523
 H    2.7955748942   -1.0407275946    1.9443204655
 H    3.0970154900    0.1961571808    0.7140948868