21

 C   -0.0042465256    1.4943259004   -0.1704280575
 O    1.3908718454    1.6062058065    0.1670112551
 C    1.4703627733    0.2082412902    0.5009901173
 C    0.0107808181   -0.0472477571    0.0304978645
 C   -0.9572961909   -0.6676300698    0.9798950840
 C   -1.7151853563   -1.7410165689    0.7357420704
 C   -2.6201695752   -2.0968901570    1.8886737937
 C   -2.0482053739   -1.2436746372    3.0493893261
 C   -1.2440228406   -0.1107078609    2.3652064818
 H   -0.6414380739    2.0463059161    0.5324347829
 H   -0.2136210903    1.8430388910   -1.1885568719
 H    2.2529223375   -0.3095882951   -0.0661495149
 H    1.6464709859    0.0497786594    1.5729511715
 H   -0.0160827550   -0.5803710650   -0.9226232347
 H   -1.7196650942   -2.2863715740   -0.2029309197
 H   -3.6624047331   -1.8303952837    1.6594203710
 H   -2.6244076298   -3.1686752270    2.1176051087
 H   -2.8211706959   -0.8672331007    3.7240244400
 H   -1.3683148662   -1.8581272426    3.6482053397
 H   -0.3388847882    0.1550687225    2.9226702127
 H   -1.8338025512    0.8139167028    2.2883922894