16

 N    0.2276966940   -1.1484580655    0.1546765415
 C    0.1142786893   -0.0012677622    0.0485364421
 C   -0.0819820854    1.4106097489   -0.0450989986
 C    0.2047617034    2.2142594257   -1.2540754822
 N    1.0859686539    2.4180200267   -0.0967579793
 C    0.3694019200    3.2384508464    0.9651878947
 C   -0.6461374338    4.3388081548    0.5734565843
 N   -1.7169166190    3.3015765210    0.4689934889
 C   -0.8180121826    2.2691773132    1.0251236677
 H    0.7155052836    1.7112999435   -2.0685066768
 H   -0.5261837886    2.9608694277   -1.5464143914
 H    1.0447984143    3.4280048547    1.7963963793
 H   -0.7916198365    5.0600104019    1.3862014592
 H   -0.4640114911    4.8905736782   -0.3552515726
 H   -2.5496528963    3.4817938424    1.0147214900
 H   -1.1336486549    1.7360588924    1.9215267932