22

 C    0.2566464284    1.7077087359   -0.3064574367
 O   -0.2987283960    0.4299675753   -0.5301720336
 C    0.5669620460   -0.4325220219   -1.2203901444
 C    1.7191516084   -1.1180608192   -0.4267608966
 N    1.2057677228   -2.4772616614   -0.7816874841
 C    0.2691255075   -3.0262934003    0.2531089919
 C   -0.9742005857   -2.5811862733   -0.5660251956
 C   -2.1162498614   -1.8633224547    0.1399421281
 C    0.0233112246   -1.8531852552   -1.5090958527
 H    1.1555548043    1.6619270551    0.3264455731
 H    0.5268764362    2.2002264832   -1.2536060362
 H   -0.5012468614    2.3075432698    0.2026278376
 H    0.9246628426    0.0619732301   -2.1370341722
 H    2.7275593699   -0.9397368196   -0.8131754147
 H    1.7091127585   -0.9052281562    0.6485531967
 H    0.3872033730   -4.1039605091    0.4036359740
 H    0.3627048096   -2.5309442986    1.2281184643
 H   -1.3809745998   -3.4364945832   -1.1159300135
 H   -1.7550633354   -1.0232648281    0.7340605939
 H   -2.8428669542   -1.4718898794   -0.5799870316
 H   -2.6450436741   -2.5610487346    0.7995964859
 H   -0.0850741437   -2.0805828146   -2.5739907137