16

 O   -0.6075136113    0.6088363915    0.7714829635
 C    0.1988272110    0.9107297587   -0.0708416099
 C    1.2088721629    1.9935024535    0.1010607187
 O    2.3850094915    1.8721104079   -0.7516378505
 C    1.4944028640    2.9087990535   -1.0179186367
 C    0.8888765644    3.3065110332   -2.3760131990
 C    0.3463516105    4.5786014419   -1.6731082040
 C    1.8112444469    4.4031693344   -1.1941995695
 N    2.1545607647    4.1146075379   -2.6539368404
 H    0.2499059566    0.4078042220   -1.0617580672
 H    1.4009969632    2.3138419307    1.1231605955
 H    0.4160002385    2.6893815779   -3.1388123129
 H    0.1955778467    5.4254102640   -2.3414596234
 H   -0.4484484533    4.4533140354   -0.9366634669
 H    2.4155992064    5.0620953414   -0.5721425502
 H    2.9594376375    3.4817386562   -2.6946919572