16

 O   -0.5013247703    0.6617569096   -0.8029893905
 C    0.1306055581    0.9914536221    0.1675267865
 C    1.2837534662    1.9656533865    0.1474556840
 C    1.5208781986    2.8096371228   -1.0942800968
 C    0.4367910028    3.7839428917   -1.3023895195
 N    1.4825281886    4.1208095096   -0.3167464271
 C    1.1587894862    3.3284089863    0.9368036337
 C   -0.0939339676    3.6368708896    1.5985598769
 C   -1.1406814323    3.8791038115    2.1388853384
 H   -0.1013623130    0.5802508640    1.1757333026
 H    2.1774977183    1.4338540872    0.4908932913
 H    2.2883622814    2.6181390580   -1.8352512880
 H    0.4964378307    4.4070254573   -2.1887154990
 H   -0.5713470816    3.5733299150   -0.9594831142
 H    1.9902191850    3.4550723688    1.6335407940
 H   -2.0610760112    4.1018419300    2.6204956978