22

 C   -0.1585322772    1.7206508418   -0.0390140416
 C   -0.1216224628    0.2630812909    0.4346631920
 C   -1.3404635234   -0.5306776917   -0.0219440210
 C   -1.5284237345   -0.8574035500   -1.5313183057
 C   -2.0960903324   -2.2442926087   -1.1257984663
 C   -1.4778667613   -2.0594970173    0.2899759651
 C   -0.1420237850   -2.8004826765    0.4813760316
 C   -0.3319122185   -4.2465778843    0.5854822059
 N   -0.5015078805   -5.3870416312    0.6655295645
 H    0.7289764788    2.2682792289    0.2918137082
 H   -0.1989137738    1.7809333856   -1.1318010174
 H   -1.0386955727    2.2412655536    0.3539254914
 H    0.7962010128   -0.2105601345    0.0627599020
 H   -0.0585159785    0.2377879351    1.5310210094
 H   -2.2438046220   -0.0325213460    0.3507397247
 H   -2.1754485554   -0.1988981965   -2.1146794076
 H   -0.5685095625   -0.9394831819   -2.0522076902
 H   -3.1881082647   -2.2496271677   -1.0914051375
 H   -1.7674817932   -3.1157652386   -1.6976686291
 H   -2.1319384871   -2.3065606093    1.1302156501
 H    0.5377428211   -2.6057908943   -0.3561933858
 H    0.3673753428   -2.4526972576    1.3872344170