22

 C   -0.0988502464    1.3441082542   -0.0622784716
 N    0.0904168577   -0.1006040623    0.0277049287
 C    1.5056182114   -0.4950255406   -0.1238698200
 C    0.8741769554   -0.4942587481    1.2159645334
 C    0.9979288452   -2.0397990678    1.3043401844
 C    1.6519954127   -2.0406059739   -0.0831712512
 C    0.3825626320   -2.8319505720    0.1667671889
 C    0.6962123754   -4.3206988279    0.3156452689
 C   -0.9882972979   -2.6044689613   -0.4796906691
 H    0.7473129394    1.9310804868    0.3361112547
 H   -0.2425054057    1.6228624762   -1.1110703351
 H   -0.9989882729    1.6237562030    0.4943695608
 H    2.2225382263    0.1915927778   -0.5568654691
 H    0.9968957960    0.1930479782    2.0438874145
 H    1.3538409014   -2.5278811135    2.2045441623
 H    2.5727320820   -2.5292797536   -0.3810118168
 H    1.6739401178   -4.4927778386    0.7769624573
 H   -0.0615226129   -4.8115180577    0.9365663457
 H    0.6932437055   -4.8125215176   -0.6634904755
 H   -0.9123734424   -2.0452818578   -1.4125766531
 H   -1.4530985035   -3.5727475119   -0.7003166781
 H   -1.6606062664   -2.0476650016    0.1736174800