18

 C    0.0712288639    1.5193097198   -0.3208920497
 C    0.0432840276    0.0763310091   -0.1321303315
 C    0.0152425575   -1.1183975212    0.0162291531
 C   -0.0235942047   -2.5521956120    0.2200729479
 C    0.0445972409   -3.1152639002    1.6925294503
 C   -1.1631149414   -4.0536422334    1.3899524742
 C   -1.3538067896   -3.2966172251    0.0932990296
 N   -2.2662809329   -3.1718193986   -0.7720949993
 O   -3.3518128261   -4.0209786059   -0.4849094726
 H    0.8480641084    1.8139999939   -1.0351611032
 H   -0.8873696610    1.8868397814   -0.7036590160
 H    0.2728262390    2.0410531733    0.6213768877
 H    0.7342462601   -3.0439867832   -0.4041082044
 H    0.9847889397   -3.5947468101    1.9673328394
 H   -0.1953726160   -2.3436177754    2.4247577638
 H   -0.8889082551   -5.1024851891    1.2369860975
 H   -2.0087375957   -4.0204270410    2.0807341842
 H   -3.9673763243   -3.8062271521   -1.1939530208