17

 C    0.6001159839    1.2362150680   -0.8395645756
 C   -0.0926223413    0.1457590633   -0.0678068433
 O    0.6571043494   -1.0189588807    0.2591187770
 C    0.2142614649   -0.2140689766    1.3410934374
 C    1.2795004645    0.5036876057    2.1299642587
 O    2.3760157933    0.7860576167    1.6961764348
 N    0.8733181941    0.8318863803    3.4113474334
 C    1.6629280446    1.5266893029    4.3156692828
 N    1.2143773891    1.7949521091    5.4726801872
 H    1.5985152713    1.4191851626   -0.4424933128
 H    0.6826086037    0.9437868722   -1.8914576137
 H    0.0133781607    2.1600152266   -0.7950109012
 H   -1.1158463096   -0.0723988211   -0.3826482886
 H   -0.5877982620   -0.6548044795    1.9368727310
 H   -0.0437656779    0.5657175031    3.7418879222
 H    2.6407103978    1.7763262055    3.9001738809
 H    1.9113876737    2.3037454619    6.0132778599