23

 C   -0.1504815344    1.5805808984    0.0093539013
 C    0.0455515795    0.0650768441   -0.0025903487
 C    0.8728745516   -0.4807593190   -1.2024258997
 C    1.5957687246   -1.6960925710   -0.6242937506
 C    2.5863519606   -1.4830353411    0.5169630198
 C    2.3090811270   -0.1559146472    1.2194519036
 C    0.7860309251   -0.5212054284    1.2138172493
 C    1.1731670512   -1.9735212333    0.7942714025
 C    0.6541194061   -3.2617778343    1.3569983206
 H    0.8082874683    2.1087254935    0.0547702875
 H   -0.6698460498    1.9186941737   -0.8938673897
 H   -0.7465693997    1.8979963175    0.8719802703
 H   -0.9455893279   -0.4095694375   -0.0332137059
 H    0.2297268798   -0.7563291971   -2.0442592093
 H    1.5751715236    0.2746778271   -1.5762591089
 H    1.8151762014   -2.5437571811   -1.2656608751
 H    3.5152122569   -2.0426894345    0.5535850273
 H    2.7149587802   -0.1468357154    2.2344965472
 H    2.6128131735    0.7695430654    0.7166268349
 H    0.2637272719   -0.3876658511    2.1631002605
 H   -0.4188762437   -3.3837511553    1.1629601582
 H    1.1672754797   -4.1196780360    0.9088775077
 H    0.8011417543   -3.3192138573    2.4421346270