21

 O   -0.1432194000    1.4365085958   -0.2916588578
 C    0.0022531284    0.0518244826   -0.0149019916
 C   -1.3767620228   -0.5894669425   -0.0848722075
 C   -1.3481137695   -2.0920089154    0.2158301049
 C   -2.7257923704   -2.7226462294    0.1306351545
 O   -3.3405981308   -2.6258799550   -1.1941144835
 C   -3.6364638652   -4.0239108053   -1.1693257920
 C   -2.3825523474   -4.8358314050   -1.1619397294
 C   -2.9061885673   -4.2422414825    0.1334014038
 H    0.7282733863    1.8417357353   -0.2652591989
 H    0.6742245473   -0.4322843511   -0.7429916612
 H    0.4385227292   -0.1106024725    0.9852642781
 H   -2.0358573096   -0.0742891607    0.6248880524
 H   -1.7965213794   -0.4238296034   -1.0825301375
 H   -0.6698894986   -2.6012823712   -0.4788374562
 H   -0.9587497595   -2.2698993673    1.2281433605
 H   -3.4008622954   -2.2513574882    0.8585200367
 H   -4.6051239456   -4.3453711621   -1.5336106154
 H   -2.5196135508   -5.9101364549   -1.2400702482
 H   -1.4900339818   -4.4505445348   -1.6458686692
 H   -3.1631045769   -4.8436781924    0.9946537372