23

 C   -0.2334528222    1.5416225074    0.0908097400
 C   -0.0683212600    0.0579956421   -0.1984510064
 O   -1.2660473590   -0.5881467903    0.1831603374
 C   -1.3511304559   -1.9880190662    0.0973562097
 C   -0.3339752782   -2.8233518942   -0.6401916359
 C   -0.4076834025   -2.8678213796    0.8781339473
 C   -2.7931263569   -2.3995777945    0.0126977363
 C   -3.8703082846   -1.6077818992    0.7090856451
 C   -3.7820526436   -1.6020993410   -0.7984422413
 H    0.6673820602    2.0885172672   -0.2034075160
 H   -1.0836639386    1.9472256876   -0.4648911719
 H   -0.4106072647    1.7081559025    1.1569746775
 H    0.1324340919   -0.1022992218   -1.2681231034
 H    0.7926085703   -0.3395110962    0.3616356058
 H   -0.6984920985   -3.6724888480   -1.2087913054
 H    0.5337585836   -2.3444185000   -1.0774546549
 H    0.4006540003   -2.3917160762    1.4229211195
 H   -0.8103656024   -3.7504254645    1.3634022065
 H   -2.9204179169   -3.4782577294    0.0030702028
 H   -4.6807882142   -2.1526188702    1.1807464546
 H   -3.5656425108   -0.7051243312    1.2242394996
 H   -3.4180436814   -0.6945748716   -1.2649282764
 H   -4.5323502559   -2.1401532728   -1.3673504103