19

 C   -0.0077495148    1.5383754773    0.1006880759
 C   -0.0518093569    0.0049403483   -0.0393718963
 C    0.7054900023   -0.4990250132   -1.2464899125
 N   -0.0069897959   -0.7026001739   -2.3565538418
 C    0.6066314162   -1.1416365980   -3.4576336291
 C    1.9709607419   -1.4024770883   -3.5035451968
 C    2.7249353991   -1.1884997315   -2.3581338577
 C    2.1001590429   -0.7251259002   -1.1978330560
 N    2.8233891973   -0.5575177418   -0.0134621369
 H    1.0173983653    1.9143112454    0.1983836494
 H   -0.4456388026    2.0117504174   -0.7828290702
 H   -0.5689561526    1.8684148727    0.9804243479
 H    0.3359936680   -0.4664168787    0.8723219021
 H   -1.0911931993   -0.3139660506   -0.1505674099
 H   -0.0203676351   -1.2934183899   -4.3322332348
 H    2.4355486899   -1.7615284118   -4.4153914218
 H    3.7949403552   -1.3788256026   -2.3541244738
 H    3.8211502833   -0.4713435071   -0.1451903477
 H    2.4760361556    0.1576536264    0.6070774100