17

 C   -0.0396813160    1.5307954165    0.0025626520
 C   -0.0090390754    0.0246144890    0.0199284682
 C   -0.2738764458   -0.7260486716   -1.1278130513
 N   -0.2649638421   -2.0573841278   -1.1875456155
 C    0.0176283195   -2.7402756072   -0.0704376146
 C    0.0174693579   -4.2431793298   -0.1800448185
 C    0.2977398005   -2.0877734708    1.1332636434
 C    0.2836764090   -0.7001645205    1.1758098522
 H    0.9290902552    1.9553595103    0.2890620077
 H   -0.2875863303    1.9088576040   -0.9930246260
 H   -0.7833878216    1.9253081704    0.7040700136
 H   -0.5084927471   -0.2115287207   -2.0590538127
 H    0.2567983312   -4.7192301342    0.7741273136
 H   -0.9617535879   -4.6017539810   -0.5133245895
 H    0.7472562140   -4.5717839547   -0.9270144722
 H    0.5236311307   -2.6645088832    2.0240160028
 H    0.4997187081   -0.1803458686    2.1054046565