16

 C   -0.0965192438    1.5883642712   -0.0293125875
 C    0.1455595092    0.0940744484    0.0131736444
 O    1.3165521208   -0.3623536352   -0.7510801448
 C    1.7382692867   -1.1977048706    0.3374664191
 C    2.1621224210   -0.3102065718    1.4622580095
 O    2.7855017264    0.9170409177    1.2435328907
 C    0.6824197548   -0.6017472633    1.2649581880
 O   -0.1192039492   -1.2185389379    2.2034388098
 H    0.7414123461    2.1418101313    0.3977998435
 H   -0.2623790232    1.9200741516   -1.0594004799
 H   -0.9982720722    1.8263581901    0.5456784977
 H   -0.7304061984   -0.4534715783   -0.3581378205
 H    2.0754438666   -2.2028685899    0.1128779153
 H    2.5699688874   -0.8359458169    2.3230878552
 H    2.7779945647    1.0461027415    0.2850882075
 H   -0.1264585570   -0.6776791079    3.0007475023