17

 C   -0.2503344600    1.3492988056   -0.1693344017
 C    0.0259331191   -0.1076215027    0.0711862052
 O   -1.1533972587   -0.8735808415    0.3696863186
 C   -0.5145950651   -1.5266901916    1.4995628486
 C    0.8072363027   -0.8022524591    1.2105397074
 O    1.6452459137   -1.5099444880    0.2825656011
 C    1.0171226016   -0.8698522304   -0.8701358191
 C    0.4685854323   -1.7876766765   -1.8461946427
 C    0.0186706822   -2.5368227027   -2.6711082134
 H    0.6784308604    1.9066012083   -0.3238257787
 H   -0.8743006092    1.4649423090   -1.0625512834
 H   -0.7884225631    1.7847581233    0.6769800753
 H   -1.0066698299   -1.2540513496    2.4412691518
 H   -0.4738363180   -2.6149214846    1.3923413676
 H    1.3657261340   -0.3295915483    2.0200333262
 H    1.7378802298   -0.1922146307   -1.3481681099
 H   -0.3861866618   -3.2017844106   -3.3936818528