17

 C   -0.0307849690    1.5875005323    0.1451298041
 C   -0.0003504726    0.0753548660    0.0755510139
 C   -1.2571638819   -0.5697316715   -0.5030188435
 O   -1.4947220543   -0.2008253257   -1.8499077425
 C    1.2498433915   -0.6902083837   -0.1821998598
 O    2.4045056505    0.0055258995    0.3605857084
 C    1.9061239000   -0.1633769749    1.6518556988
 O    2.4457604975    0.1135585641    2.6717303686
 C    0.6244917083   -0.8023967159    1.1891779169
 H    0.9215568376    1.9981660050    0.4831985758
 H   -0.2287115677    2.0039740680   -0.8484947585
 H   -0.8172265679    1.9301629214    0.8260326631
 H   -1.1497389353   -1.6600546259   -0.5044456144
 H   -2.1165229101   -0.3286020422    0.1405754497
 H   -1.8476666089    0.6935930156   -1.8630272093
 H    1.4362240140   -1.4281330614   -0.9499161926
 H    0.0896558383   -1.6017370309    1.6824632613