21

 C    0.3523486410    1.5533483180   -0.1337811202
 C    0.7112392465    0.0717033091   -0.1672247262
 N   -0.0183770075   -0.6155566719   -1.2470108675
 C    0.2666531331   -1.9859064593   -1.4039003932
 C   -0.3284495971   -3.1339639805   -0.9304197948
 C    0.3971949049   -4.2392386770   -1.4651962068
 C    1.4224069025   -3.7449912706   -2.2391351596
 C    2.4869691242   -4.4401479338   -3.0209326846
 N    1.3284765280   -2.3705762182   -2.1932035143
 H    0.5725183749    2.0273280005   -1.0947398078
 H   -0.7146375968    1.6958866981    0.0744793557
 H    0.9135383343    2.0707521127    0.6499093432
 H    1.7825220685   -0.0500393788   -0.3625644263
 H    0.5196115405   -0.3890535384    0.8160646852
 H   -1.0155254753   -0.4866087269   -1.1177993189
 H   -1.1813872188   -3.1737656699   -0.2696102203
 H    0.1980536344   -5.2866527288   -1.2926896113
 H    2.4438982532   -4.2012032290   -4.0916504584
 H    3.4957914852   -4.1834637283   -2.6722619394
 H    2.3703230675   -5.5219943712   -2.9219283547
 H    1.8843971569   -1.7228587358   -2.7252638598