25

 C    0.0450428369    1.5200093682    0.0833497276
 C    0.0319164181   -0.0092855975    0.0002209728
 C   -1.3889035829   -0.5849654830   -0.0198255872
 C   -1.4856109052   -2.1231896651   -0.0279909033
 C   -2.9563589608   -2.5375265748    0.1670355960
 O   -3.1521723784   -3.9332748238    0.3069477455
 C   -0.9108054968   -2.7359462084   -1.2955517197
 C    0.5482752399   -3.0971651207   -1.4143567707
 C   -0.4838308999   -4.1917926500   -1.3437773613
 H    1.0672575576    1.9110273112    0.0982086497
 H   -0.4694422054    1.9676989435   -0.7745070499
 H   -0.4598927065    1.8724913879    0.9897926746
 H    0.5743254237   -0.3312608231   -0.8952426973
 H    0.5794882898   -0.4262611038    0.8559983109
 H   -1.9324984731   -0.2079352161    0.8577510899
 H   -1.9245721367   -0.1884490606   -0.8947977556
 H   -0.9221682919   -2.5177999184    0.8301055298
 H   -3.3422712672   -2.0895651197    1.0892134291
 H   -3.5595097268   -2.1327153209   -0.6642932159
 H   -2.8261923179   -4.3473484354   -0.4980148352
 H   -1.3707007043   -2.3584109758   -2.2079905130
 H    1.0487265994   -2.9215528834   -2.3602070157
 H    1.1785512937   -2.9466399201   -0.5445614029
 H   -0.5414778049   -4.7666955379   -0.4256801579
 H   -0.6868538103   -4.7636612523   -2.2431958802