15

 O   -0.1601836105    1.3945448466    0.0498305733
 C   -0.0822391184    0.0065516066    0.0450301065
 C   -0.4201363727   -0.7785488607   -1.1842129228
 C   -1.3322860852   -0.8347465013    0.0384463158
 C   -1.0875162634   -1.9898254060    0.9737246224
 O   -1.8721691548   -2.8409398524    1.3274622599
 N    0.2328641475   -1.9008941004    1.3626025643
 C    0.8857390908   -0.6445566048    1.0381105831
 H    0.5067254697    1.7377312717   -0.5546105351
 H   -0.8085676205   -0.2090569744   -2.0217160296
 H    0.1611881060   -1.6568486479   -1.4472406515
 H   -2.3281538722   -0.4187426669   -0.0231635872
 H    0.5878283568   -2.5374072383    2.0582118987
 H    1.8841306871   -0.8040078006    0.6110632498
 H    0.9855552097    0.0119334587    1.9130132525