17

 C   -0.0019762343    1.4343903755    0.0368234303
 N    0.0422962788   -0.0102141866    0.0625422945
 C   -0.0397565074   -0.7665723624   -1.1082548333
 O   -0.1549114435   -0.3584488037   -2.2497987320
 N    0.0363383512   -2.0732883475   -0.6575467438
 C    0.1566417256   -2.1203343542    0.7295388250
 C    0.1613824894   -0.8455010500    1.1770795105
 C    0.2677662751   -0.3440562374    2.5838867374
 O    0.0426135715   -1.3741441062    3.5272288782
 H    0.9015725812    1.8718504173    0.4748602532
 H   -0.0682022229    1.7255416727   -1.0131063467
 H   -0.8767688923    1.8226981874    0.5702157030
 H   -0.0121630347   -2.8543132607   -1.2865351152
 H    0.2531437178   -3.0412641864    1.2760411582
 H    1.2762689145    0.0337318831    2.7957887374
 H   -0.4189630025    0.5058823379    2.7336447587
 H   -0.8339292673   -1.7339992288    3.3507093848