19

 N   -0.0470237000    1.4740351842    0.0458440755
 C    0.0074685206    0.0089035899    0.0206059224
 C   -1.4314975523   -0.5563865943    0.0532374338
 C   -1.4369068211   -2.0805485819   -0.1237407604
 C   -0.6273950536   -2.4772578898   -1.3583894161
 O    0.6964503134   -1.9630594092   -1.3019898483
 C    0.7227743648   -0.5592722920   -1.2390947095
 C    0.7404239887   -0.4326211823    1.2227137702
 N    1.3267688186   -0.7764114324    2.1569097003
 H    0.8911019010    1.8650388705    0.0310416955
 H   -0.5219341636    1.8043298382   -0.7900702351
 H   -1.9231800266   -0.2494326485    0.9795533689
 H   -1.9771333303   -0.0848122772   -0.7755482155
 H   -1.0004043744   -2.5590212091    0.7598032927
 H   -2.4646811422   -2.4466403213   -0.2205008885
 H   -0.5254039242   -3.5625136286   -1.4366423326
 H   -1.1285566712   -2.1142584157   -2.2727186108
 H    0.2251323999   -0.1123018104   -2.1189101558
 H    1.7744635127   -0.2581872499   -1.2475270265