20

 C   -0.1265767688    1.5571760389    0.0566348234
 C    0.0377616069    0.0358781048    0.0284550689
 C    0.7006085590   -0.4653576424   -1.2594894869
 C    0.8915957990   -1.9725098880   -1.2966922381
 C    1.5418403026   -2.5207844078   -2.5847882052
 N    2.3370640610   -3.5991432197   -2.0316011702
 C    2.6180008770   -3.3771844120   -0.6980390563
 O    3.4244648183   -3.9365416315   -0.0095709530
 O    1.7915249731   -2.3852265822   -0.2479822143
 H    0.8432596020    2.0612704965   -0.0182549170
 H   -0.7463843040    1.9077370079   -0.7764979469
 H   -0.6009452516    1.8868595887    0.9857571755
 H    0.6380643011   -0.2913828419    0.8840855772
 H   -0.9436180965   -0.4439247313    0.1389769866
 H    0.0931388885   -0.1796799958   -2.1296443789
 H    1.6804660861    0.0122061465   -1.3882206564
 H   -0.0663604380   -2.4802567268   -1.1200302169
 H    0.7941044730   -2.8790613545   -3.2978633436
 H    2.1553490579   -1.7531058938   -3.0792779304
 H    3.0399424435   -4.0782690857   -2.5705339575