17

 C    0.1390581464    1.6102515264    0.0255659104
 C    0.0611550056    0.0970259400   -0.0102240788
 O   -1.2776153169   -0.3748452590    0.1401650605
 C    0.6704143391   -0.7235822455   -1.1869439355
 C    2.0302911989   -0.2528165726   -1.7143520155
 O    2.7380121364   -0.9351108850   -0.6470842185
 C    1.5221580162   -1.5748606391   -0.1868879308
 C    0.9386584282   -0.7434492365    0.9731062000
 O    1.0293611382   -0.7568800097    2.1654435113
 H    1.1614185257    1.9703434964   -0.1184766581
 H   -0.5049707321    2.0437552198   -0.7457662454
 H   -0.1990851808    1.9732073620    1.0024270326
 H   -1.5523172927   -0.1816415410    1.0449415207
 H   -0.0617726026   -1.1352497987   -1.8766654561
 H    2.2967641368   -0.6771008077   -2.6899477795
 H    2.2314320505    0.8234031080   -1.7269643496
 H    1.5953768532   -2.6630796178   -0.1276025276