21

 C    0.5405008914   -0.8544415368    1.3717447345
 C   -0.0354854880   -0.1776508162    0.1217378895
 C    0.7464644006   -0.4068218242   -1.1895394770
 C    2.2268050333    0.0270469064   -1.0926306197
 C    2.3670449804    1.4810534355   -0.7080463344
 O    2.9230879884    1.8832345623    0.2818844740
 C    0.6753199410   -1.8736795150   -1.6869596944
 C   -0.6819621735   -2.3343764210   -1.9521879293
 C   -1.8071100157   -2.6955022179   -2.1738334548
 H    0.6321482732   -1.9385540143    1.2482544864
 H    1.5256107712   -0.4558633868    1.6316946844
 H   -0.1171580247   -0.6821183184    2.2289206385
 H   -1.0637780434   -0.5182517738   -0.0394220262
 H   -0.0972598305    0.9024848376    0.3033501748
 H    0.2674205050    0.2106971361   -1.9609236521
 H    2.7812897871   -0.5794710035   -0.3709266777
 H    2.6975240410   -0.1021203183   -2.0777030637
 H    1.8954512730    2.1932808616   -1.4264101059
 H    1.2717445701   -1.9670313003   -2.6035785232
 H    1.1498978760   -2.5360985862   -0.9519912189
 H   -2.7967443259   -3.0258608768   -2.3711586147