13

 N   -0.0542440277   -1.1710361119   -0.0741581673
 C   -0.0213360191   -0.0164102346   -0.0215861113
 C   -0.0067840003    1.4367822809    0.0186504376
 C    0.0485839865    2.1201036108    1.4402055878
 C    1.5419263809    1.6418643804    1.5129444818
 C    1.4032937862    2.1455107971    0.0326760431
 C    0.6361921238    3.3196420001    0.6714858606
 O    0.5700718259    4.5047967092    0.6292410946
 H   -0.7420759343    1.8381686949   -0.6818035980
 H   -0.7151055590    2.0772104172    2.2117226535
 H    2.2117587505    2.1988954333    2.1676954589
 H    1.6689489446    0.5637682278    1.6157385927
 H    2.1455694021    2.1308631948   -0.7604900737