18

 C   -0.5793294450    1.3713679497    0.0239687344
 C    0.0424084589   -0.0131578988   -0.0680151907
 C    1.3492924860   -0.1992731329   -0.9070406018
 C    2.0624411861   -0.7976169967    0.3207461520
 O    2.7692533481    0.1902055329    1.0883558757
 C    1.6659530629    0.3653956538    1.9999475685
 C    0.7712998843   -0.6075374137    1.1952505412
 C    0.0948111702   -1.6526663292    1.9199303929
 N   -0.4568611289   -2.4936705740    2.4922499864
 H    0.1577951501    2.1359589425    0.2886490417
 H   -1.0068681995    1.6536744152   -0.9437256874
 H   -1.3846734578    1.3996634212    0.7655191599
 H   -0.7174144061   -0.7302766661   -0.3887103154
 H    1.2409735092   -0.8850709895   -1.7502823017
 H    1.8220617422    0.7230468509   -1.2520781640
 H    2.6102453239   -1.7375550759    0.2270408749
 H    1.9094700184   -0.0000356410    3.0037655725
 H    1.3279242967    1.4048303018    2.0636287310