16

 C   -0.2150692249   -1.1137021361   -0.4985247481
 C   -0.0907350555    0.0206297276   -0.1226580936
 C    0.0654764844    1.4014709690    0.3217725277
 C    1.4774125147    1.9606650586    0.1031759857
 C    1.8323185664    2.4586236791   -1.2874775857
 C    1.6039107160    3.4501878368   -0.1830416389
 C    2.5125458918    1.3400020828    0.8851754362
 C    3.3674553051    0.8224875611    1.5544340792
 H   -0.3232172172   -2.1183058655   -0.8244333970
 H   -0.6484246607    2.0387772208   -0.2146853567
 H   -0.1892681766    1.4782703432    1.3858621607
 H    2.8462998932    2.2956398259   -1.6312111699
 H    1.0712757723    2.3504775395   -2.0526278485
 H    0.6881396381    4.0318337726   -0.1899169251
 H    2.4624537118    3.9626107783    0.2336089881
 H    4.1235593010    0.3584796664    2.1375347960