20

 C   -0.0559424588    1.5627583806   -0.0379394142
 C   -0.0002944539    0.0480621132    0.0614848872
 C   -1.2594566719   -0.6063221870   -0.4871933185
 N    1.1944332477   -0.7344123701   -0.2798760715
 C    2.4206942181    0.0363211577    0.1437851471
 C    1.9801162394    0.0963257058    1.6249785337
 C    0.7120970261   -0.6372367214    1.1959448073
 C    0.1925582127   -1.8026004620    1.9393694009
 O    0.5239767139   -2.0546983321    3.0752630422
 H    0.7738728515    2.0734647560    0.4501274986
 H   -0.0697421624    1.8642137022   -1.0914769626
 H   -0.9818195668    1.9243530091    0.4202304240
 H   -1.4630244419   -0.2147004444   -1.4894387259
 H   -1.1453926382   -1.6874473076   -0.5753786639
 H   -2.1277190728   -0.3877274373    0.1428865763
 H    3.3023812540   -0.5832254632   -0.0268115473
 H    2.5480539906    0.9832030523   -0.3880982445
 H    2.5903745381   -0.5221371650    2.2833524582
 H    1.8526837742    1.0770751874    2.0892483282
 H   -0.5253173097   -2.4478355342    1.3934607448