18

 C   -0.4429887832    1.4333275101   -0.0264018142
 C   -0.0398442427   -0.0083359590    0.0665975176
 C   -0.9737686996   -1.1618836373    0.4286680650
 O    0.0903019807   -1.8501090152    1.1551414043
 C    0.9753315434   -0.7457225129    0.9061590212
 C    1.2435375751   -0.5641730091   -0.5632095536
 C    1.3596093373   -1.6254902535   -1.6331957590
 N    0.9454289046   -2.8782143036   -1.2927838479
 O    1.7992004384   -1.3459994450   -2.7337640093
 H    0.4329099346    2.0885138139   -0.0109796681
 H   -0.9847653778    1.6324236710   -0.9579824249
 H   -1.0925061315    1.7175624346    0.8090961555
 H   -1.7652131098   -0.8650055890    1.1252548788
 H   -1.3880256464   -1.7734747298   -0.3788157016
 H    1.6451455462   -0.4529841352    1.7070886740
 H    1.9411109004    0.2432738448   -0.7680598982
 H    0.7016937488   -3.0923791482   -0.3364162638
 H    1.0895117515   -3.6116825564   -1.9672798658