14

 C   -0.0352355066    1.4203453947   -0.0125187862
 N   -0.0083259342   -0.0364358539    0.0258438848
 N   -0.0429103093   -0.6530273550   -1.1368956774
 N   -0.0223439334   -1.9307482668   -1.1832157149
 C    0.0369446509   -2.6009708147    0.0368251727
 O    0.0549879201   -3.9240983427   -0.0931247038
 N    0.0739499841   -2.0848820673    1.2155052518
 C    0.0525569530   -0.7051278637    1.2818527235
 N    0.0809684533    0.0225168741    2.3252413434
 H    0.8612503333    1.8137894834    0.4710015216
 H   -0.0824916708    1.7179968311   -1.0590894713
 H   -0.9031037010    1.7829301617    0.5420636656
 H    0.0212526744   -4.1135812001   -1.0422896443
 H    0.1236512962   -0.5823582808    3.1445328244