23

 C    0.0590538699    1.4460042738    0.0945444182
 C    0.0139917727   -0.0650643627    0.0698225085
 C    0.0439263162   -0.7081592259   -1.1028492445
 C    0.0125079260   -2.1887701360   -1.4030905087
 C    1.3900093052   -2.8771677101   -1.2993955368
 C    2.0773087048   -2.8736024855    0.0407158872
 C    1.6039784151   -2.5866676052    1.2544129726
 C    0.2078329526   -2.1669320881    1.6543695888
 C   -0.0768611865   -0.6637886002    1.4585692388
 H    0.9506545595    1.8062297390    0.6244838038
 H    0.0663729851    1.8708822345   -0.9122739132
 H   -0.8055174028    1.8597055627    0.6305284967
 H    0.1271465041   -0.0802710915   -1.9894276493
 H   -0.7163257226   -2.7149702669   -0.7845593264
 H   -0.3372397541   -2.3171060940   -2.4339496457
 H    1.2936248990   -3.9177518952   -1.6455613722
 H    2.0692092447   -2.4024653067   -2.0216262956
 H    3.1287446600   -3.1548300929   -0.0168450120
 H    2.3148824092   -2.6373664356    2.0777148268
 H   -0.5510768923   -2.7637464950    1.1463169476
 H    0.0781298087   -2.3807414782    2.7215481007
 H    0.6162185783   -0.1009999790    2.1005792420
 H   -1.0751461829   -0.4408905613    1.8661913427