14

 C   -0.1288091141   -1.1948626587   -0.3470730186
 C   -0.0507175236   -0.0216219698   -0.0974864411
 C    0.0603900074    1.3974460787    0.1796851792
 O    0.0574200902    1.7290093809    1.5955714544
 C    1.2937183297    2.4749303106    1.5027230762
 C    1.4446202027    2.0610463968    0.0450601283
 C    2.5979653858    1.6963823892   -0.7660832794
 O    1.8294792474    2.8919811389   -1.0162565397
 H   -0.2068255124   -2.2326234700   -0.5599083789
 H   -0.7176035319    1.9585282862   -0.3561827243
 H    1.1439329139    3.5517850169    1.6487011563
 H    2.0502554414    2.1065883481    2.2043199499
 H    3.6034024806    1.8628177674   -0.3831288068
 H    2.4985338529    0.9134125847   -1.5152032155