19

 C   -0.0520358905    1.5392042063   -0.0051513144
 C    0.0178040098    0.0432681250    0.0088487316
 C    0.0119638731   -0.9069586909   -1.1330502874
 O    1.1098651606   -1.7971571394   -1.1415546818
 C    1.8273749767   -1.5669487170    0.0791148453
 C    0.8120276761   -0.8803450385    0.9884318292
 C   -0.4728348949   -1.7632267293    1.1405339229
 O   -1.2450497901   -1.4409090510    2.2813005506
 C   -1.0615009069   -1.0541835785   -0.0663222959
 H    0.9355716020    1.9836779859   -0.1780193821
 H   -0.7162247911    1.8928031936   -0.8007506720
 H   -0.4347764166    1.9288096399    0.9445729947
 H   -0.2972774077   -0.6001233364   -2.1255915170
 H    2.1705467091   -2.5350069404    0.4609120200
 H    2.7059842276   -0.9306059015   -0.1077135090
 H    1.2052103748   -0.4557558495    1.9124401659
 H   -0.3196805544   -2.8506491580    1.0613979130
 H   -0.8120469785   -1.8281117252    3.0491415983
 H   -2.1208528892   -0.9698324653   -0.2838822821