18

 C    0.0717559070    1.5738001090    0.0091586591
 C    0.0028172808    0.0795920659    0.1499252894
 O   -1.2798969006   -0.4205200338   -0.0653633905
 C   -1.4360184477   -1.6870477342    0.5967043157
 C   -0.2815481510   -1.8099856789    1.6210606216
 C    0.7103571908   -0.7527891067    1.1687212700
 C    1.1965349320   -0.7931506348   -0.2897032394
 C    1.0470723065   -1.9550439469   -1.1126019943
 N    0.9299395856   -2.8951197481   -1.7784250995
 H    1.0871888902    1.9378053862    0.1849153814
 H   -0.2348078817    1.8767496864   -0.9963621836
 H   -0.6012842921    2.0495910822    0.7288534808
 H   -2.4246951257   -1.6962845946    1.0640546783
 H   -1.3933963794   -2.4892775239   -0.1446529843
 H   -0.6158538435   -1.5677377188    2.6342241030
 H    0.1345208352   -2.8209307742    1.6368051763
 H    1.3915743062   -0.3227368839    1.8936743351
 H    2.1156155073   -0.2466373709   -0.4774014792