18

 C    0.0057878282    1.5233342187   -0.0131883701
 C   -0.0312931275    0.0261845296    0.0024329683
 C   -0.1030673277   -0.8429638772   -1.0538491759
 C    0.1803165952   -1.2765121070   -2.4847951122
 C    0.3137235662   -2.7240154061   -1.8790613442
 N   -0.1088232627   -2.1450314980   -0.5871511792
 C    0.0139778773   -2.1458402761    0.7673170571
 O    0.0508455441   -3.3240401919    1.4421019499
 C    0.0035745507   -0.8237717220    1.1738878443
 H    0.8703803154    1.9130019006    0.5373310062
 H    0.0658194230    1.9034775165   -1.0373748687
 H   -0.8883430954    1.9635043166    0.4459420405
 H   -0.6361871434   -1.1589721037   -3.2032565622
 H    1.1010422155   -0.8923628286   -2.9316364489
 H   -0.3642849518   -3.4897530791   -2.2640755706
 H    1.3373934310   -3.1082568691   -1.8667171115
 H    0.1087781515   -3.1278088597    2.3820946909
 H   -0.0349608694   -0.4868249835    2.2007136363