19

 C    0.4410170245    1.5232725919   -0.1305239721
 C    0.0179341357    0.0618742139    0.0698423239
 C    0.2174510778   -0.8535783806   -1.1702406338
 C    1.4621280893   -1.7099253496   -0.8695643005
 O    2.6195730176   -0.9221050555   -1.0920758295
 C    1.3402531559   -1.9766640106    0.6366948436
 O    2.5504134914   -2.3578364124    1.2386706969
 C    0.8705352463   -0.6112847150    1.1428031091
 O    1.2428199211   -0.1507736738    2.1947520561
 H    1.4641180962    1.5671574916   -0.5127208972
 H   -0.2191458031    2.0183226711   -0.8484854149
 H    0.3995524531    2.0666478980    0.8169816763
 H   -1.0253259760    0.0388441134    0.4087271168
 H   -0.6469362632   -1.5069707284   -1.3246933033
 H    0.3682059016   -0.2811974046   -2.0883769523
 H    1.4900109626   -2.6314117014   -1.4660860049
 H    3.2926528775   -1.2773101521   -0.4939813614
 H    0.5449361393   -2.7195232582    0.8213220922
 H    2.6284331725   -1.8009804277    2.0304137051