19

 N   -0.4188267682   -0.7851897610   -0.9105393365
 C   -0.2524299425    0.2297772320   -0.3826358555
 C   -0.0170795510    1.5283324558    0.2479971167
 N    0.2194311084    1.5010251571    1.7059391788
 C    1.2764122855    2.5315696801    1.5741891044
 C    1.3832867864    2.1918854798    0.0656958611
 C    2.6175640071    1.3851183800   -0.4073161890
 C    3.1427928346    2.6732709544   -1.1002233894
 C    1.7122902519    3.2707610079   -0.9861033086
 H   -0.8139514920    2.2161820956   -0.0741514423
 H   -0.5814399562    1.7474062177    2.2770570252
 H    0.9297482044    3.5619724350    1.7412154416
 H    2.1597936409    2.3482569851    2.1946683158
 H    3.2358813268    0.9284724056    0.3688787455
 H    2.3391540889    0.6131421854   -1.1301977070
 H    3.8628159080    3.2128841204   -0.4795369521
 H    3.5610476729    2.5658554308   -2.1026824032
 H    1.1345679941    3.1256541950   -1.9045600515
 H    1.6128540400    4.3142819934   -0.6744653040