19

 C    0.6191964253    1.3731583608   -0.1365562787
 C    0.1275970359   -0.0330478203    0.1031783257
 N    1.1535882307   -1.0548812857    0.3750457550
 C    0.1756837003   -0.7002934086    1.4365910486
 C    0.7051152463   -0.0293598284    2.7013924791
 C    2.1508072221   -0.4604065078    3.0453227738
 O    3.0771592488   -0.0359552262    2.0721658950
 C    2.5490217082    0.1078715662    4.3451197114
 N    2.8192907225    0.5419359807    5.3806403208
 H    1.4888575363    1.5940680431    0.4866986155
 H    0.9143779009    1.4999223645   -1.1829828671
 H   -0.1670579773    2.1031756197    0.0832798865
 H   -0.6931782668   -0.3453234110   -0.5401987827
 H    0.9250385407   -1.9476296651   -0.0499325727
 H   -0.5992826300   -1.4414635894    1.6160568669
 H    0.6982352798    1.0599816540    2.6055028258
 H    0.0460289271   -0.2799396400    3.5384094958
 H    2.1713205862   -1.5573457673    3.1616118343
 H    2.7443251230   -0.4270606493    1.2402432569