21

 C   -0.1048779443    1.5500458172   -0.0254199135
 C    0.0353827871    0.0466789827    0.0286540108
 O   -1.1121907573   -0.6228026469   -0.4398524310
 C    1.3527525871   -0.6903440352   -0.2475962279
 C    2.6292334072    0.0580942178   -0.1066876411
 C    2.8036231468    0.5139590471    1.1372586565
 C    1.6681743254    0.1071479365    2.0514044058
 C    0.7137833776   -0.6986865616    1.1511298422
 C    0.0707173120   -1.9266853502    1.7542695157
 H    0.8138269505    2.0624310467    0.2621799120
 H   -0.3546817112    1.8682714822   -1.0457601565
 H   -0.9159034451    1.8788157196    0.6328456514
 H   -1.2163639256   -0.4003728270   -1.3716256531
 H    1.2811421410   -1.5549991208   -0.9003486307
 H    3.3100106616    0.2225502102   -0.9349002944
 H    3.6349092993    1.1232985952    1.4739750474
 H    2.0235026408   -0.5097903682    2.8884190266
 H    1.1754570895    0.9762528263    2.5081983301
 H   -0.5472961966   -1.6594083204    2.6201299841
 H   -0.5703218417   -2.4347550517    1.0332553676
 H    0.8365240257   -2.6302154694    2.1005218882