18

 C    0.0069850264    1.3517261604    0.0109233949
 O    0.0243951455   -0.0749688392    0.0380745213
 C    0.6668411392   -0.6104528591    1.0867142430
 N    1.2517292399    0.0344446854    2.0686716844
 C    1.7561634490   -0.9606740046    2.8837250976
 N    2.5104189460   -0.6071182556    4.0070460829
 C    1.4631614375   -2.1988032348    2.3807032092
 N    0.7462739467   -1.9564051500    1.1973669137
 C    0.2073630547   -2.9439464851    0.2903807451
 H    1.0247448985    1.7514848463   -0.0206470605
 H   -0.5385130156    1.6248969968   -0.8931995893
 H   -0.4969075116    1.7505371637    0.8962976033
 H    2.2707729008    0.3259212504    4.3171430312
 H    2.4197091654   -1.2624243528    4.7718013961
 H    1.6839721046   -3.1991978578    2.7101804090
 H   -0.5201462544   -3.5867293906    0.7982731263
 H   -0.2910204047   -2.4280558292   -0.5302945496
 H    1.0038962121   -3.5745371740   -0.1195572287