17

 O    0.0020264426    1.4198933202   -0.1392471060
 C    0.0461304020    0.0204598085    0.0503263516
 C    0.2186769460   -0.3934594570    1.5450114166
 C   -1.3139996210   -0.5460357729    1.6032583219
 O   -2.1144508376   -0.5577984284    2.4892035153
 C   -1.4146804504   -0.5277705334    0.0647351273
 C   -2.5263768660    0.2790837789   -0.6188756742
 C   -3.8180836853   -0.3935332434   -0.5701698759
 C   -4.8728832690   -0.9682145910   -0.5417092827
 H    0.8810347995    1.7772791103    0.0208341000
 H    0.7245156105   -0.4619472137   -0.6626731208
 H    0.7271390927   -1.3543239356    1.6762490396
 H    0.6629452369    0.3467200830    2.2151035869
 H   -1.4222704707   -1.5629594048   -0.2958342428
 H   -2.5935419859    1.2667489591   -0.1522773448
 H   -2.2410474764    0.4561043755   -1.6633186511
 H   -5.8115428879   -1.4626450153   -0.5038843609