20

 C   -0.3661527452    0.0180594822   -0.9062062404
 C    0.0968418397    0.4182601145    0.4959228936
 N    0.9000087073   -0.6487421123    1.0874573805
 C    0.5570264598   -1.1452905686    2.1806283393
 O   -0.5224946715   -0.8209369650    3.0260183573
 C   -0.0045849717   -1.7325661743    4.0258695563
 C   -0.0238525366   -3.1338671104    3.5226968046
 C   -1.0704247888   -3.6941204952    2.5878646896
 C    1.1092905879   -2.1812226494    3.1011482601
 H   -1.0333954155   -0.8485521486   -0.8637305546
 H   -0.9065040246    0.8422165916   -1.3827238252
 H    0.4906132819   -0.2466284440   -1.5323331873
 H    0.7367399284    1.3066191435    0.4218210362
 H   -0.7658511378    0.6883856443    1.1183376433
 H   -0.0006690582   -1.3844327207    5.0501545430
 H    0.3430464782   -3.8371258213    4.2693807476
 H   -1.4638724656   -2.9196178685    1.9265314766
 H   -0.6528018867   -4.4950947579    1.9703002848
 H   -1.9090783799   -4.1078204297    3.1577133833
 H    2.1548601290   -2.3878347199    3.2766472414