19

 O    0.2332351986    1.2289739749   -0.5919846888
 C    0.1218889221   -0.0644280097   -0.0717306358
 C    0.8732743252   -1.0881160634   -0.9532224937
 C   -0.2122446606   -1.6178940687   -1.9060508521
 C   -1.4542751619   -1.8060211751   -1.0041050125
 C   -1.2946526772   -0.7566482641    0.1164355557
 C   -0.8495883680   -1.2310656678    1.5427969891
 C    0.2733457059   -0.1920444649    1.4402162151
 O    0.8088397875    0.5369595904    2.2316505253
 H    0.3888772790    1.8221249334    0.1539294516
 H    1.7127324288   -0.6020518049   -1.4537082222
 H    1.2722873334   -1.9074218363   -0.3437771744
 H   -0.4189932388   -0.8616786011   -2.6714661187
 H    0.0838534189   -2.5351287731   -2.4229274765
 H   -2.3865100737   -1.6749682197   -1.5597955664
 H   -1.4761382539   -2.8166487449   -0.5807840871
 H   -2.1073697119   -0.0315337961    0.1727858987
 H   -1.5377226594   -1.0798882882    2.3765591292
 H   -0.4940886038   -2.2655995107    1.5565415135