19

 C   -0.0242160655    1.6027127002    0.0109626983
 C   -0.0590976426    0.0738419714   -0.0405403200
 C    0.7875837945   -0.5030144587   -1.1922963363
 C    0.7583479464   -1.9955427267   -1.2721627264
 N    1.7218677528   -2.7697533900   -0.7660551210
 N    1.3153062617   -3.9990630911   -1.0328116098
 N    0.1493765204   -4.1150537398   -1.6763848087
 C   -0.2223343827   -2.8466854699   -1.8403691705
 N   -1.3691485861   -2.4904987200   -2.5467819413
 H    0.9990008430    1.9687459916    0.1499019270
 H   -0.4072937597    2.0408977341   -0.9175796801
 H   -0.6306681701    1.9877038548    0.8365212702
 H    0.3044954632   -0.3427992686    0.9060090856
 H   -1.0984430130   -0.2679259463   -0.1400855961
 H    0.4343340988   -0.0851414829   -2.1444121108
 H    1.8272767668   -0.1810070398   -1.0720129370
 H    1.8655356864   -4.8054731586   -0.7922076966
 H   -1.9744970529   -3.2857773323   -2.7048646409
 H   -1.8862951513   -1.7340148273   -2.1195631255