15

 C    0.0421716775    1.4529490143    0.0119712393
 N   -0.0050958822    0.0050028362   -0.0007520882
 C   -0.0076350051   -0.7991889322   -1.1233879194
 C   -0.0023164700   -2.0842034745   -0.6566365095
 N    0.0075677880   -2.0966165529    0.7180375034
 C    0.0094626847   -0.8311549538    1.0862735193
 C    0.0242227930   -0.3437425308    2.4965377719
 H    1.0595972151    1.8241830802    0.1803942312
 H   -0.3123894270    1.8343944268   -0.9473707924
 H   -0.6057164949    1.8476341497    0.7985968618
 H   -0.0174302613   -0.3784158233   -2.1156316821
 H   -0.0108535801   -2.9995655698   -1.2287293283
 H    0.9121571867    0.2602051688    2.7189855108
 H   -0.8548342176    0.2676276070    2.7346478095
 H    0.0254825931   -1.2121298757    3.1562249126