22

 C   -0.0018555592    1.5476986361   -0.0054718410
 C    0.0047597389    0.0132445126    0.0045951503
 C   -1.4427421653   -0.5127757167   -0.0007285840
 C    0.7950722282   -0.5711149053   -1.2032831509
 C    1.3539816847   -1.9340596148   -0.7340466764
 C    1.5444097940   -1.7741880716    0.7679629104
 C    2.2456116673   -0.5252218029    1.2445429419
 C    0.7370281797   -0.5756502367    1.2146058899
 H    1.0154759802    1.9481252438    0.0517460950
 H   -0.4649842568    1.9347614073   -0.9204406296
 H   -0.5664105116    1.9476409153    0.8444465046
 H   -1.9930866434   -0.1364989741   -0.8702514658
 H   -1.4710697479   -1.6067824707   -0.0306416268
 H   -1.9808132593   -0.1918007426    0.8983743611
 H    0.1679535939   -0.6604738787   -2.0955156067
 H    1.6164216446    0.1026914616   -1.4685261770
 H    0.6304882665   -2.7353712793   -0.9253998102
 H    2.2751563629   -2.2058423320   -1.2616099831
 H    1.6135753675   -2.6663560945    1.3809744199
 H    2.7190691649   -0.5645543210    2.2196325163
 H    2.7772205039    0.0929818108    0.5275937917
 H    0.2115465362   -0.5775049464    2.1648608804