17

 C   -0.3671686663    1.0302592554   -0.1731769289
 O    0.5886233272    0.0169121940    0.0975326342
 C    1.0099489606   -0.6428529969   -1.0347645586
 C    1.6044970602   -1.9948225241   -0.9459008543
 N    1.0131457701   -2.7566819516    0.1532134794
 C   -0.3355159866   -2.6814589252   -0.4969805902
 C    0.2079945570   -1.7987158025   -1.6377721377
 C   -0.2017458440   -1.8432514210   -2.9958567974
 N   -0.5309394169   -1.8806031530   -4.1067889408
 H    0.0468339198    1.8049360929   -0.8344476668
 H   -1.2705641362    0.6169284208   -0.6417247371
 H   -0.6303892732    1.4807647056    0.7854190398
 H    1.4549183280   -0.0110430499   -1.8070521189
 H    2.5647437088   -2.2480905647   -1.3806149501
 H    1.3512677102   -3.7123711212    0.1390529096
 H   -0.6842301731   -3.6481404000   -0.8660330828
 H   -1.1021243457   -2.2270893488    0.1363153108