17

 C    0.0781456706    1.5192912863    0.1315050061
 C   -0.0247283070    0.0065184053   -0.0801897606
 C    0.6791305959   -0.4828577219   -1.3411967131
 O    0.0899552866    0.1742235892   -2.4370096524
 C    2.2309032228   -0.5070222725   -1.2566743959
 O    2.2289226813   -1.9365813858   -1.0791554799
 C    0.8325320638   -2.0246372307   -1.4238197016
 H    1.1203431965    1.8393485490    0.2405709920
 H   -0.3507029493    2.0573620144   -0.7168901873
 H   -0.4553904711    1.8214619221    1.0374285424
 H    0.4006077048   -0.5300707985    0.7756857113
 H   -1.0791006183   -0.2885215443   -0.1488427778
 H    0.5389983121   -0.1063863235   -3.2413037849
 H    2.7217047269   -0.2049910835   -2.1948660532
 H    2.7088989240    0.0149126036   -0.4202134817
 H    0.2638005999   -2.6323451953   -0.7106003828
 H    0.6784937104   -2.4209658741   -2.4391393306