21

 C   -0.0904645271    1.5263138233    0.1240707684
 C    0.0877252418    0.0301106670    0.0058951284
 C    0.7460605805   -0.6680287305   -1.1759951696
 C    1.6755680515    0.1187500116   -2.0962577960
 C    2.8308617352    0.5392484805   -1.2000132863
 C    3.9466985924    1.3949715424   -1.7110659569
 C    2.6667598604    0.0654003603    0.0402488223
 C    1.4002669462   -0.7122459584    0.1908357245
 O    1.4211229830   -1.9007079487    0.9296059348
 H    0.8087576093    2.0674105992   -0.1805373804
 H   -0.9215898083    1.8722119491   -0.5010733644
 H   -0.3140069392    1.8139081029    1.1576493577
 H   -0.7531019239   -0.5470571604    0.3872033630
 H    0.2518915581   -1.5527536291   -1.5591877681
 H    2.0287609613   -0.4942458038   -2.9364439337
 H    1.1825791786    0.9922541321   -2.5454016436
 H    3.5799799207    2.3694218930   -2.0584909024
 H    4.7023445165    1.5746471344   -0.9414827126
 H    4.4403895497    0.9259119881   -2.5721181685
 H    3.3516345325    0.2236808956    0.8670247095
 H    1.2242019108   -1.6840522785    1.8468602737