23

 C    0.0894744903    1.3712082483   -0.0900562216
 O    0.0513306435   -0.0404723226   -0.0693867286
 C   -1.2372063673   -0.5730899593    0.0467500433
 C   -1.9024887408   -0.4794566535    1.4569670825
 C   -1.9798770960   -2.0376120134    1.5138106140
 C   -1.4158841983   -2.1242240684    0.0746829248
 C   -2.4848659488   -1.9971285468   -1.0472466338
 C   -2.1757131088   -0.4724670197   -1.1963535192
 C   -3.3428264165    0.5041372542   -1.2415548046
 H    1.1412641000    1.6653220913   -0.1266225102
 H   -0.4208687817    1.7840247472   -0.9725640974
 H   -0.3678033292    1.8090885430    0.8098185269
 H   -1.2246182746   -0.0508341204    2.1986519994
 H   -2.8561698954    0.0508514258    1.5136566115
 H   -1.3146143347   -2.4660705292    2.2672607756
 H   -2.9763649092   -2.4659805003    1.6538709452
 H   -0.5827888397   -2.8012128460   -0.1132971323
 H   -2.2966878062   -2.5919785362   -1.9436571097
 H   -3.5030303529   -2.2109846822   -0.7057986124
 H   -1.5284596107   -0.3176108292   -2.0669584841
 H   -4.0206623050    0.3642879867   -0.3925485329
 H   -3.0053938765    1.5463111301   -1.2294146077
 H   -3.9327058316    0.3584112608   -2.1536842590