19

 C   -0.0000664660    1.5680833557   -0.0260721354
 C    0.0472021894    0.0487862807    0.0272539109
 O    0.6981657054   -0.4560626793   -1.1493600998
 C    1.6062444042   -1.4964296762   -0.8288189862
 C    3.0757860508   -1.0220466230   -0.5839944224
 C    2.8175101973   -1.0821461085    0.9340086760
 O    2.1148083565    0.0875878264    1.4185022290
 C    0.8191095554   -0.5330748968    1.2099907678
 C    1.4741116825   -1.8203427491    0.6897022641
 H    1.0106944645    1.9745724853    0.0486565714
 H   -0.4500533601    1.8969927476   -0.9661858069
 H   -0.6005842182    1.9631709419    0.8000144063
 H   -0.9777024369   -0.3575217141    0.0618071385
 H    1.4820803840   -2.3101561909   -1.5471954119
 H    3.7980250538   -1.7834505762   -0.8969176484
 H    3.3519316066   -0.0516493429   -1.0010117590
 H    3.6129328537   -1.3916122449    1.6145144998
 H    0.2362888272   -0.5607169653    2.1361643551
 H    1.1882974201   -2.8064037304    1.0455769010