15

 O    0.0982878334   -0.0674899894    0.2990360417
 C    0.0379621440    1.1270656151    0.1194007904
 C    1.2211772274    1.9492239070   -0.0866337661
 C    2.1822702003    2.6517510973   -0.2659587109
 C   -1.2576785800    1.9212340299    0.1471570300
 O   -2.4546968810    1.1237098042    0.1355277711
 C   -2.8941472862    1.7349142763    1.3553657565
 C   -1.9617918830    1.4196898353    2.4764274632
 C   -1.6242704075    2.5396323448    1.5084779911
 H    3.0437295951    3.2553830377   -0.4210070202
 H   -1.2678297551    2.6566189934   -0.6667533677
 H   -3.9419131907    1.9962200201    1.4374859558
 H   -2.2729623942    1.7681806375    3.4562860935
 H   -1.4093050959    0.4852203214    2.4632927980
 H   -1.4563090667    3.5659872394    1.8008946236