14

 O    0.1051345828    1.4101842284   -0.1898565991
 C    0.0438060016    0.0592661552   -0.0469271744
 C   -0.2383808187   -0.8338536967   -1.2278822672
 C   -1.1145338468   -0.9846055060   -0.0146278344
 O   -0.3652327057   -1.7577608665    0.9801682990
 C    0.5957598805   -0.7553648543    1.0781810962
 N    1.5168913349   -0.5756231524    1.9062887634
 C   -2.5170469312   -0.8901300215    0.0885332716
 C   -3.7135156858   -0.7926357842    0.1739411871
 H    0.0651184620    1.8114919028    0.6871040427
 H   -0.7008212596   -0.2974014071   -2.0510277684
 H    0.4330603558   -1.6413902145   -1.5050810625
 H    1.5579628168   -1.3280907310    2.5954800079
 H   -4.7700772168   -0.7134239122    0.2484792182