22

 C   -0.0389454791    1.5465095256   -0.1387111556
 C    0.0326468401    0.0371449882    0.0343925003
 O    0.6374523731   -0.4721796658   -1.1769390093
 C    1.0400911626   -1.7637721165   -1.1475859014
 N    1.1114514117   -2.5550773373   -0.1653152509
 C    0.7552155551   -2.0361386795    1.1511822464
 C    0.7840119881   -0.4944832736    1.2768890041
 C    2.2404607174    0.0019491744    1.3187615105
 C    0.0510787117   -0.0846591773    2.5630390828
 H    0.9584221790    1.9872591372   -0.2101409871
 H   -0.5799531143    1.7848558801   -1.0583627005
 H   -0.5685167221    2.0077343130    0.6985342455
 H   -0.9909200302   -0.3644428324    0.0703739078
 H    1.3343872591   -2.0839707897   -2.1460155647
 H   -0.2429876156   -2.4144175607    1.4126886440
 H    1.4436818596   -2.4760348207    1.8830099824
 H    2.7900053752   -0.2702037116    0.4139857702
 H    2.2936791818    1.0886665545    1.4328831327
 H    2.7624000168   -0.4431422028    2.1721040164
 H    0.4814349676   -0.6053390486    3.4255460900
 H    0.1311025472    0.9894742734    2.7564133668
 H   -1.0129545150   -0.3433189100    2.5182548095