21

 C    0.1077110601    1.5994801966    0.0282536891
 C   -0.0084971673    0.0729192237   -0.0271318961
 C   -1.4543906222   -0.4344782739   -0.0350365386
 C   -2.2794161183   -0.0246171543    1.1796408846
 O   -3.5459615848   -0.6585908147    1.0568218532
 C    0.8154635730   -0.5086244707   -1.2030134318
 O    2.0877416167   -0.7621477261   -0.6283250412
 C    1.7885167855   -1.2144542930    0.6666522911
 O    0.6844073893   -0.4630225926    1.1246018358
 H    1.1537232516    1.8932224525   -0.0968787597
 H   -0.4859765049    2.0699639501   -0.7627481498
 H   -0.2356821879    1.9813025263    0.9928318884
 H   -1.9583597823   -0.0837722905   -0.9445310566
 H   -1.4448341849   -1.5293277614   -0.0784676678
 H   -1.7561592296   -0.3397186344    2.0936012314
 H   -2.3913180305    1.0696959664    1.2192113290
 H   -4.0661963470   -0.4386223555    1.8348874450
 H    0.3626181805   -1.4390256719   -1.5793016642
 H    0.9439504019    0.1898116421   -2.0321252903
 H    1.5374573453   -2.2914179303    0.6564063580
 H    2.6543467257   -1.0384899284    1.3129091304