21

 C    0.1985721845    1.2908359064    0.1737731245
 O   -0.3037211250    0.0420876898   -0.2447819371
 C    0.4708997512   -0.5575033451   -1.2476406530
 C    1.7315908752   -1.3755637530   -0.8571076312
 C    0.7972115342   -2.4786813695   -0.2527820832
 C    1.4361910702   -3.8476587796   -0.4876698131
 C    1.9907576639   -3.6384710345   -1.9251369010
 C    1.5389024640   -2.1980741822   -2.1721520774
 C    0.1039620835   -2.0099193279   -1.5786707152
 H    1.1951881804    1.2033562933    0.6320210883
 H    0.2680507423    2.0022111583   -0.6644424898
 H   -0.4964709563    1.6900400009    0.9164684191
 H    0.5914943584    0.1278294243   -2.1011165585
 H    2.6791578862   -1.0183492090   -0.4481117581
 H    0.2977745969   -2.2822228680    0.6938248178
 H    2.2231353935   -4.0656860111    0.2416571693
 H    0.7039528076   -4.6595287357   -0.4304157268
 H    3.0792406008   -3.7419645834   -1.9794366366
 H    1.5594333944   -4.3342097795   -2.6520962593
 H    1.7810498388   -1.7324657074   -3.1300374529
 H   -0.8342435448   -2.3784208372   -1.9979882558