14

 N    0.0137486934    0.9803665488   -0.0347817955
 H    0.2865419886   -0.0105286055    0.0384059231
 H    0.8709783908    1.5005189777   -0.2560926907
 H   -0.6136909970    1.0667465882   -0.8372250041
 C   -0.6489955913    1.5040138498    1.1605907452
 C   -2.0179534742    1.7973862517    1.2775015699
 C   -2.3004759436    2.2019541770    2.6069351879
 C   -1.0764755237    2.1284452920    3.2837721148
 C   -0.0544396706    1.6945537385    2.4252544180
 N    1.1014454223    1.6457067797    3.1368998183
 N    0.8960138348    2.0027209853    4.3345761171
 O   -0.5322363441    2.3386063997    4.4884853541
 H   -2.7470785915    1.7326816953    0.4773687290
 H   -3.2612468040    2.5099745417    2.9867002528