20

 C    0.0148454728    1.5266231245   -0.0104104853
 C    1.3205088995    0.7638902661   -0.0144176997
 C    0.0072054708    0.0230413426    0.0194647463
 C   -0.3936033890   -0.7189605606    1.2844612060
 C    0.0700307966   -2.1822274988    1.1945601447
 C   -0.3958391443   -2.7990483592   -0.1272699011
 O    0.0576202227   -2.0548230773   -1.2456761074
 C   -0.4282960346   -0.7221485398   -1.2277952546
 H   -0.2677837644    2.0560499677    0.8939368124
 H   -0.2876133985    2.0251396542   -0.9263385737
 H    1.8993695824    0.7439744667   -0.9319036552
 H    1.9224492443    0.7808482961    0.8884864147
 H    0.0224425594   -0.2275178446    2.1709336995
 H   -1.4878354463   -0.6912150048    1.3915465978
 H    1.1645360896   -2.2267886870    1.2384849714
 H   -0.3187669057   -2.7696851000    2.0343248242
 H   -0.0016086441   -3.8115053083   -0.2545988682
 H   -1.4991216190   -2.8619562547   -0.1396527155
 H   -1.5319737435   -0.7270803125   -1.2902474077
 H   -0.0427948385   -0.2407673404   -2.1320329988