22

 C   -0.1347029663    1.3502759614    0.0052026163
 O   -0.0440987756   -0.0674700084    0.0516279758
 C    0.5618788049   -0.6459061038   -1.0056347208
 N    0.7028684587   -1.8937116723   -1.0625457535
 C    1.3669250725   -2.4445289778   -2.2283580699
 C    2.6062836650   -3.2481560524   -1.8186469336
 C    3.2522861229   -3.9951546810   -2.9912478762
 C    4.5205616844   -4.7409182502   -2.5746743948
 O    2.3236953467   -4.8741450339   -3.6270341630
 H    0.8577759523    1.8175037410   -0.0133367207
 H   -0.7087375268    1.6896966519   -0.8658963153
 H   -0.6543836145    1.6553054916    0.9142705975
 H    0.9002170461    0.0616374464   -1.7803044418
 H    0.6747596118   -3.1222933890   -2.7400630382
 H    1.6549778766   -1.6672634933   -2.9595299555
 H    3.3444811309   -2.5783282807   -1.3601062818
 H    2.3180804531   -3.9678284467   -1.0401348711
 H    3.5093656412   -3.2713466849   -3.7758991913
 H    5.2794113227   -4.0515370452   -2.1904393791
 H    4.3004468769   -5.4678291705   -1.7826865688
 H    4.9399074702   -5.2813347389   -3.4276414127
 H    2.0745232166   -5.5462051833   -2.9821579413