14

 O    0.0872776919   -0.1231384246   -0.2907530555
 C   -0.0027630037    1.0723412944   -0.1064242036
 C    1.1552599447    1.9023873075    0.1576229647
 C    2.1028103029    2.6118784433    0.3742543389
 C   -1.3245806769    1.8076226029   -0.0959477665
 C   -2.5866003060    0.9647054411   -0.4032160259
 N   -3.0209942906    1.2209096137    0.9764244841
 C   -1.9450389439    1.9734585897    1.3496438812
 O   -1.6208897734    2.5260647077    2.3609637375
 H    2.9476287717    3.2261553006    0.5724663757
 H   -1.2465188221    2.7661730428   -0.6122254969
 H   -3.2475739422    1.3887125264   -1.1641546055
 H   -2.3680780755   -0.0828236462   -0.6180838022
 H   -3.8257650367    0.9155313406    1.5029247540