21

 C   -0.3030330415    1.5146594735   -0.0288671539
 C    0.1507189231    0.0455309322    0.0282415481
 C    0.8606690483   -0.4065207411   -1.2076806127
 C    2.0995725407   -0.8972464849   -1.3562497489
 C    2.2472701902   -1.3664447535   -2.7939168450
 C    1.2710868471   -2.5742597277   -2.9354688347
 O   -0.0267731457   -1.9869730498   -2.7786137266
 C    0.2062276264   -0.5599293665   -2.5818744147
 C    1.3880978440   -0.2983764829   -3.5228502924
 H    0.5545752463    2.1848542176   -0.1441743854
 H   -0.9799287512    1.6917123434   -0.8710474145
 H   -0.8330093405    1.7942028037    0.8868193496
 H    0.8004741150   -0.1052301227    0.8981245649
 H   -0.7304506731   -0.5925201714    0.1846405419
 H    2.8302359607   -1.0684128519   -0.5741840547
 H    3.2566910001   -1.5509722453   -3.1602179484
 H    1.3435426957   -3.0421446940   -3.9258809402
 H    1.4359348471   -3.3393956759   -2.1682298316
 H   -0.7376338710   -0.0460151516   -2.7591165820
 H    1.8035328218    0.7067089326   -3.4391750348
 H    1.1614609365   -0.5372070236   -4.5661774740