17

 C    0.2699671280    1.4979253641    0.0700971680
 O    1.1381883129    0.4150719357   -0.2602947576
 C   -0.2289745166    0.1156110450    0.0513365921
 C   -0.4610279653   -0.6602590425    1.3046836491
 C   -1.7685006258   -0.8600920192    2.1105727479
 N   -0.7594980205   -1.6809769334    2.9340492101
 C   -0.2573327094   -2.1742249422    1.5653534513
 C    0.1905997843   -0.4913115641    2.6969011784
 H    0.4706576442    1.9828734820    1.0243449572
 H    0.0228956136    2.1700988830   -0.7504550188
 H   -0.8206571166   -0.1984173841   -0.8110301297
 H   -2.1761799262   -0.0005850881    2.6502672790
 H   -2.5631233957   -1.4658138647    1.6659263856
 H   -0.9387898529   -2.8781548517    1.0793875367
 H    0.7664094867   -2.5562608993    1.5855341497
 H    1.2474628022   -0.7467934103    2.8016343589
 H   -0.0697390029    0.3929973899    3.2855355021