14

 O    0.1328778234    1.1310190153    0.8019687272
 C   -0.0266419843    0.1234252053   -0.1803685694
 C   -1.4222651276   -0.4372412365   -0.0867760839
 C   -2.1871572123   -0.3552435299    1.0759699309
 N   -3.4120845927   -0.8793713477    1.1704733045
 C   -3.8715680901   -1.4936403701    0.0805662357
 N   -3.2448525620   -1.6277823635   -1.0899831193
 C   -2.0260669791   -1.0914460252   -1.1580653226
 H    1.0608610921    1.3800495412    0.8315766102
 H    0.1402745113    0.5167040389   -1.1960832360
 H    0.7017077239   -0.6911127983   -0.0322177690
 H   -1.7981015324    0.1577229708    1.9497581173
 H   -4.8657986495   -1.9285229517    0.1501464034
 H   -1.5087631906   -1.1852868385   -2.1127054589