14

 N   -0.1179519635    1.2309768787    0.4816065270
 C   -0.0554250683    0.0316895781    0.1237324863
 C   -1.0748826012   -0.9417995948   -0.4548134399
 C    0.0600590561   -2.0077869951   -0.4823533984
 N    0.9578198304   -0.9833927770    0.0793385867
 C    2.2748616112   -1.1033423890    0.3969216408
 O    2.9251085538   -2.1152457137    0.2561380766
 C    2.8719541938    0.1298787283    0.9430366735
 N    3.3666547036    1.0814328365    1.3735807059
 H    0.7613074264    1.6065426454    0.8356234297
 H   -1.9069185569   -1.1629746397    0.2149623094
 H   -1.4639094678   -0.6487935589   -1.4308292561
 H   -0.0700343726   -2.8654660151    0.1805831161
 H    0.3743758751   -2.3496744739   -1.4704524076