14

 O    0.0315391089   -0.0020218822   -0.0859656704
 C   -0.0218632485    1.1868258901    0.0130260102
 N   -1.1443026647    1.9955704023    0.1161231066
 C   -0.8063712668    3.3762062324    0.0552959982
 C    0.6889451300    3.3460017793    0.0464520204
 O    1.0923283092    2.0030035351    0.0592382683
 C   -0.0386302486    3.8702871967   -1.1906422062
 C   -0.0703739516    3.1403324884   -2.4174208103
 C   -0.1116543280    2.5056557599   -3.4379844130
 H   -2.0103716289    1.6282617615   -0.2442214942
 H   -1.3989682583    4.0710169430    0.6382997027
 H    1.3319946946    3.9946266995    0.6264011329
 H   -0.0021810803    4.9535368094   -1.2751425644
 H   -0.1321501868    1.9460274146   -4.3401391207