12

 O    0.1132459644    1.3295928627    0.0615221087
 C    0.0761738108   -0.0001854820    0.0321917213
 N    0.0872226190   -0.6101810327   -1.1458331209
 C    0.0489377568   -1.9431841118   -1.1315180408
 N    0.0007169878   -2.7336214779   -0.0601847978
 C   -0.0098722376   -2.1079710181    1.1171363901
 C    0.0265366140   -0.7183597722    1.2440257785
 C    0.0142478978   -0.0740445725    2.5131416933
 N    0.0034297305    0.4293612885    3.5553171208
 H    0.1440466159    1.6327902250   -0.8585638632
 H    0.0585359939   -2.4334646703   -2.1014477125
 H   -0.0489584934   -2.7269392188    2.0093172524