16

 O    0.1789797024    1.3928529484   -0.0156758464
 C   -0.0130688840    0.0132180168   -0.0341805757
 C   -0.4613252024   -0.6951083842    1.2069896427
 O   -1.0349952886    0.1665037495    2.1721765862
 C   -2.3909488075    0.4358069319    1.8487753860
 C   -2.7104625686    1.4453512351    0.7767037282
 C   -2.6606124696   -0.0384237667    0.4476282126
 C   -1.3747061649   -0.6899785743   -0.0080144655
 H    0.1542267204    1.6556174275    0.9144285682
 H    0.7298301294   -0.4947934542   -0.6458542415
 H    0.0493191077   -1.5525456622    1.6347457840
 H   -3.0612001467    0.2897158308    2.6896341793
 H   -3.6989736814    1.8907322401    0.8327642631
 H   -1.9386651580    2.0896347458    0.3836717019
 H   -3.5783808941   -0.5523010711    0.1881208972
 H   -1.4656726539   -1.5669175433   -0.6381526704