20

 C   -0.0965111810    1.5471849887    0.0634023213
 C   -0.0011015733    0.0221869775   -0.0254916121
 C    0.6364618266   -0.4555512187   -1.3341259034
 C    0.7338843199   -1.9655239144   -1.4244840476
 O   -0.5586275453   -2.5562655944   -1.4086853271
 C   -0.5276307217   -3.6990111573   -2.2574488994
 C    0.8974910323   -3.6869955849   -2.8506788480
 O    1.3261872294   -2.3521011828   -2.6430478278
 H    0.8940303298    2.0124126068    0.0053624254
 H   -0.6997467287    1.9540337355   -0.7557330932
 H   -0.5578179778    1.8622626396    1.0044922657
 H    0.5817116932   -0.3590479564    0.8236260815
 H   -0.9988384519   -0.4210524674    0.0637690282
 H    0.0553133463   -0.1083685629   -2.1960419729
 H    1.6492704836   -0.0475375480   -1.4370696990
 H    1.3240009905   -2.3753141264   -0.5802395950
 H   -0.7297046697   -4.6128595325   -1.6854808677
 H   -1.3003587023   -3.5900415295   -3.0271619851
 H    1.5526305914   -4.3957273325   -2.3216622013
 H    0.9331103387   -3.9033546901   -3.9204715926