18

 C   -0.3227938971    1.4057357303   -0.0200320471
 C    0.0854105958   -0.0582272333    0.0215935266
 O    0.8550346284   -0.3515177249   -1.1391290397
 C    0.6399852193   -1.6325670625   -1.6866767843
 C    1.0288736706   -2.7703170872   -0.7903123709
 C    1.4048115530   -2.7192842367    0.4898642777
 N    1.4696558979   -1.6254269201    1.3567057601
 C    0.9033906856   -0.3687393710    1.2837453394
 O    1.0520504845    0.4241057236    2.1919466537
 H    0.5645920241    2.0400972300   -0.0791137044
 H   -0.9486100629    1.5876845250   -0.8969792407
 H   -0.8719733175    1.6752339646    0.8837296420
 H   -0.8118360060   -0.6985264729    0.0421862888
 H   -0.4120549775   -1.7454856443   -2.0088897833
 H    1.2473117695   -1.6637324939   -2.6001250938
 H    1.0191553561   -3.7525172890   -1.2537333221
 H    1.7019794504   -3.6389509563    0.9835358809
 H    1.9556575459   -1.7686155015    2.2304619470