17

 N   -0.1898807605   -1.1522258342   -0.1923861352
 C   -0.0974551562   -0.0166984519   -0.0034800828
 C    0.0355439501    1.4180042654    0.2658848475
 N    1.2698414503    1.9440757261   -0.3070937490
 C    1.4227708261    3.3635411459   -0.1522530583
 C    1.9682790110    4.1080834664    1.1313431344
 C    3.3864188445    3.5626584709    0.8451849830
 C    2.7655869328    4.0621819419   -0.4841079462
 O    2.2634334533    5.2495113093    0.2412866886
 H   -0.8133528055    1.9369384097   -0.1958701369
 H   -0.0624071547    1.5672431548    1.3555881784
 H    2.0687560281    1.4258539662    0.0385729637
 H    0.5644908085    3.8850204034   -0.5840296000
 H    1.4900021255    4.3305994323    2.0857344988
 H    4.1986915619    4.1809709527    1.2281023622
 H    3.5864567204    2.4954171538    0.9762652701
 H    3.2359455445    4.2228151973   -1.4542762683