21

 C   -0.0154604942    1.5504702201    0.0370578068
 C    0.0406908962    0.0374405495    0.0592004525
 C   -1.1594140622   -0.6556560167   -0.5633476753
 C    1.3355360852   -0.7040913404   -0.1247987059
 O    2.4600261649    0.0169084328    0.3978591234
 C    1.9020561619   -0.0863122403    1.7210182183
 C    2.7554825693   -0.4725067569    2.8819088806
 C    2.1685654373    0.9314531205    2.7779537107
 C    0.6433004463   -0.7489796350    1.2240738544
 H    0.9277417519    1.9882474674    0.3664821135
 H   -0.2144044531    1.9076576225   -0.9801018272
 H   -0.8178884153    1.9247979012    0.6828234515
 H   -1.2983556447   -0.3353580195   -1.6019435490
 H   -1.0458598885   -1.7450429171   -0.5599525110
 H   -2.0772597877   -0.4162227144   -0.0144631321
 H    1.5334899573   -1.4619794330   -0.8750832609
 H    2.3451202904   -1.1544106045    3.6199701193
 H    3.8181056718   -0.5845442695    2.6964754514
 H    2.8535829045    1.7341910068    2.5266479815
 H    1.3632319405    1.2140252007    3.4476533742
 H    0.1236395481   -1.5578299343    1.7219982630