14

 N   -0.0136637713    1.3836619875   -0.2100174470
 C   -0.0234857026    0.0155469617   -0.1133227983
 C   -1.1816662286   -0.7050607682   -0.0060667110
 N   -2.4292724015   -0.0415182081    0.0800371921
 C   -1.1102111919   -2.1240363815    0.1154128883
 N   -2.1225016965   -2.8844010282    0.3154377506
 N    0.2153817178   -2.6750649689    0.0013372855
 N    1.2532835200   -2.0794509259   -0.1441367437
 O    1.1839569863   -0.5443388653   -0.1858794810
 H    0.8686849133    1.8182509078    0.0185398001
 H   -0.8248590788    1.8174096893    0.2130296342
 H   -3.1376856518   -0.7268122966    0.3282673376
 H   -2.6985948590    0.3800528210   -0.8048546944
 H   -1.8340174552   -3.8595571547    0.3765378171