18

 C   -0.9750591091    0.6876755187    0.4154988672
 C    0.3913922477    0.3090971407   -0.1094929392
 O    1.4186726359    0.6675925315    0.4188586811
 C    0.4365966110   -0.5372016740   -1.3952883436
 C    1.7911638362   -1.2244523715   -1.5863604805
 C    1.6873184674   -2.1815194217   -2.7642559077
 O    0.5809778127   -3.0905045733   -2.6074858025
 C   -0.5067706168   -2.5995564074   -1.9778048200
 N   -0.6862462101   -1.4718406889   -1.4308066982
 H   -1.5936383651    1.1110992738   -0.3825474707
 H   -1.4966404069   -0.2120722374    0.7541487337
 H   -0.8668129234    1.3988763792    1.2350217819
 H    0.2816275652    0.1962283131   -2.2057969497
 H    2.5866065238   -0.4952002187   -1.7542853081
 H    2.0495436472   -1.7767479410   -0.6771850681
 H    1.5460408533   -1.6362352641   -3.7062092733
 H    2.5731535292   -2.8126395668   -2.8637268899
 H   -1.3016527181   -3.3435170122   -1.9810903724