11

 N   -0.2210500539    1.3031578446    0.0117374280
 C   -0.0275428704    0.0661696106    0.0032627022
 O   -1.1530317756   -0.7478373867    0.0097033205
 C   -0.9674036201   -2.0774652597    0.0002514762
 O    0.0751619803   -2.6705733197   -0.0134288310
 C   -2.3219838454   -2.8063399315    0.0093561307
 O   -3.3860388912   -2.2563616134    0.0229117015
 C   -2.1888265443   -4.2705418268   -0.0003341128
 N   -2.1462147971   -5.4255893685   -0.0073659364
 H    0.6685545815    1.8003976812    0.0050382374
 H    0.9031344462   -0.5000783701   -0.0096843663