25

 C   -0.4506830890    1.3330404952   -0.5009353841
 O   -0.7203953203   -0.0437670379   -0.6132739890
 C   -0.8791579750   -0.6735699528    0.6384366428
 C   -1.0739132576   -2.1879371813    0.4694829347
 O   -0.7946478945   -2.8062720166    1.7265664786
 C   -2.4297433273   -2.6773853033   -0.1219324379
 C   -2.6624539717   -2.0898129019   -1.5260479611
 C   -2.3602237626   -4.2135125360   -0.2346464668
 C   -3.6099517488   -2.2946689511    0.7921360665
 H   -0.3305437186    1.7274441145   -1.5128274917
 H   -1.2725639707    1.8728214538   -0.0039088167
 H    0.4738840239    1.5208493149    0.0675886892
 H    0.0226556420   -0.5341761827    1.2554290763
 H   -1.7226573186   -0.2252091936    1.1935198055
 H   -0.2760322090   -2.5373392313   -0.1965119458
 H   -1.4540594725   -2.5029020587    2.3596343055
 H   -1.8207461185   -2.3107236907   -2.1905452498
 H   -3.5631442962   -2.5309456726   -1.9675553163
 H   -2.7825053897   -1.0055942897   -1.5048226450
 H   -2.1534782318   -4.6713782595    0.7351849174
 H   -3.3046754540   -4.6145161612   -0.6175974398
 H   -1.5652705573   -4.5183576888   -0.9243755295
 H   -3.7260375040   -1.2102922963    0.8882312868
 H   -4.5460121847   -2.6849659351    0.3797915321
 H   -3.5084644137   -2.7206508273    1.7974216082