11

 N   -0.1548660207    1.2844658072    0.1224906465
 C   -0.0304156527    0.0474974892   -0.0405376034
 O   -1.1694293423   -0.7245717195    0.0509255667
 C   -1.0365365940   -2.0545800876    0.0474123154
 N    0.0992197736   -2.6988102817    0.1677522231
 O   -0.3095787322   -4.0404619879    0.1057727617
 C   -1.6344037678   -4.0195121306   -0.0318541313
 N   -2.1556155324   -2.8355298984   -0.0765017267
 H    0.7456004900    1.7455527854    0.0051981190
 H    0.8658375742   -0.5328607897   -0.2654993389
 H   -2.1392048857   -4.9724402364   -0.0930421721