18

 N    0.8750249569    0.0514984660    0.7525388150
 C    0.1365210380   -0.0066414197   -0.3942063892
 O    0.4590609391    0.5654400119   -1.4193554427
 C   -1.1951671154   -0.7655623457   -0.2676984425
 C   -1.8942988531   -0.9442222904   -1.6397856837
 C   -1.3751810295   -2.4065423821   -1.7082997267
 C   -1.1412535004   -2.3330085227   -0.1736247245
 C   -0.0318891274   -3.1188744753    0.4611658227
 O    0.6585914090   -2.7569861959    1.3860278329
 H    1.7951347118    0.4544053845    0.6522584573
 H    0.7782072814   -0.7028473745    1.4203030466
 H   -1.7761986178   -0.2875482526    0.5251781682
 H   -2.9824394662   -0.8987609342   -1.5531189878
 H   -1.5483079275   -0.2614812108   -2.4141194918
 H   -2.0523930722   -3.1792774804   -2.0768296640
 H   -0.4307810637   -2.4680550468   -2.2567637662
 H   -2.0526395058   -2.6785345384    0.3371894233
 H    0.1021672828   -4.1371928129    0.0301536829