19

 C   -0.0130817160    1.5308936491   -0.0307828672
 C    1.4301301751    2.0551855567   -0.0023563761
 N    2.1558444454    1.6412859574    1.1971333403
 C    1.9318408648    0.3142025287    1.6083773881
 C    2.5975820197   -0.4550377630    2.5382855481
 C    1.9454702953   -1.7203102170    2.5793864984
 C    0.9184774933   -1.6905392057    1.6692008670
 N    0.9000684869   -0.4394739805    1.0860537662
 C    0.0066067956    0.0017234584    0.0285386997
 H   -0.5664190135    1.9325634855    0.8264858977
 H   -0.5281503338    1.8540179057   -0.9411539597
 H    1.9656248481    1.6786775428   -0.8853080926
 H    1.4539828786    3.1467709620   -0.0565240852
 H    2.0216249937    2.2946987038    1.9589159719
 H    3.4483819378   -0.1356685778    3.1197434379
 H    2.2113179939   -2.5603798406    3.2028258681
 H    0.2113611738   -2.4450244778    1.3629050991
 H   -0.9932337044   -0.4000899699    0.2201478832
 H    0.3406228057   -0.4007898278   -0.9384780750