14

 O   -0.0654088303    1.4198508903    0.0101742357
 C    0.0619304820    0.0123702310    0.0015255259
 C   -1.3683169116   -0.5446237272    0.0119403914
 C   -1.4165286453   -1.9940967563    0.0045531731
 C   -1.4411213312   -3.2020182896   -0.0015954803
 C   -1.4684799063   -4.6330386670   -0.0087434233
 O   -2.4661933042   -5.3173414363   -0.0026127465
 C   -0.1291538276   -5.2559500186   -0.0251061498
 N    0.9168476196   -5.7486003238   -0.0379233405
 H    0.8149038762    1.8068527924    0.0044035372
 H    0.5887718625   -0.3498972011   -0.8933426729
 H    0.6053926370   -0.3593264706    0.8824770674
 H   -1.8934163191   -0.1632698312    0.8964956538
 H   -1.9098741417   -0.1537951619   -0.8584427511