15

 C    0.0042843050    1.4842136501    0.0046719466
 C    0.0047002245    0.0296179730   -0.0045583740
 C    0.0041223970   -1.1739873708   -0.0066793903
 C    0.0158117844   -2.6421867230   -0.0406280935
 C   -1.4045482716   -3.2240589748    0.0578714411
 O    0.5598523210   -3.1383443082   -1.2586317482
 C    0.8336260616   -3.1386638842    1.1028697063
 N    1.4798205943   -3.5362144884    1.9742823122
 H    0.8211616551    1.8746684455    0.6204784797
 H    0.1255620085    1.8834575201   -1.0078675664
 H   -0.9364892122    1.8742153161    0.4071702825
 H   -1.9891961885   -2.8517080660   -0.7852794231
 H   -1.3514663736   -4.3137741592    0.0105453674
 H   -1.8782836365   -2.9211922328    0.9930133909
 H    1.4028416811   -2.6950523474   -1.4103408312