16

 O    0.1349541525    1.3172320614   -0.0198637906
 C    0.0613581455   -0.0753800569   -0.0652701915
 C   -1.3805812920   -0.5467046404    0.0546237976
 O   -2.2693029148    0.2770933110    0.1739685089
 C   -1.6487359667   -2.0124006598    0.0078379903
 O   -0.5302828557   -2.8408265843   -0.1335241327
 C   -2.8677676782   -2.5278724078    0.7558672949
 C   -2.8941462168   -2.4502137056   -0.7381015918
 H   -0.7844652055    1.6139933403    0.0805450183
 H    0.4807203924   -0.4802401166   -0.9994072526
 H    0.6474632809   -0.5359282438    0.7480985492
 H   -0.1521415811   -2.9984876580    0.7384768240
 H   -2.7595486007   -3.5059210802    1.2111827863
 H   -3.4350946933   -1.7951662531    1.3175688604
 H   -3.4829663922   -1.6670865188   -1.2000967929
 H   -2.7879458446   -3.3708887273   -1.2991168677