17

 C    0.0701054312    1.4891903629   -0.1349070517
 C    0.0079891594    0.0017301496    0.0085317172
 O    0.6195173156   -0.8373513768   -1.0388282507
 C    0.0464354044   -1.7795359907   -0.0752796618
 C    0.5789536978   -0.9419152365    1.1200889695
 C   -0.3964021884   -1.0202414241    2.2851664086
 C   -1.7197124712   -1.0070141512    1.4915708491
 O   -2.8411319864   -1.0375502094    1.9253447128
 C   -1.2611391597   -0.9359438438    0.0573341419
 H    1.1120789832    1.8210024315   -0.1734984722
 H   -0.4307949518    1.8067463410   -1.0539575982
 H   -0.4207672979    1.9759151551    0.7136212931
 H    0.1391754682   -2.8456933147   -0.2809640402
 H    1.6547594858   -0.9278213846    1.2871312697
 H   -0.3074561082   -1.9351084637    2.8804355964
 H   -0.3440833751   -0.1698386328    2.9730505844
 H   -1.9860299270   -0.9144922216   -0.7523172879