18

 O    0.2151361028    0.2071164849    0.6501317448
 C    0.1030897140    1.3270235193    0.2140569763
 N    1.0525633737    1.9796899086   -0.5529295923
 C    2.4799892803    1.8722789388   -0.3148853181
 C    1.7748748579    3.1838793875   -0.1865737560
 C    1.9642054618    4.4464429871   -1.0528731541
 C    1.8647575780    5.2781541597    0.2368854887
 C    0.5447720894    5.0383087399    0.9031109287
 C    1.6342013418    4.0071905956    1.0726192377
 H   -0.8160333690    1.9322604076    0.3301284205
 H    2.7853170791    1.3572818904    0.5933275815
 H    3.0946808963    1.6737261501   -1.1893335793
 H    2.9486896574    4.4780251466   -1.5254350022
 H    1.1961535844    4.6374706295   -1.8082058301
 H    2.4923859933    6.1248690105    0.4808307671
 H    0.3472606165    5.6361271675    1.7869215719
 H   -0.3386641060    4.8178442359    0.3083915338
 H    2.0274050483    3.7386830903    2.0456270612