19

 C   -0.0383154782    1.4200472202   -0.1773714228
 C    1.4075097651    2.0236325269   -0.0369742783
 C    2.2399986979    0.7396374265   -0.0941430456
 C    3.1147184224    0.0575160563    0.9978725635
 C    1.9840090182    0.0588687846    2.0683000257
 C    2.1138051351   -1.4536693091    2.3335618123
 C    2.3426433317   -1.3331490882    0.8145079297
 C    1.3049370032   -0.1736945534    0.6497342573
 O   -0.0185263566    0.0472496312    0.3134391394
 H   -0.7794898045    1.9823033900    0.3986120138
 H   -0.3587111727    1.3958928708   -1.2254134411
 H    1.6126445045    2.7466206546   -0.8298622900
 H    1.5089258901    2.5367913972    0.9232840602
 H    2.4697378430    0.4313703400   -1.1204144106
 H    4.1826051563    0.1429214393    1.1937267769
 H    1.7673324228    0.8609580960    2.7738884567
 H    2.9775151230   -1.7677153582    2.9282125754
 H    1.2132961931   -1.9841841746    2.6554456789
 H    2.5881704656   -2.0998024803    0.0783669583