14

 C   -0.0153171719   -1.1333142285    0.0270343171
 C   -0.0167583837    0.0691377007    0.0328003061
 C   -0.0408013960    1.4972684626    0.0407204685
 N   -0.6900022607    2.3335903907    1.1135385997
 C   -0.1549837583    3.3454271049    0.1488290975
 C    1.1433024090    2.5153988183   -0.1042705678
 N    1.0457705898    2.5161878936   -1.5980119926
 C   -0.3797287019    2.4850623280   -1.1426462781
 H   -0.0065502484   -2.1952911858    0.0228087548
 H   -1.7084741179    2.2662501808    1.0327309758
 H   -0.2592084687    4.4221317367    0.2862300218
 H    2.0802877899    2.5191657927    0.4511733944
 H    1.2769763718    3.4443395515   -1.9619774411
 H   -1.2346685729    2.4503910140   -1.8207159660