16

 O    0.0315747831    1.4154302126    0.1698158974
 C    0.0603571360    0.0110645215   -0.0146164341
 C   -1.3361805610   -0.5451667401   -0.0696225360
 C   -1.7386092652   -2.0512571348    0.0278070735
 C   -2.9988768852   -1.3206581075    0.5806504247
 O   -2.0898366758   -0.3403540307    1.1865600269
 C   -3.4912790690   -0.5603663300   -0.6664098872
 C   -2.3538175253   -0.0245215951   -1.1097248913
 H   -0.5579849369    1.5808718677    0.9153105774
 H    0.5785462969   -0.1770316212   -0.9614250477
 H    0.6234881409   -0.4938012283    0.7850334019
 H   -1.8284100314   -2.6300671622   -0.8931618486
 H   -1.1841550895   -2.5859491727    0.8033124019
 H   -3.7097431658   -1.7683998275    1.2732444721
 H   -4.5003542077   -0.5094542884   -1.0477603929
 H   -2.1395864341    0.6097422766   -1.9567032280