19

 C   -0.0821143764    1.5385465815   -0.0387143240
 C   -0.0417235991    0.0341322125    0.0802604002
 N    1.2468682227   -0.6220783120   -0.2009065713
 C    0.6842729869   -0.6744875743    1.1717617197
 C    1.4518529298    0.0140659406    2.3106931473
 C    1.5572723977   -1.0500432204    3.4402847778
 C    0.6667435632   -2.1737627728    2.9642671281
 C    0.1962540464   -1.9592475224    1.7357755671
 H    0.8490246093    1.9833285089    0.3205120920
 H   -0.2158927868    1.8398410845   -1.0833595851
 H   -0.9134578588    1.9548416317    0.5410258972
 H   -0.9373505453   -0.4680960329   -0.2876083256
 H    1.1013116664   -1.5125168209   -0.6724504238
 H    2.4279452741    0.3575861266    1.9631506095
 H    0.9024790773    0.8915979346    2.6656594349
 H    2.5870756769   -1.4019633679    3.5860738021
 H    1.2348649074   -0.6531063627    4.4100439072
 H    0.4621552189   -3.0510877788    3.5678563376
 H   -0.4496056806   -2.6272818860    1.1746703192