17

 C    0.0070307080    1.5536927704    0.0017099091
 C   -0.0557935612    0.0769196901   -0.3759675459
 N   -1.4423313173   -0.3846315259   -0.3831769258
 C   -1.7070377921   -1.4886372848   -0.9252463360
 O   -0.8811025407   -2.3898643377   -1.5449039355
 N   -1.6972242596   -3.4761677411   -2.0044605286
 N   -2.8783519048   -3.2378225660   -1.6790755060
 N   -2.9630998594   -2.0704397616   -1.0271399400
 C   -4.2061941391   -1.5246418695   -0.5326386947
 H    1.0441242513    1.9022552406    0.0304874016
 H   -0.5417672311    2.1618819738   -0.7236762019
 H   -0.4423868559    1.7180018310    0.9855222685
 H    0.4189399692   -0.0821606877   -1.3551238918
 H    0.5267307157   -0.5138029931    0.3460773746
 H   -5.0069674956   -2.2089346783   -0.8108895752
 H   -4.1639101958   -1.4178855443    0.5547006094
 H   -4.3809217315   -0.5399368858   -0.9740500018