18

 O   -0.0185669108   -0.0051253541    0.2577715356
 C    0.0313450912    1.1996926609    0.1211924202
 N    1.1460685986    1.9069337483   -0.1888568328
 C    2.5871537330    1.5936340441   -0.1142645351
 C    2.7771019350    2.9166261994   -0.9341070120
 C    1.5468155319    3.3211256741   -0.0517196181
 C    2.2051505609    3.3798732594    1.3539468500
 C    1.9081368701    2.2727990904    2.3328979198
 C    2.9901423052    2.0753764884    1.3056576795
 H   -0.8610044257    1.8587660777    0.1707566157
 H    2.9132823817    0.6158557644   -0.4603637940
 H    3.7047571666    3.4717603057   -0.7835913336
 H    2.5285097029    2.8061203880   -1.9909487552
 H    0.8312599540    4.0910375860   -0.3380570656
 H    2.6340749698    4.3164768892    1.6889428414
 H    2.2541022587    2.4445257058    3.3472753970
 H    0.9876651288    1.7040488697    2.2798254322
 H    4.0287681581    1.9988344627    1.6027219351