19

 O    0.0059393200    1.4123976148   -0.2168628595
 C    0.0515851083    0.0110575568    0.0025120674
 C   -1.3833945354   -0.4913968630    0.0470705833
 C   -2.1730042454   -0.2468745909   -1.2606842165
 N   -3.2384009350   -1.2565728946   -1.3038652214
 C   -2.6044737554   -2.4716535972   -0.7595302104
 C   -1.4993566693   -2.0202006837    0.2632818764
 C   -3.5893799961   -3.3832231705   -0.1804684095
 N   -4.3617544506   -4.0955957216    0.3005358488
 H    0.9069869104    1.7471662967   -0.2434083094
 H    0.5919736134   -0.5045628920   -0.8101318786
 H    0.5679105980   -0.2311992729    0.9447673213
 H   -1.8963619042    0.0313868008    0.8621828882
 H   -2.5918323035    0.7571624612   -1.3349366461
 H   -1.5137148415   -0.3949422768   -2.1271869155
 H   -3.9911120825   -0.9745408436   -0.6818229441
 H   -2.1200157558   -2.9974591123   -1.5919079189
 H   -0.5586112828   -2.5372653301    0.0499941172
 H   -1.7821246527   -2.2675069810    1.2880124673