21

 C    0.1192365850    1.6421680886    0.2138936689
 C    0.0047123351    0.1174070342    0.0789369462
 C   -1.4331743789   -0.4510621681    0.0151879828
 C   -1.4721421963   -1.9970149105   -0.0365740933
 C   -2.6540286953   -2.3723523817    0.8917792806
 O   -3.2814175877   -1.1488588284    1.2737587030
 C   -2.2744695202   -0.1578098277    1.2740207420
 C   -2.1565354135    0.1413053737   -1.1956312805
 O   -2.3501491969   -0.4283315428   -2.2376115006
 H    1.1694583085    1.9331732058    0.3098619668
 H   -0.2849000245    2.1674109403   -0.6566174450
 H   -0.4056599928    2.0118118723    1.1008975812
 H    0.5488951122   -0.2128023682   -0.8136927749
 H    0.5017074442   -0.3563309197    0.9345932890
 H   -1.6249808827   -2.3313806112   -1.0639812889
 H   -0.5329107523   -2.4227292505    0.3257131318
 H   -3.4122452766   -2.9902734048    0.4043590176
 H   -2.2964306600   -2.9070032135    1.7844289091
 H   -1.6400440851   -0.2205887423    2.1755513915
 H   -2.7654999005    0.8204057892    1.2686718333
 H   -2.5006875117    1.1910498054   -1.0552384406