17

 O   -0.4277969918    1.5756106529    0.2968047762
 C   -0.0195908822    0.2245586984    0.2767871394
 C   -1.1769957578   -0.6959919775   -0.1145836988
 N   -1.7139919052   -0.2261801067   -1.3909369405
 C   -2.1986613429   -1.0425460233   -2.2033286388
 C   -2.8139783908   -0.9572202151   -3.5841125028
 C   -2.9430635070   -2.4871301080   -3.4347572482
 O   -2.3434555024   -2.4158216804   -2.1041939153
 H   -0.9353789043    1.6941972751   -0.5173148897
 H    0.8182564159    0.0671034806   -0.4232781329
 H    0.3362619851   -0.0258937464    1.2821493934
 H   -0.8504609980   -1.7435788059   -0.1495170582
 H   -1.9655474244   -0.6127944570    0.6445874428
 H   -3.7518104969   -0.4015341087   -3.6327189977
 H   -2.1405007271   -0.6041190557   -4.3665365534
 H   -3.9582159902   -2.8869843203   -3.3825525543
 H   -2.3305272399   -3.0927638320   -4.1066442813