18

 C    0.0501809013    0.5466470430   -0.3216703410
 O   -0.2516159418    0.2461714604    1.0271899127
 C    0.7422040436   -0.5326073487    1.6677935852
 C    0.7754201325   -1.9539871326    1.2032039270
 N    1.6253046356   -2.5226914708    0.4062704850
 C    1.1694522588   -3.8290126722    0.2865683349
 C    0.0451893621   -3.9893845798    1.0285287886
 C   -0.8803822497   -5.1157662956    1.3037844772
 O   -0.2165270829   -2.7845619026    1.6254672893
 H    0.1453404912   -0.3571885425   -0.9382177291
 H   -0.7743052067    1.1544395160   -0.7011733978
 H    0.9868274754    1.1189535084   -0.4053924177
 H    1.7449723166   -0.1114000664    1.5115115382
 H    0.5038036514   -0.4985040426    2.7348573900
 H    1.6819125262   -4.5579669758   -0.3213260426
 H   -0.9186389881   -5.3518222918    2.3729793520
 H   -1.9013144524   -4.8831999445    0.9814653214
 H   -0.5460805530   -6.0068355619    0.7678500968