17

 C    0.2736957026    0.9185676130    0.6354175018
 N   -0.3786609159    0.4275228219   -0.5852608545
 C    0.3651035829   -0.4915115412   -1.3435228745
 C    0.7542204735   -1.7937130933   -1.1422462136
 O    0.4353475146   -2.5063462066   -0.0169077337
 C    1.5078171304   -2.2375362472   -2.2745402867
 C    1.5532417709   -1.1634103726   -3.1386171519
 O    2.1216211347   -0.9894869421   -4.3603023107
 N    0.8803896191   -0.1230527876   -2.5938009323
 H    0.5399382203    0.1215621059    1.3443531123
 H    1.1895354609    1.4519248622    0.3635741812
 H   -0.3937785587    1.6266373830    1.1378133560
 H   -1.2946383713    0.0565810340   -0.3596084088
 H    0.8124124056   -3.3863266952   -0.0976305287
 H    1.9568434348   -3.2077594090   -2.4272265346
 H    2.5626059004   -1.8078971054   -4.6063486623
 H    0.7262568751    0.7704348601   -3.0274725089