16

 O   -0.0627558722    1.4277453682    0.0407534132
 C    0.0235072540    0.0346477518    0.0231400916
 C   -0.4676084733   -0.7678280408    1.2192795924
 C   -1.2775834980   -0.6879122107   -0.0555249070
 C   -2.6004936160    0.0722800103   -0.1542371145
 O   -3.5261184622   -0.8758534756   -0.7016418277
 C   -2.8655837541   -1.9842276600   -1.1507544639
 O   -3.4060656952   -2.9203344078   -1.6673780213
 N   -1.5145186290   -1.8075727154   -0.9164695559
 H    0.6150695899    1.7676748462    0.6348348217
 H    0.8618644955   -0.3770718447   -0.5404632574
 H    0.0469040394   -1.6942787026    1.4556755905
 H   -0.8359261953   -0.2136862277    2.0774162831
 H   -2.9759274651    0.4121280674    0.8128494870
 H   -2.5193320005    0.9298723652   -0.8290805006
 H   -0.9338430081   -2.6299907636   -0.9133089612