14

 O    0.3579493508    0.9156039648    0.7062948219
 C   -0.1450067833   -0.1873645724    0.0085120919
 C   -1.6288557769   -0.0744003078   -0.3370849637
 C   -1.7082950674   -0.9212250041   -1.6301020730
 O   -0.4206984820   -0.7874824829   -2.2669363339
 C    0.4951936074   -0.3190475410   -1.3728548136
 O    1.6161463064   -0.0307164585   -1.6678356111
 C   -1.9861786384   -2.3414471216   -1.3646994464
 N   -2.2235202180   -3.4491778104   -1.1402011450
 H    1.2751769028    1.0291530044    0.4197563056
 H    0.0454388178   -1.1315574286    0.5476147521
 H   -2.3034892697   -0.4336224450    0.4392462332
 H   -1.8632412464    0.9682774911   -0.5663364525
 H   -2.4548680932   -0.5462786281   -2.3335181856