17

 N   -0.0313004779    1.4744523342    0.2356355417
 C   -0.0373201332    0.0715848897   -0.0552663642
 C    0.8099232373   -0.5483091280   -1.1695502830
 C    0.0294771534   -1.8159470968   -1.5828963132
 O   -1.3080543081   -1.6798382272   -1.0586047550
 C   -1.3123039327   -0.7065517535   -0.0758813236
 C   -0.3741906908   -0.8384607498    1.1380930377
 C    0.3603015083   -2.0307762624    1.4303554377
 N    0.9640454764   -2.9903042054    1.6663662202
 H    0.8803985028    1.7688122492    0.5744067060
 H   -0.2276150861    2.0140118253   -0.6030929197
 H    0.8647196633    0.1752095514   -1.9898336688
 H    1.8316645420   -0.7857667429   -0.8599310873
 H   -0.0541208940   -1.9342179335   -2.6663429372
 H    0.4859183869   -2.7178492170   -1.1666020148
 H   -2.2864677579   -0.2636540337    0.0926939142
 H   -0.7061737198   -0.2861211497    2.0108494094