18

 C    0.1509090510    1.5068432778    0.1830761026
 C   -0.0888034156    0.0078183190   -0.0613458911
 C    0.6821558021   -0.5011821792   -1.2538660625
 C    1.7743019908   -1.3610618959   -1.1232050081
 C    2.4049501648   -1.7522017427   -2.2982622588
 N    2.0228949802   -1.3410541690   -3.5039612771
 C    0.9693611975   -0.5043816140   -3.5160644040
 N    0.5845024789   -0.0257754252   -4.7359049009
 N    0.2754421442   -0.0726493114   -2.4520962371
 H    1.2033649151    1.7056894527    0.4095650463
 H   -0.1186635315    2.0817312481   -0.7065888272
 H   -0.4508550480    1.8636900532    1.0241022558
 H    0.1852953663   -0.5692698425    0.8277833718
 H   -1.1556921008   -0.1593196427   -0.2467817654
 H    2.1069697019   -1.7153415197   -0.1557789045
 H    3.2554764429   -2.4312422037   -2.2728264993
 H    0.9292053832   -0.5161602340   -5.5437305863
 H   -0.3266538929    0.3967409891   -4.7907814742