15

 C   -0.0935695182    1.4487751230    0.0250589504
 C    0.0041299240   -0.0031188258    0.0014962245
 C    0.0927458933   -1.2047137625    0.0033566396
 C    0.1773480972   -2.6594075450   -0.0609342159
 O   -1.1027955730   -3.2926796768    0.0940769923
 C    0.8123152471   -3.1461799838   -1.3771664522
 O    0.8118702422   -4.5528752405   -1.4256275206
 H    0.7913072304    1.8938098189    0.4928424757
 H   -0.1792291852    1.8614330110   -0.9859181429
 H   -0.9694186184    1.7763438433    0.5955746403
 H    0.7788912355   -3.0475642677    0.7694002279
 H   -1.7386305262   -2.7762461458   -0.4146757907
 H    0.2568809689   -2.7010333035   -2.2204622530
 H    1.8502494165   -2.8055089695   -1.4431413363
 H   -0.0662663542   -4.8171808252   -1.1200671793