16

 C   -0.0178374310    1.4393335820    0.0523168641
 N    0.0024683611   -0.0229096902    0.0152102619
 C   -0.0208666228   -0.6343829591   -1.2278968411
 O   -0.0581006352   -0.0428431500   -2.2882208760
 N   -0.0005574338   -2.0253948604   -1.1899917279
 C    0.0398542988   -2.7600992400   -0.0331736108
 C    0.0622749488   -2.1545742927    1.1639223735
 C    0.0434903063   -0.7015200026    1.2524137196
 N    0.0600160462    0.0124394825    2.3179986239
 H    0.8703161795    1.8068612078    0.5709299989
 H   -0.0453909622    1.7962153994   -0.9741116710
 H   -0.8928885539    1.7819808112    0.6090077211
 H   -0.0182906843   -2.4633759766   -2.0964207027
 H    0.0518130053   -3.8361231093   -0.1583403235
 H    0.0940403433   -2.7278619271    2.0797034970
 H    0.0897004939   -0.5908598747    3.1379521130