21

 O   -0.1589150407    1.4029151357   -0.1139627480
 C   -0.0797090417    0.0083681285   -0.0215056684
 C   -0.5274467946   -0.6861611621    1.2485319432
 C   -1.3730659967   -0.7369433488   -0.0008890854
 C   -2.7429960309   -0.0358138172   -0.1335022170
 C   -3.4510792773   -1.1005593386   -0.9990572541
 C   -3.0327920500   -2.4263425000   -0.2950863533
 C   -1.6208057477   -2.0094889026   -0.8061679311
 C   -2.3579170788   -1.4413813443   -2.0559146822
 H    0.5343833319    1.7778950575    0.4388868309
 H    0.7532725022   -0.4363572936   -0.5689571708
 H    0.0045359178   -1.5783265411    1.5661230900
 H   -0.8729682627   -0.0483375143    2.0568359847
 H   -3.2370190825    0.1125153947    0.8318609151
 H   -2.6626160787    0.9351383493   -0.6290226781
 H   -4.4845431759   -0.9014778903   -1.2842519141
 H   -3.1842514526   -2.5092271557    0.7853275944
 H   -3.4182157389   -3.3139103057   -0.8026159176
 H   -0.7961737359   -2.7194276852   -0.8867615887
 H   -2.6733704062   -2.2245253563   -2.7495464630
 H   -1.8879265303   -0.6163487501   -2.5990036263