15

 C   -0.0038978754    1.5140108206   -0.0441801219
 N    1.2437364213    0.7461580229    0.0513602179
 C   -0.0480679042    0.0274340252    0.0104968153
 C   -0.4601399800   -0.7811593902    1.1951372648
 C   -0.9876371868   -1.9538370818    0.8263010905
 C   -1.0357614001   -2.0511519448   -0.6655380747
 O   -1.8642138372   -1.0337086185   -1.2838019641
 C   -0.4584049706   -0.8003172436   -1.1852848618
 H   -0.2532830809    2.0918996192    0.8414397639
 H   -0.2689259261    1.9888813335   -0.9853481014
 H    1.6947908752    0.6906587195   -0.8602748370
 H   -0.3475628080   -0.4146980960    2.2082526743
 H   -1.3651400533   -2.7218323839    1.4889909145
 H   -1.0072880636   -3.0001159556   -1.1914949046
 H    0.0801596599   -0.7151718164   -2.1276171957