17

 O    0.1423171939    1.4830159124    0.0706193094
 C    0.0335042863    0.0934944218    0.0377466759
 C    0.0860579725   -0.6510072457    1.3880068238
 C   -0.9847890544    0.0621570885    2.2289044163
 C   -2.1246476352    0.1105781152    1.1628029123
 C   -1.3763759281   -0.6084376097    0.0186726996
 N   -0.7433107049   -1.7591737027    0.7706728714
 C   -2.0762212846   -0.8810249224   -1.2149931384
 N   -2.6064678318   -1.0738646431   -2.2246485908
 H    0.1443008191    1.8221152684   -0.8305219385
 H    0.6943349706   -0.3692919781   -0.7058618503
 H    1.0253057212   -0.9281782590    1.8637096632
 H   -1.2556985501   -0.5298904126    3.1039585831
 H   -0.6635486199    1.0559058380    2.5437666190
 H   -3.0155521440   -0.4449739300    1.4562311714
 H   -2.4005676468    1.1270240606    0.8797701685
 H   -0.1515032539   -2.2714324415    0.1134814042