17

 C   -1.1286815124    0.7283246191    0.8606309869
 O    0.0236078914    0.1122735076    0.3085218045
 C   -0.2743047127   -0.7686078328   -0.7787695440
 C   -0.8326515239   -2.0668139203   -0.2824543987
 N   -1.7699513465   -2.7633288467   -0.9254368461
 N   -1.9441118889   -3.8613550363   -0.1766284771
 C   -1.1647783945   -3.8902184809    0.9430184535
 C   -0.4234268572   -2.7283658113    0.9022172364
 O    0.4976666917   -2.3057686893    1.8046854012
 H   -0.7901557657    1.3613281593    1.6838468800
 H   -1.6341353477    1.3534529649    0.1108912819
 H   -1.8456969002   -0.0102778753    1.2426076255
 H   -0.9639258819   -0.2995982276   -1.4934272870
 H    0.6855151327   -0.9193383836   -1.2861834638
 H   -2.6176117236   -4.5477071639   -0.4685368455
 H   -1.1962354762   -4.6989398804    1.6536319940
 H    0.6913567155   -1.3830687324    1.5780082284