16

 C    0.0195767204    1.5155716488    0.0107958348
 C    0.0013412790    0.0248466945    0.0025199691
 C    0.8424232441   -0.9870797510   -0.7641890979
 C    0.8394576385   -0.9954353276    0.7613752365
 C   -0.3382449791   -2.0110820955    0.7452903172
 C   -0.3352351810   -2.0029099478   -0.7637051247
 C   -1.2013179846   -0.9839298121   -0.0053859640
 C   -2.6035807032   -0.8071595928   -0.0072212618
 N   -3.7512567770   -0.6432884790   -0.0090652608
 H    1.0514390676    1.8830049496    0.0131056777
 H   -0.4810981836    1.9262203739   -0.8729687251
 H   -0.4816473920    1.9165145246    0.8986970296
 H    1.6551112851   -0.8193449405   -1.4572082905
 H    1.6494498331   -0.8353193348    1.4593311674
 H   -0.6769010999   -2.7670156864    1.4401966074
 H   -0.6711120073   -2.7512742339   -1.4680861247