23

 C   -0.1075565758    1.4707292605   -0.1552084516
 C   -0.0009102072   -0.0469143808    0.0110044228
 C    0.7681098477   -0.4422466743    1.2663939397
 O    0.8070255384   -1.8577105416    1.3135111768
 C    1.4687377589   -2.4785899220    2.4244302529
 C    2.9636392948   -2.1007586099    2.4809944691
 C    0.7669681691   -2.1495861212    3.7587029175
 C    1.3509835532   -3.9219094256    2.1671590793
 C    1.2756816091   -5.1079062986    1.9930774721
 H    0.8816824844    1.9362314907   -0.2287770243
 H   -0.6620383499    1.7279403922   -1.0622700980
 H   -0.6274931181    1.9312461003    0.6923119031
 H   -0.9988521758   -0.4969445922    0.0593572315
 H    0.4994474279   -0.4918104632   -0.8564834997
 H    1.7821603850   -0.0149982832    1.2310417734
 H    0.2691572645   -0.0249572749    2.1546594580
 H    3.0933964001   -1.0474679500    2.7444600035
 H    3.4734591512   -2.7041006634    3.2362337579
 H    3.4329424393   -2.2865571259    1.5119624638
 H   -0.3000911883   -2.3719174785    3.6837440873
 H    1.1928738139   -2.7527550426    4.5644308182
 H    0.8944542310   -1.0956960214    4.0209475979
 H    1.2018936564   -6.1541879443    1.8269031687