20

 C   -0.5183736502    1.8707833600    0.0961241559
 C   -0.0221117643    0.4353044936    0.0407610319
 C    1.1819605465    0.0732248325   -0.8841216595
 C    1.7021596057   -0.8645047813    0.2399436878
 O    3.0790585168   -0.9714662314    0.4801571683
 C    0.7913477892   -0.1064102932    1.2434168870
 O   -1.1257558160   -0.4792680730   -0.1286307910
 C   -1.7674914872   -0.4835078820   -1.3119559733
 N   -2.7860147735   -1.2139894271   -1.4718976562
 H    0.3090925546    2.5530306099    0.3107315961
 H   -0.9705744830    2.1810293987   -0.8515640188
 H   -1.2711614696    1.9786585172    0.8831914502
 H    0.9732592359   -0.3559057295   -1.8662394227
 H    1.8421187678    0.9383045512   -1.0106175105
 H    1.3468017357   -1.8861222090    0.0895424650
 H    3.4283184778   -0.0881137226    0.6397519253
 H    1.3370059919    0.7008630584    1.7434675712
 H    0.2331512576   -0.6834023629    1.9821568900
 H   -1.3196662878    0.1728307368   -2.0685886360
 H   -3.1389040479   -1.1095987365   -2.4211082306