17

 C    0.4239719653    1.2854041747    0.0283147093
 N   -0.2412048880   -0.0010664567   -0.0107355226
 C   -0.1350294961   -0.9471373534   -1.0708533439
 O    0.1723049489   -0.8008169299   -2.2154138267
 C   -0.6969394201   -2.0663922228   -0.0908832910
 N   -0.1300046810   -3.0235160388    1.0688203338
 C    0.9854490061   -1.9840115046    1.1858395255
 C   -0.2640411499   -1.1013298775    0.9649061934
 C   -0.9533797453   -2.0711866504    1.9912074912
 H    1.4022742673    1.2208714491    0.5239979729
 H    0.5763419773    1.6142155760   -1.0029546869
 H   -0.1882668284    2.0262123667    0.5502830999
 H   -1.7589146678   -2.2491224304   -0.2588071709
 H    1.4693278420   -1.9766630342    2.1647090841
 H    1.7126876519   -2.0409934781    0.3710572931
 H   -2.0328472013   -2.2119435975    1.9262038588
 H   -0.5919264908   -2.0835064521    3.0224796102