11

 N    0.0617616129    1.3496519763    0.1447445007
 C    0.0359819980   -0.0133708404    0.0395182445
 N   -1.0843300154   -0.7014505487    0.0186100986
 O   -0.6902355330   -2.0540233174   -0.0156871155
 C    0.6307949829   -2.1295888542   -0.0268849535
 C    1.1855765246   -0.8832555697    0.0051242525
 C    2.5431538449   -0.4998357887    0.0011132502
 N    3.6427479609   -0.1350006695   -0.0093708152
 H    0.8813005259    1.8087192625   -0.2218784198
 H   -0.8072020024    1.8157045564   -0.0693211888
 H    1.0652754607   -3.1170503367   -0.0578413337