17

 N    0.0862577320    1.3390450160   -0.0148274186
 C   -0.0079752882   -0.0163425944    0.0094696187
 C   -1.1282506060   -0.8039161811    0.0241732750
 C   -2.4985329009   -0.3630154138    0.0315195960
 O   -3.4719149694   -1.0960165090    0.0468776757
 C   -0.7252930495   -2.2398402406    0.0017025573
 N    0.0428586074   -2.6107725371   -1.2229169877
 C    0.7579085941   -2.2799795185    0.0269051484
 C    1.2651675128   -0.8441136817    0.0641543801
 H    0.9738467530    1.7572617956   -0.2354163124
 H   -0.7222199437    1.8924504902   -0.2455230912
 H   -2.6416827863    0.7460787464    0.0395589215
 H   -1.3536598623   -2.9862149049    0.4718143750
 H    0.0286596794   -3.6247254620   -1.3240554374
 H    1.3140442555   -3.0535699410    0.5440905615
 H    1.9267653054   -0.6151023941   -0.7799856972
 H    1.8187345466   -0.6280109800    0.9872531853