15

 O    0.2438309182    1.0977850785    0.7654511771
 C    0.0082629428    0.1110904113   -0.2257986972
 C   -1.3629112726   -0.4925797455   -0.1296470945
 C   -2.1695153084   -0.5409824598    0.9743055252
 N   -3.3242171240   -1.1910397471    0.6013362595
 C   -4.4217908848   -1.4441527712    1.4383407188
 O   -5.4242919859   -2.0058692525    1.1091656672
 N   -3.2995024683   -1.5684969886   -0.7057442286
 C   -2.1282586655   -1.1491165596   -1.1414756136
 H   -0.3784465510    1.8169689680    0.6124107210
 H    0.1722065411    0.5037041659   -1.2412811057
 H    0.7764236384   -0.6535484151   -0.0603499833
 H   -2.0232072302   -0.1746070005    1.9775526784
 H   -4.2261251694   -1.0486162814    2.4523045712
 H   -1.8514916505   -1.3224091623   -2.1727373455