14

 C   -0.0219090032    1.4029253425    0.0725417408
 N    0.1513345470   -0.0363623546    0.1010268765
 C    0.5531371494   -0.5926449250   -0.9432930971
 O    0.7095540764   -1.9656966297   -0.9247450089
 C    1.1887326457   -2.5722375176   -2.0197421521
 N    1.5949268504   -1.9899388257   -3.1153202074
 O    1.9908428587   -3.0215720091   -3.9336185859
 N    1.8263445072   -4.2333085982   -3.3286711484
 C    1.3340684047   -3.9831462412   -2.1505336035
 H    0.6037021619    1.8535372653    0.8499991363
 H    0.2273832545    1.8665458069   -0.8936364557
 H   -1.0614255214    1.6428948552    0.3191143521
 H    0.8012362167   -0.1291113168   -1.9012299168
 H    1.1003505420   -4.7642007620   -1.4453847098