13

 N    0.0993659866    1.3091101113    0.0072398649
 C    0.0219719303    0.0500634456    0.0041773489
 N   -1.2085924065   -0.6370186584    0.0118856143
 C   -1.2545442515   -2.0322897079    0.0082766138
 O   -0.3161265593   -2.7837463626   -0.0013322572
 C   -2.7342143713   -2.3692364318    0.0188186944
 O   -3.4035367252   -1.1122333051    0.0276798174
 C   -2.5148571678   -0.0782401154    0.0237147984
 O   -2.8275709029    1.0655904671    0.0294222929
 H    1.0787435160    1.5928794806    0.0003368184
 H    0.8423901862   -0.6721218903   -0.0043961529
 H   -3.0132284203   -2.9402999476   -0.8718064803
 H   -2.9993355545   -2.9454720256    0.9103553070