14

 C   -0.0285138059    1.5398647109   -0.0034637427
 C   -0.0070454287    0.0411974254   -0.0137854735
 C   -0.0414842463   -0.7007727766   -1.1280585178
 O   -0.0232133986   -2.0607694365   -1.1684580549
 C    0.0346602811   -2.8068559041   -0.0135008149
 O    0.0501304259   -4.0013658320   -0.0639238352
 N    0.0707075178   -2.0601531362    1.1425269369
 C    0.0555300027   -0.6633037535    1.2717963217
 O    0.0921783440   -0.1393839421    2.3632091462
 H    0.8646429251    1.9352295181    0.4903033670
 H   -0.0763087752    1.9429486265   -1.0179380172
 H   -0.8890588930    1.9095506287    0.5627719234
 H   -0.0882136522   -0.2920334383   -2.1304536916
 H    0.1134421732   -2.5906068503    2.0028132926