21

 C    0.0046392946    1.5203315217    0.0061206565
 C    1.2829380633    0.6961337300   -0.0905662866
 C    2.2978070205    0.4050236927    0.9835763014
 O    2.4037726953   -1.0013959717    1.2811844701
 C    1.8465637641   -1.9535052835    0.3802667780
 C    0.2831601715   -1.9927294919    0.3011053163
 C   -0.2949562684   -0.8988721494    1.2385917379
 C   -0.0640212337    0.0323272840    0.0418531234
 C   -0.2906654457   -1.1585442011   -0.8933354214
 H   -0.2109971501    2.0325539202    0.9398883020
 H   -0.2919666745    2.0718984968   -0.8804631414
 H    1.6860586292    0.6564603080   -1.0998765089
 H    3.2912453249    0.7726129554    0.6914504379
 H    2.0342994998    0.8935470420    1.9294561916
 H    2.2703354543   -1.8427896851   -0.6296992021
 H    2.2040756714   -2.9093518433    0.7743108515
 H   -0.0854004642   -3.0162675690    0.4089468828
 H   -1.3643220542   -1.0455440514    1.4212801767
 H    0.2222116569   -0.7108309349    2.1786678122
 H    0.2511708138   -1.1716595669   -1.8441985578
 H   -1.3466257288   -1.3928625528   -1.0672773501