20

 C    0.2460820789    1.0942389963    0.2678011622
 N    0.0811731775   -0.3397264932    0.1583779159
 C   -1.0880770893   -0.7771044833    0.0114802766
 O   -1.3185518647   -2.0966646224   -0.1459120816
 C   -2.6861346416   -2.5235474027   -0.1161464434
 C   -2.7519176982   -3.9015681208   -0.7782717527
 C   -2.4485557065   -4.8230393452    0.4061237130
 O   -3.1315059733   -4.2289545289    1.5057888231
 C   -3.1565767626   -2.8173996856    1.3275762595
 H    0.7503536506    1.3353741069    1.2104566180
 H    0.8946606691    1.4532498378   -0.5396010171
 H   -0.6995731639    1.6601456674    0.2268145754
 H   -1.9939556277   -0.1496422419   -0.0247577199
 H   -3.3104705118   -1.7735950969   -0.6136949825
 H   -3.7649410401   -4.0844916487   -1.1488409971
 H   -2.0455903278   -3.9838971303   -1.6057434020
 H   -2.8287461327   -5.8407517077    0.2857716826
 H   -1.3654737106   -4.8703395059    0.5931595065
 H   -2.4907656935   -2.3192025827    2.0446247190
 H   -4.1806487019   -2.4651625224    1.5012421046