15

 O   -0.1287617639    1.3055558342    0.2220336885
 N   -0.0093262196   -0.0883240530    0.3122000673
 C   -1.0970873387   -0.6613708663    0.0088779616
 C   -2.5024417824   -0.2457996019   -0.3951532437
 C   -2.9260930510   -1.7514379026   -0.3028681986
 C   -1.4549030502   -2.1166133144   -0.0278126529
 C   -0.6554579247   -3.2628475185   -0.4798809567
 O   -1.0182337334   -3.0968109097    0.8936982298
 H    0.7446256875    1.6041615688    0.4984740023
 H   -2.9945845557    0.4347316484    0.3038075293
 H   -2.5600921772    0.1889826143   -1.3967397613
 H   -3.5721662294   -1.9702748341    0.5498884420
 H   -3.3634759908   -2.1827647425   -1.2051643198
 H   -1.1475296739   -4.0843691420   -0.9997713598
 H    0.4000692734   -3.1197140307   -0.7048763980