17

 O    0.0492234387   -0.0219791962   -0.1613823806
 C    0.0377042841    1.1692968540   -0.2064669387
 O    1.0559861592    1.9250761274    0.2584960922
 C    0.9533780433    3.3478107745    0.1614313651
 C    1.0402619281    3.9522610643    1.5674056180
 O    1.1280427081    5.3640434218    1.4733003802
 C    2.2272485103    5.7552762438    0.6915557734
 O    2.1376179714    5.2934025564   -0.6317377502
 C    2.1189929186    3.8767880255   -0.6819261513
 H   -0.7886632261    1.7765382375   -0.6242456904
 H    0.0027943695    3.6354257304   -0.3040854554
 H    0.1514927839    3.7185949160    2.1585971759
 H    1.9210540602    3.5337246655    2.0807712920
 H    2.2193266700    6.8453417970    0.6511687236
 H    3.1640131982    5.3890174669    1.1531183008
 H    3.0596934404    3.4540128353   -0.2935221900
 H    2.0167604717    3.5880831400   -1.7308434946