19

 C   -0.0954808467    1.5637542931   -0.0069534425
 C   -0.1459646925    0.0389704871   -0.1208583115
 C    0.8328200447   -0.5116311038   -1.1752282740
 C    0.8107811372   -2.0156583264   -1.2484452143
 C    0.2428954677   -2.7011730658   -2.3288898551
 N    0.1941023460   -4.0310551153   -2.3992016420
 C    0.7238835501   -4.6918895556   -1.3686222953
 C    1.2939352770   -4.0234823114   -0.2882795319
 N    1.3409411575   -2.6936097521   -0.2213067501
 H    0.9057295101    1.9066481863    0.2764813165
 H   -0.3520746946    2.0433876429   -0.9582325905
 H   -0.7985401526    1.9271540733    0.7488154326
 H    0.0934560999   -0.4211587522    0.8441805701
 H   -1.1643282302   -0.2823233065   -0.3736916721
 H    0.5948196123   -0.0905897156   -2.1589147659
 H    1.8492171899   -0.1893859814   -0.9200777976
 H   -0.1832972065   -2.1508155039   -3.1648890871
 H    0.6959464253   -5.7777364671   -1.4053270654
 H    1.7264107952   -4.5753543456    0.5430574861