17

 N    0.1813964418   -1.2556622901    0.1040465972
 C    0.1377264924   -0.0988245261    0.0903152964
 C    0.0604487767    1.3339482996    0.0576322529
 C    0.4463024894    2.2210128575    1.2387223189
 C    1.2670834120    1.6236097487    2.3722310740
 C    2.4896981813    0.9517871982    1.6953382087
 C    2.6540388724    1.6516364302    0.3214687024
 C    1.2889275409    2.2380397747   -0.0071908458
 H   -0.7918668512    1.6883632365   -0.5139527022
 H   -0.2473148179    3.0230597820    1.4654073788
 H    1.5836599328    2.4421974776    3.0283748771
 H    0.6979820585    0.9194885837    2.9870254502
 H    3.3912791089    1.0404235803    2.3062999813
 H    2.3040621479   -0.1140493558    1.5552218107
 H    3.3704435280    2.4783022196    0.3864260601
 H    3.0215637741    0.9664414120   -0.4486408731
 H    1.2308223720    3.0529287712   -0.7201776975