16

 O   -0.0705326302    1.4782769370    0.0505813181
 C    0.0320748539    0.0634430181    0.0638041467
 C   -1.3833481332   -0.5065589696   -0.0553805743
 C   -1.4058904426   -2.0053515947   -0.0419383942
 C   -1.4935650470   -2.8670716435   -1.1188510749
 N   -1.4473389327   -4.1256266461   -0.6174835653
 N   -1.3368335084   -4.1574564619    0.7231106234
 C   -1.3095654634   -2.8748866885    1.0726808568
 H    0.8138334957    1.8455268484    0.1365884609
 H    0.6466133299   -0.3060544267   -0.7725286030
 H    0.4973635324   -0.2993208260    0.9939959441
 H   -1.9812664263   -0.1051903065    0.7706091882
 H   -1.8302428431   -0.1236036673   -0.9789290356
 H   -1.5899870756   -2.6792028639   -2.1770414504
 H   -1.5007863362   -4.9934768807   -1.1226196544
 H   -1.2286065032   -2.6083809882    2.1172267239