17

 N   -0.0504568543    1.4495383161    0.0612846081
 C    0.0125099946   -0.0084912681   -0.0202404717
 C    0.7251459941   -0.5560592327    1.2404613260
 O    0.6241828936   -1.9617887404    1.3028115289
 C   -0.7170303121   -2.3801904246    1.3045903767
 O   -1.4043807612   -1.9846409979    0.1448460281
 C   -1.4258998953   -0.5802933114    0.0125720340
 C    0.7115918339   -0.4808643261   -1.2355862066
 N    1.2692409744   -0.7679906812   -2.2068273343
 H    0.8882670760    1.8400932816    0.0472640819
 H   -0.5221739798    1.8242010021   -0.7578875328
 H    1.7899155005   -0.3094935501    1.2328183540
 H    0.2530759730   -0.0767867055    2.1121507743
 H   -0.7122809792   -3.4704675153    1.3177868001
 H   -1.2317384082   -1.9790200521    2.1983562023
 H   -1.9446051045   -0.1015401989    0.8576372118
 H   -1.9647482854   -0.3517931954   -0.9104757708