21

 C   -0.0753424858    1.5437013498   -0.0252099272
 C   -0.0039127230    0.0149725277    0.0336324532
 C   -1.4220143373   -0.5634706871   -0.0562026430
 O    0.7764358732   -0.4623975528   -1.0907171274
 C    1.8887749768   -1.2249791608   -0.5399709181
 C    1.2342956744   -1.9260500889    0.6584692977
 C    0.8051140343   -0.5598241711    1.2623989445
 C    2.1504721745    0.1506666931    1.2665286191
 C    2.8139626551   -0.2483799601    0.1756409236
 H    0.9208039053    1.9876168777   -0.0280666619
 H   -0.5863713418    1.8529013865   -0.9422106873
 H   -0.6381796182    1.9424124448    0.8261511818
 H   -1.8763853263   -0.2767979158   -1.0093500692
 H   -1.4316257078   -1.6534705147    0.0024861766
 H   -2.0495818236   -0.1694310493    0.7504894243
 H    2.3081242902   -1.8287792917   -1.3432724935
 H    0.4143030803   -2.5876104474    0.3742487052
 H    1.9434833915   -2.4579055572    1.2941535473
 H    0.2452117590   -0.5649132095    2.1975519172
 H    2.4432489239    0.9138135035    1.9765250531
 H    3.7587680651    0.1179597535   -0.2042283361