18

 O   -0.0007896251   -0.0113745039   -0.2667607596
 C    0.0278962107    1.1864756016   -0.0720120403
 N    1.1288640508    1.8870145119    0.2970274278
 C    2.5462944737    1.5152603157    0.0733132581
 C    2.6758773141    2.7911318199   -0.8095145722
 C    1.4913499653    3.3045047832    0.0583398898
 C    2.0453158429    3.8359671945    1.3859069092
 O    3.2356988435    3.1412438963    1.7430108300
 C    3.2692740936    1.7555082539    1.4015066869
 H   -0.8676145142    1.8387381862   -0.1405551003
 H    2.6994353342    0.5216244789   -0.3475876595
 H    3.6129129012    3.3474612382   -0.7669419100
 H    2.3721157524    2.6012160822   -1.8395931217
 H    0.7121896398    3.9366735980   -0.3738344013
 H    2.3271911291    4.8910951440    1.3034770049
 H    1.2738877302    3.7360353258    2.1642143427
 H    2.8032673835    1.1404030400    2.1846088617
 H    4.3297526743    1.4927754338    1.3307569138