16

 C   -0.0164868353    1.3287629760    0.1515576794
 N    0.0772174007   -0.1174803037    0.1067133294
 C    0.5409371976   -0.6274402081   -0.9400469175
 O    0.6396236729   -1.9986457766   -1.0070586023
 C    1.1496458961   -2.5441729344   -2.1569722025
 O    1.5166931772   -1.9074345603   -3.1100279942
 C    1.1792927887   -3.9756618926   -2.0526078114
 C    1.2296088227   -5.1791202145   -2.0245142358
 C    1.2848744769   -6.6290246660   -1.9831452303
 H    0.5629336637    1.6998115956    1.0038256654
 H    0.3388273820    1.8313839987   -0.7610203077
 H   -1.0590791414    1.6157405176    0.3259687430
 H    0.8897816660   -0.1147118605   -1.8384803175
 H    1.8673244016   -7.0281040082   -2.8195675868
 H    1.7412019958   -6.9745309102   -1.0495898688
 H    0.2763958250   -7.0530842929   -2.0377880425