20

 C   -0.0434477319    1.4917071180    0.0262889161
 C   -0.0024134299    0.0359919907    0.0094734521
 C    0.0329634325   -1.1681702880    0.0088598305
 C    0.0361534999   -2.6303781679   -0.0035132303
 C   -1.3990945996   -3.1825031514    0.0996279155
 C    0.7776536883   -3.1587617098   -1.2753354059
 C    2.2275149216   -2.6507066537   -1.3787885775
 C    0.7589047404   -4.6253264812   -1.3028163765
 N    0.7580709087   -5.7813864657   -1.3159366799
 H    0.7541498067    1.9054677169    0.6529339252
 H    0.0780374476    1.9046658894   -0.9810585495
 H   -0.9983100429    1.8566085689    0.4201161220
 H    0.6048820781   -2.9880362066    0.8658918773
 H   -1.3926296372   -4.2749909002    0.1320929096
 H   -1.8815430729   -2.8086510301    1.0056525931
 H   -1.9979162398   -2.8612504334   -0.7582187811
 H    0.2156503875   -2.8106000860   -2.1510606686
 H    2.7025419000   -3.0174208983   -2.2917684560
 H    2.2310778121   -1.5591522162   -1.3892137333
 H    2.8192185307   -2.9938899754   -0.5250570927