14

 N   -0.0314612120    1.4218330235   -0.1297203272
 C   -0.0132305996    0.0309681853   -0.0507584647
 C   -1.1731820808   -0.7426364578    0.0341894944
 N   -1.2008166771   -2.0771768408    0.0531877817
 C   -0.0323889084   -2.7137857980   -0.0115767764
 C    1.1925993779   -2.0537061852   -0.0914464568
 C    1.2049085709   -0.6666022458   -0.1100061131
 O    2.3378766841    0.0902024801   -0.1754599057
 H    0.8324552742    1.8587113999    0.1577381405
 H   -0.8373719515    1.8551378291    0.2971650983
 H   -2.1364283217   -0.2365532387    0.0881840433
 H   -0.0653959636   -3.7998428485    0.0023785100
 H    2.1227100464   -2.6138498322   -0.1351730401
 H    3.1074651312   -0.4880436209   -0.1918355742