13

 O   -0.0637878341   -0.0484319577    0.0045186346
 C    0.0330174533    1.1458608993    0.0102203427
 O   -1.0709499528    1.9845674521    0.0285711255
 C   -0.7077511436    3.3863684919    0.0306852659
 C    0.7851700143    3.3475058352    0.0103871677
 C    1.1785691526    2.0452464645   -0.0014038143
 N    2.5490608986    2.0682007214   -0.0206038534
 C    2.8928679173    3.3936494205   -0.0182466260
 N    1.8447320035    4.2043085014    0.0003627144
 H   -1.1533726224    3.8602024082   -0.8503134140
 H   -1.1294790143    3.8513101830    0.9280285412
 H    3.1765142594    1.2808575816   -0.0334169949
 H    3.9250674281    3.7118099487   -0.0307780492