25

 C   -0.0565401224    1.3385729755   -0.3205660432
 C    0.2776175817   -0.1215604689   -0.1073473968
 C    1.7046951154   -0.5642715292    0.1292313817
 C    0.6952999952   -0.6311667760    1.2430907013
 C    0.7839669965    0.1486440822    2.5617241667
 C    0.6102456915   -1.1957474145    3.3230342721
 C    0.2205316558   -1.9107403899    1.9858713556
 C   -1.2908326783   -2.1271964358    1.8646083725
 C    0.9808898976   -3.1989449871    1.6859638819
 H    0.5747904829    1.9824628470    0.3002944681
 H    0.0964707029    1.6333550408   -1.3648299149
 H   -1.1003938579    1.5532684069   -0.0639485589
 H   -0.3255080498   -0.8089569029   -0.6980119934
 H    2.0411927354   -1.4890205929   -0.3292115783
 H    2.4709491486    0.2043997031    0.1905972449
 H    1.7143856939    0.6918162123    2.7479869800
 H   -0.0504302115    0.8406271611    2.7155554053
 H    1.5522253263   -1.5699272556    3.7331607056
 H   -0.1440720729   -1.2163898680    4.1142156471
 H   -1.8459330054   -1.2098735045    2.0870159615
 H   -1.5669972845   -2.4444815760    0.8526093054
 H   -1.6307272916   -2.9028112281    2.5609668062
 H    0.6959554423   -3.9904024980    2.3891434103
 H    0.7657968877   -3.5665919468    0.6751820868
 H    2.0624218806   -3.0513089046    1.7657768424