18

 C   -0.0536943687    1.5361693772    0.0160741366
 C   -0.0425051564    0.0061280606    0.0487336478
 O    0.5512310289   -0.4936127575    1.2399488052
 C   -1.4284162141   -0.5731673552   -0.0792841387
 C   -2.6168166415   -0.2634911626   -1.0283337543
 C   -3.1137344690   -1.1421822282    0.1431773988
 C   -1.8796409739   -2.0559329762   -0.0143730907
 O   -2.3391421453   -0.2906221257    1.0790868716
 H    0.9539015245    1.9144261722    0.2045481615
 H   -0.3922487125    1.9097510157   -0.9558664576
 H   -0.7268284165    1.9269169710    0.7855267665
 H    0.5720393885   -0.3784633192   -0.7748935482
 H   -0.1079721072   -0.3849895693    1.9374288129
 H   -2.9689683590    0.7683342651   -1.0160646349
 H   -2.5993249968   -0.7006885666   -2.0296732275
 H   -4.1332962850   -1.3946093421    0.4324944227
 H   -1.7943193129   -2.6551482680   -0.9243691672
 H   -1.5751081033   -2.5930719210    0.8833607656