27

 C    0.5616058559    1.5364484106    0.1805659832
 C    0.1712129871    0.0648703193   -0.0069793691
 C    0.5882914849   -0.5512750389   -1.3547776069
 C    0.0540620614    0.2258602546   -2.5658298524
 C   -1.4734011453    0.3254507397   -2.6583907104
 C    2.1251395391   -0.8457779952   -1.4002001944
 C    1.8444623910   -2.3238458504   -1.0311770752
 C    0.3552517717   -2.1125330138   -1.4121041895
 C   -0.7156512373   -2.7969579359   -0.5719541269
 H    1.6346165662    1.6934403925    0.0263745384
 H    0.0291922116    2.1931610931   -0.5142713353
 H    0.3228589699    1.8716020586    1.1948587424
 H    0.6236254794   -0.5218920427    0.8020075395
 H   -0.9128149681   -0.0369011541    0.1254702673
 H    0.4866062590    1.2347108490   -2.5733132063
 H    0.4319948229   -0.2628133256   -3.4732311524
 H   -1.9377394837   -0.6664989437   -2.6725253628
 H   -1.9000682629    0.8779526085   -1.8153849926
 H   -1.7743990553    0.8424112091   -3.5751261544
 H    2.5305683196   -0.7398512340   -2.4110326265
 H    2.7599198111   -0.2744369980   -0.7173611402
 H    2.3961015510   -3.0937626991   -1.5767484525
 H    1.9681949631   -2.5145594833    0.0398485140
 H    0.2103652722   -2.3924041689   -2.4629782136
 H   -0.6141692191   -2.5609156840    0.4920902797
 H   -1.7266651708   -2.5104530606   -0.8820948616
 H   -0.6381451947   -3.8857569565   -0.6731693516