17

 N   -0.0317263797    1.3416484961    0.4077168486
 C    0.0245490995    0.1405257579    0.0116720001
 C   -1.2613976353   -0.6551992170   -0.1211730370
 N   -1.5073045502   -1.2429274064   -1.4291054261
 C   -0.8257879024   -2.3000801495   -1.9652278789
 O   -1.1927261917   -2.8687192204   -2.9742792846
 C    0.4649967333   -2.6538029954   -1.2340644931
 C    1.4476232533   -1.4801139279   -1.1686355006
 O    1.2161300131   -0.5034557785   -0.1434998608
 H    0.9138685282    1.7216168463    0.4982443886
 H   -1.2689391027   -1.4279330063    0.6606311983
 H   -2.0694439428    0.0404710505    0.0980163317
 H   -2.3590387735   -0.9962168866   -1.9100402923
 H    0.2626863325   -3.0247957064   -0.2222598803
 H    0.9254803808   -3.4658858802   -1.8003125962
 H    2.4478729744   -1.8555125975   -0.9414232925
 H    1.4909364032   -0.9738627687   -2.1414914651