19

 C    0.3116986600    1.5816843269   -0.4986762715
 C    0.0397832430    0.1241025179   -0.1981388161
 C   -1.3773365101   -0.3854555653   -0.4206039498
 C   -2.3701179293    0.1435547080    0.6354049329
 O   -2.6364771084    1.5124264263    0.4823716101
 C   -3.6632081435   -0.6428126088    0.5840375487
 O   -4.7315553408   -0.1009067517    0.4320981604
 C    1.1470081404   -0.8447853537   -0.2300833987
 O    0.6287361552   -0.3714316078    1.0167413364
 H    1.3488912332    1.8283238798   -0.2588239623
 H    0.1387772713    1.7907959433   -1.5599830976
 H   -0.3533507488    2.2264570359    0.0792308293
 H   -1.7348044081   -0.0977566689   -1.4157778971
 H   -1.3663524096   -1.4803490134   -0.3690674157
 H   -1.9223226724   -0.0572890835    1.6258764455
 H   -3.6012628208    1.5833639004    0.4009373973
 H   -3.5767219581   -1.7427985009    0.6968499779
 H    0.9491523302   -1.8932479417   -0.4519101086
 H    2.1527151567   -0.5050608929   -0.4750574412