17

 C    0.1694784997    1.4156840462   -0.1257631108
 N    0.3815012196   -0.0249333709   -0.1438799464
 C    0.5657098666   -0.6294611662    0.9342517602
 O    0.6192270637   -0.1473402144    2.2435939305
 C    0.9060886515   -1.4804695601    2.7617186507
 C   -0.3722503033   -2.2288120228    3.1920797577
 C   -0.5071718777   -2.8104297983    1.7487854315
 C    0.8006806908   -2.0668489232    1.3261092640
 H    0.8976592570    1.8924879401   -0.7908898713
 H   -0.8242893549    1.6372733477   -0.5313063837
 H    0.2502065484    1.8687476883    0.8692405185
 H    1.7933396511   -1.4778035653    3.3945054480
 H   -0.1902810428   -2.9929254922    3.9517808437
 H   -1.1732213482   -1.5715343313    3.5355633910
 H   -0.3995441808   -3.8959997461    1.7141971786
 H   -1.3989807870   -2.5311228446    1.1853173695
 H    1.5763503763   -2.6194429269    0.8004223983