19

 C   -0.0539359911    1.5413284537   -0.3137753756
 C   -0.0053097446    0.1322024527    0.2695657779
 N   -1.3192734809   -0.5021070766    0.1807157824
 C   -1.6195612137   -1.2519752409   -1.0351044958
 C   -1.3844316529   -1.9420875206    0.2588270480
 C   -0.2937703218   -2.9770584435    0.6284986255
 N   -1.3300408572   -3.6317041850    1.4354363906
 C   -2.3541053175   -2.7571160525    1.1234520918
 O   -3.5169615235   -2.7178718936    1.4145709510
 H    0.9189103777    2.0320489304   -0.2141491499
 H   -0.3137202257    1.5160068724   -1.3769476426
 H   -0.8051361159    2.1439408711    0.2036682755
 H    0.7744161431   -0.4592319766   -0.2432803755
 H    0.2694252711    0.1749534305    1.3300174997
 H   -2.6301811948   -1.1523442291   -1.4210044544
 H   -0.8364153010   -1.3457625467   -1.7882615599
 H    0.0813427999   -3.5804233992   -0.2045533812
 H    0.5472081730   -2.5897997950    1.2127487023
 H   -1.3448249642   -4.5314208216    1.8902139505