12

 C   -0.1272592901   -1.2405833780   -0.1645614853
 C   -0.0626858751   -0.0435639941   -0.0706449346
 C    0.0305261932    1.3936228229    0.0593528428
 C   -0.0911004159    2.0268151570    1.4750335805
 O    1.1286708223    2.7677838073    1.2916938779
 C    1.4389940040    2.0536172764    0.0816697879
 H   -0.1882671148   -2.2971276437   -0.2518158940
 H   -0.6310670647    1.8872238946   -0.6576677313
 H   -0.9533570340    2.6804475436    1.6435489902
 H   -0.0164217305    1.2970377300    2.2904407522
 H    2.2577229413    1.3368729713    0.2195173446
 H    1.6745511844    2.7264816129   -0.7495244410