17

 C    0.6875696867    1.1682130242    0.5239424248
 C    0.2948831964   -0.2010033705    0.2178489166
 C   -0.0430511949   -1.3334917164   -0.0214981337
 C   -0.4705703926   -2.6988225909   -0.3172533174
 C   -1.9467347039   -2.7680535634   -0.7625079374
 C    0.4116372445   -3.4451721554   -1.3521780024
 N    1.5363378919   -2.7998501730   -1.7472703279
 O    0.0969802176   -4.5514217277   -1.7460676491
 H    1.6266974897    1.1990808320    1.0872351269
 H    0.8266031404    1.7588910375   -0.3881967873
 H   -0.0762698566    1.6700780059    1.1279734630
 H   -0.3712439220   -3.3004283408    0.5971704248
 H   -2.1955380649   -3.8022863950   -1.0051914867
 H   -2.6022510448   -2.4084526704    0.0339686435
 H   -2.1109315314   -2.1487960658   -1.6488154085
 H    1.7365081317   -1.8671859512   -1.4283007951
 H    2.1356597421   -3.2477753591   -2.4200170041