23

 C    0.5239183669    1.5044418384    0.1069260779
 C    0.2167556584    0.0054345038    0.0359053622
 C    0.7155687873   -0.7593991268    1.2680101326
 C    0.4851647069   -2.2729511805    1.2145289281
 O   -0.8893775156   -2.6008956469    1.1108325643
 C    1.4471708164   -3.0363155774    0.2407155667
 C    2.3156229508   -3.4406050350    1.4523674299
 O    3.4412386683   -2.5784371997    1.5276452493
 C    1.1435011424   -3.0393465150    2.3907592128
 H    1.6028295945    1.6811291068    0.1744587736
 H    0.1527751695    2.0319280362   -0.7773097294
 H    0.0591366842    1.9607379925    0.9878412329
 H   -0.8692608395   -0.1251456782   -0.0699923303
 H    0.6702413311   -0.4165738415   -0.8704778856
 H    1.7896891901   -0.5861326694    1.3970116043
 H    0.2143481740   -0.3708888529    2.1648511061
 H   -1.2449740628   -2.1670148047    0.3281406670
 H    0.9394486667   -3.8950021291   -0.2039677742
 H    1.9654989796   -2.4663177389   -0.5338329880
 H    2.6296316252   -4.4909565116    1.4974092266
 H    3.8340784467   -2.6830661523    2.4004989705
 H    1.4009066263   -2.4632398662    3.2846871860
 H    0.5291759526   -3.8979513315    2.6727371269