20

 C    0.0088695313    1.3495232918    0.0924956239
 O   -0.0477694127   -0.0552458031   -0.0163701577
 C    0.6671591153   -0.5524223460   -1.1162632921
 C    0.6240606357   -2.0861756100   -1.0546492505
 C    1.2208730696   -2.7230014991   -2.3181070531
 O    0.9852594240   -4.1046713889   -2.2585027034
 C    1.5814157157   -4.8150000256   -3.3207966122
 C    1.3107976328   -2.5754511350    0.1453952799
 N    1.8770127049   -2.9487960119    1.0804320890
 H    1.0432191910    1.7052287299    0.2142888919
 H   -0.4267421704    1.8444129959   -0.7896008061
 H   -0.5685554169    1.6278061821    0.9763950137
 H    0.2156729851   -0.2177336387   -2.0656379347
 H    1.7118225958   -0.2009147401   -1.1023231416
 H   -0.4266491802   -2.3906590946   -0.9888283173
 H    0.7411736336   -2.2778081648   -3.2062838289
 H    2.3000248244   -2.5066884262   -2.3790445915
 H    1.1895570915   -4.4915215731   -4.2978205284
 H    2.6750176715   -4.6915992582   -3.3275994743
 H    1.3442737581   -5.8708580144   -3.1756522467