21

 C   -0.0188715455    1.5277766094    0.0599468453
 C   -0.0287153651   -0.0078186764   -0.0128807236
 C   -1.4829119414   -0.5066089093    0.0438541941
 C    0.7397208407   -0.5311944056   -1.2533872720
 C    2.1751078491    0.0126265482   -1.3369009041
 C    0.7718342216   -2.0636898684   -1.2996005664
 O    1.4109907589   -2.4636512393   -2.5063681945
 H    0.9907145101    1.9339789085    0.1548880160
 H   -0.4735955376    1.9648135872   -0.8375916751
 H   -0.5959308407    1.8742644608    0.9235354169
 H    0.4924606272   -0.3857314127    0.8801810491
 H   -2.0277277917   -0.2281989387   -0.8664479684
 H   -1.5557989258   -1.5911531901    0.1577120139
 H   -2.0086687280   -0.0562947642    0.8922271565
 H    0.1952982253   -0.2018103608   -2.1508323639
 H    2.7138718580   -0.4819173028   -2.1471753965
 H    2.1958489842    1.0889519059   -1.5226751131
 H    2.7190935399   -0.1781190183   -0.4029720207
 H    1.3176511709   -2.4429424734   -0.4182309156
 H   -0.2462396569   -2.4728188526   -1.2588156447
 H    1.4433827567   -3.4241169174   -2.5229656634