18

 C   -0.2696890206    1.4926166890    0.0476160129
 C   -0.1326468396    0.0061100508   -0.0165282909
 C   -0.1469142488   -0.7853575249   -1.0904930046
 C    0.1190383489   -2.2356018246   -0.7690679933
 O    1.4021038431   -2.6591967215   -1.2184768591
 C   -0.0642951979   -2.2881854392    0.7694468761
 C    0.0854028616   -0.8175387993    1.2577451700
 C    1.4003884789   -0.5288376097    1.8402715731
 N    2.4481929211   -0.2954206623    2.2707199561
 H    0.6093445355    1.9454769855    0.5218885615
 H   -0.3855308299    1.9261390607   -0.9484090436
 H   -1.1379926939    1.7836789606    0.6520120477
 H   -0.2608315601   -0.4365174118   -2.1111155233
 H   -0.5771292760   -2.9167467793   -1.2680650244
 H    2.0487548765   -2.0082485551   -0.9216387745
 H   -1.0726798767   -2.6323488275    1.0137680440
 H    0.6489722161   -2.9729377789    1.2304452071
 H   -0.6649922982   -0.5756835324    2.0198949253