20

 C   -0.0603170388    1.5317207869   -0.1998537403
 C   -0.0406860866    0.0163306418   -0.0000689653
 C   -1.4103396594   -0.6017980938   -0.2716362665
 N    1.0577413670   -0.6542826988   -0.7453852685
 C    1.7525489768   -1.0539923375    0.3603939483
 O    2.8369143132   -1.5628829052    0.5283053501
 C    0.6671504958   -0.5139363883    1.3053828066
 C    1.2492692127    0.4087392050    2.3774943219
 O    2.0941937395   -0.3388893462    3.2297519380
 H    0.9296291423    1.9716537761   -0.0598854105
 H   -0.3985845446    1.7776788443   -1.2126997458
 H   -0.7532139499    2.0064069473    0.5022184077
 H   -1.7414429698   -0.3858354800   -1.2935167180
 H   -1.3802739097   -1.6874031068   -0.1447550161
 H   -2.1598607284   -0.1930402704    0.4139289443
 H    1.3268576886   -0.6155074984   -1.7189468142
 H    0.1030447836   -1.3146044208    1.7914985614
 H    1.7896598500    1.2480292814    1.9130707848
 H    0.4596531271    0.8356531757    3.0053201392
 H    2.7200020906   -0.8087509422    2.6597843929