18

 C   -0.0243207180    1.4764909153    0.1310713100
 C    1.4814824372    1.5935773957   -0.1131733475
 N    2.1145880761    0.9065436339    1.0337423443
 C    1.6500068890    0.1116924727   -0.1295160920
 C    0.1321853465   -0.0969786664    0.0227154724
 O   -0.3065514960   -0.8661355176    1.1281815189
 C   -1.1900742412   -1.9010833896    0.7060417808
 C   -1.2895217923   -1.7432500166   -0.7845069200
 C   -0.5389541759   -0.7178613046   -1.1684788594
 H   -0.3526418907    1.8270771029    1.1111933257
 H   -0.6569899309    1.8927609554   -0.6558418340
 H    2.0086689370    2.3491306604   -0.6809141712
 H    3.1246896509    1.0025187277    0.9261881779
 H    2.3399302431   -0.5162012731   -0.6820842107
 H   -0.7869704602   -2.8827131427    1.0006930826
 H   -2.1642432304   -1.7893463544    1.2073657180
 H   -1.8944488310   -2.3833675827   -1.4139790191
 H   -0.4006967532   -0.3467753465   -2.1759828466