15

 O   -0.0606046653    1.4423734806   -0.0438773461
 C    0.0146160606    0.0490597191    0.0045415760
 C    0.0128787798   -0.6683700187    1.4122104496
 C   -1.4573439383   -0.1735701922    1.4752515266
 O   -2.2293358234    0.3031190970    2.2385247921
 C   -1.3723085807   -0.6624675412    0.0001443654
 C   -0.5974478660   -1.8439062858    0.6229374293
 C   -0.0816247972   -3.1035473387    0.1085927206
 O   -1.1154334765   -3.0385551832    1.1250851530
 H    0.7987146950    1.8075362249    0.1904664753
 H    0.7374577594   -0.3706850470   -0.7038053714
 H    0.7911812996   -0.6849836991    2.1710413434
 H   -2.1183721386   -0.6696502669   -0.7892676880
 H   -0.4133501173   -3.4771075954   -0.8582786201
 H    0.8767183789   -3.4859029436    0.4549365143