20

 C   -0.1230517270    1.5697027332    0.0627527507
 C    0.0219126358    0.0430176144   -0.0341925050
 C    0.8519322246   -0.4731523418   -1.1795800451
 C    1.8656456912   -1.2090808634   -0.7054474905
 C    2.9442655820   -1.9261217846   -1.4455774403
 N    1.8226021171   -1.2611196107    0.7090227263
 C    2.7615926938   -1.9315652365    1.5802799268
 C    0.7538325671   -0.5249520231    1.1922393535
 O    0.4803853566   -0.3643297321    2.3633097114
 H    0.8568412679    2.0560320177    0.0382116591
 H   -0.7160198320    1.9578316278   -0.7704509275
 H   -0.6166121411    1.8356928721    1.0014181757
 H   -0.9839733134   -0.4004331507   -0.0395507773
 H    0.6562694022   -0.2801862328   -2.2242069928
 H    2.8212061640   -1.7758937394   -2.5199732842
 H    3.9397912533   -1.5651848095   -1.1616586436
 H    2.9242573737   -3.0041019720   -1.2465953047
 H    3.7777336461   -1.5382083197    1.4631989292
 H    2.4261233735   -1.7483364001    2.6027611683
 H    2.7822295446   -3.0119664786    1.3995496100