18

 C    0.0041436139    1.5053463166   -0.0281039034
 C    0.0175017999    0.0019956495   -0.0321803643
 C    0.5592003329   -0.9515294954   -1.1269659828
 C    0.0270969201   -1.8900860033   -0.0225589677
 C    0.6293015262   -0.9482237724    1.0806594152
 C   -0.3441630018   -0.9467218459    2.2462588419
 C   -1.5449686258   -0.9558750750    1.6600020330
 C   -1.2245728687   -0.9622387093    0.1755628454
 H    1.0204206055    1.9087172417   -0.0985906670
 H   -0.5699025104    1.8966877507   -0.8753448861
 H   -0.4494892159    1.8832533976    0.8948200313
 H    0.0226023464   -0.9578181300   -2.0810428531
 H    1.6415169261   -0.9455982645   -1.2906585799
 H    0.0271856242   -2.9831590609   -0.0058196675
 H    1.7063495093   -0.9421443813    1.2576292293
 H   -0.0899858223   -0.9345951733    3.2969220016
 H   -2.5298314196   -0.9531828844    2.1057419682
 H   -2.0265287200   -0.9703624205   -0.5648344040