18

 C    0.0260048253    1.5255736602   -0.0774172048
 C   -0.0171380581   -0.0079969446    0.0235593030
 O    0.5665065278   -0.4424901059    1.2501854055
 C   -1.4679047458   -0.5116341446   -0.0207938388
 O   -2.1054151631   -0.0138844055    1.1521953853
 C    0.7963583974   -0.6726798533   -1.1002391058
 C    2.2596984445   -0.2788755870   -1.0867013896
 O    2.8709141145    0.0876840525   -2.0587025832
 H    1.0497881801    1.8852339191    0.0551955591
 H   -0.3365423625    1.8692397696   -1.0518646634
 H   -0.6018141983    1.9709319869    0.6982093004
 H   -0.0876235370   -0.2471680748    1.9335326325
 H   -1.9728141700   -0.1571362972   -0.9313091215
 H   -1.4638248768   -1.6104419016   -0.0273863560
 H   -2.9349095106   -0.4822027374    1.2776691248
 H    0.7560194606   -1.7601889780   -0.9481951291
 H    0.3815629723   -0.4408839025   -2.0851258525
 H    2.7492658597   -0.3691627856   -0.0947663759