18

 C    0.0763602921   -1.2388502906    0.4714413003
 C   -0.0270351693   -0.1018664016    0.0931124250
 C   -0.1241002900    1.2830238620   -0.3621891233
 C    1.2465906644    1.9874479178   -0.3244355514
 C    1.8717568195    2.9312576997   -1.3211819407
 C    0.9499393917    4.0774935223   -1.8220287120
 N   -0.4087143227    3.9090432394   -1.2417598178
 C    0.6883463981    4.5121369146   -0.4393687830
 C    1.5989068250    3.3846975062    0.1212226852
 H    0.1540320378   -2.2440728857    0.8033195969
 H   -0.5345346128    1.3109414594   -1.3747423475
 H   -0.8439023468    1.8254234809    0.2559802353
 H    2.0173631520    1.3080772231    0.0348733552
 H    2.8274828927    2.7233668734   -1.7863262598
 H    1.1077533643    4.6559779848   -2.7225360814
 H   -0.9763984528    4.6809078965   -1.5917846640
 H    0.5964978187    5.5053851350   -0.0204604053
 H    2.3174529782    3.5710409629    0.9098651681