20

 C    0.3262355875    1.6521582122   -0.2199715465
 C    0.0673452277    0.1629141053   -0.0478342473
 C    0.9268375433   -0.8593284846   -0.8589989309
 C    1.1302681133   -1.7103444267    0.4262004205
 C    2.4986697759   -1.4565227875    1.1336520199
 C    1.8557488034   -0.2324390124    1.8806887004
 C    0.4659309779   -0.5653653991    1.2671091512
 C    2.9365576097   -2.5291301425    2.0118598550
 N    3.2668896155   -3.3863475385    2.7148496096
 H    1.3824976992    1.9042497450   -0.0768609185
 H    0.0485358880    1.9796828521   -1.2278451029
 H   -0.2578115164    2.2433635158    0.4941239620
 H   -0.9935861356   -0.0367231690   -0.2343849340
 H    0.4064090352   -1.3638145944   -1.6756747190
 H    1.8577059753   -0.4436079943   -1.2595465752
 H    0.7667758176   -2.7366919473    0.4079210945
 H    3.3176028866   -1.2084145555    0.4515669705
 H    1.8952165117   -0.3232034715    2.9666356641
 H    2.2854841932    0.7312809981    1.6009697461
 H   -0.3276867290   -0.7437509452    1.9933732005