23

 C   -0.0423888585    1.5865346861   -0.0487922710
 C    0.0206719312    0.0546102558   -0.0351686419
 C    0.6192310756   -0.5222521994   -1.3294588617
 C    0.7288988645   -2.0502090262   -1.2592608039
 C    1.7184072394   -2.4701118116   -0.1631088263
 C    1.3662288885   -1.8874341160    1.2160869459
 O    2.5427506683   -1.3767232255    1.8988212357
 C    2.1601895610   -0.0164707723    1.6068339314
 C    0.7353647782   -0.4677901229    1.2157925781
 H    0.9607803410    2.0236623094   -0.1110780625
 H   -0.6145967835    1.9492423089   -0.9090822653
 H   -0.5188403614    1.9742988500    0.8581360067
 H   -1.0129255368   -0.3192402010    0.0192230183
 H   -0.0040787436   -0.2183588205   -2.1787329921
 H    1.6160563829   -0.0946984209   -1.5092265799
 H   -0.2639701213   -2.4785546122   -1.0622092610
 H    1.0541347673   -2.4564593255   -2.2231536688
 H    1.7950350152   -3.5608301556   -0.1027316298
 H    2.7167897346   -2.1023458395   -0.4269565824
 H    0.8501953952   -2.6290727145    1.8362160613
 H    2.2599928951    0.6373989818    2.4796870161
 H    2.7528253576    0.4051094387    0.7812974779
 H    0.0763642796   -0.3539338272    2.0817946551