18

 C   -0.1411945446    1.5605621833   -0.1719408864
 C   -0.0092891946    0.0554423542   -0.0479911596
 O   -1.2437585302   -0.5756589760    0.2255368020
 C    0.6558334824   -0.7069962796   -1.2034288335
 N    2.0268758086   -0.1628745059   -1.3281806663
 C    1.7422210189   -1.2167174504   -0.3316301148
 C    1.1553164954   -0.5161513606    0.9076474799
 C    1.9928949746    0.3836956386    1.6703937281
 C    2.6674843973    1.1430817490    2.3151114846
 H    0.8098123558    2.0003400567   -0.4762042299
 H   -0.9089990780    1.8071866807   -0.9121064924
 H   -0.4261784530    2.0042875628    0.7896272001
 H   -1.6636805872   -0.1027857506    0.9524130642
 H    0.1405444802   -1.1738342047   -2.0332785736
 H    2.4604584040   -0.6142668273   -2.1324837912
 H    2.2707609664   -2.1614567070   -0.3470464407
 H    0.6753931056   -1.2537266645    1.5574076288
 H    3.2752493682    1.8099455313    2.8745830809