19

 N    0.1089660232    1.3600901956   -0.3603376299
 C    0.0437476351    0.0193031896    0.1904152192
 C   -1.3332733967   -0.6880697261    0.0646407527
 O   -1.6732655970   -0.6498386518   -1.3075554272
 C   -1.2638790451   -2.1372255747    0.5955276850
 C   -2.6055141461   -2.8620156852    0.6210111840
 O   -3.1209179115   -2.9027486820   -0.7155910469
 C   -2.3342246979    0.0849438817    0.8507845842
 N   -3.1075437231    0.6860593959    1.4656545093
 H   -0.2463064271    1.3418716039   -1.3120645586
 H   -0.4987897327    1.9837078233    0.1638329987
 H    0.7612543666   -0.6163806518   -0.3409912231
 H    0.3369062592    0.0449866337    1.2453443646
 H   -2.3704134769   -1.3120873374   -1.4416946607
 H   -0.5659268349   -2.6793960275   -0.0514712840
 H   -0.8511717590   -2.1381301652    1.6103754060
 H   -2.4678116619   -3.8812994418    1.0073860374
 H   -3.3024943883   -2.3364660056    1.2867667980
 H   -4.0550265659   -3.1284461148   -0.6813999887