11

 O   -0.0667225588   -0.0167647530   -0.0015295639
 C    0.0064922202    1.1819812411    0.0077490787
 C    1.2836254614    1.9625878768    0.0007853384
 C    1.2608330150    3.3590258843    0.0123159271
 N    2.3864064423    4.0623942258    0.0060256421
 C    3.4945134575    3.3186188515   -0.0120730386
 N    3.5698710263    1.9811520532   -0.0229411468
 N    2.4426524368    1.2914821681   -0.0166721876
 H   -0.9017023007    1.8256196415    0.0224457283
 H    0.3215408902    3.9094362241    0.0264894844
 H    4.4474026999    3.8393302967   -0.0164985922