19

 C   -0.0490012324    1.5519793769   -0.0823475270
 C    0.0060013827    0.0371442949    0.0101949941
 O   -1.2737901751   -0.5609430387   -0.0942259005
 C    1.0635256571   -0.6709182899   -0.8916541787
 O    2.3518941749   -0.1881277896   -0.5029696498
 C    1.7448625776   -1.2379889800    0.2786094115
 C    0.7565823139   -0.5900635391    1.2219989096
 C    0.9819029399   -0.0370474162    2.5960474943
 C    0.0873129700   -1.2385880488    2.3929284292
 H    0.9585561465    1.9695964103   -0.0286801416
 H   -0.5009830877    1.8682992609   -1.0313715989
 H   -0.6502739334    1.9666224576    0.7332063147
 H   -1.7303908252   -0.1502969940   -0.8368518900
 H    0.9365982972   -1.0543683291   -1.8986074116
 H    2.3074319192   -2.1571164530    0.3960366750
 H    1.9550349264   -0.1841852461    3.0531265737
 H    0.5128414123    0.9097740385    2.8446492328
 H   -0.9852433568   -1.1081272756    2.4802491213
 H    0.4500897130   -2.2101346391    2.7134212220