14

 C   -0.1097043371    1.4388708161    0.1198235719
 O   -0.0464540062    0.0123005545    0.0341940018
 C    0.5294367429   -0.5290259251   -1.1085006129
 C    2.0769324428   -0.3322708059   -1.1986819640
 O    2.6988084879    0.2507759588   -0.3612920375
 C    0.3100619614   -2.0677373313   -1.0020487249
 O    0.7018874576   -2.8458665421   -1.8204049874
 C   -0.0585809669   -0.0439197607   -2.3706718357
 N   -0.5081051212    0.3667994047   -3.3531435861
 H    0.8894863514    1.8798457376    0.1438470242
 H   -0.6857182735    1.8554205298   -0.7149596083
 H   -0.6269311732    1.6523187114    1.0559369343
 H    2.5296648449   -0.8116596972   -2.0885679482
 H   -0.2164377207   -2.3392446108   -0.0662827171