17

 N    0.2361690944    1.0445114217    0.1594406452
 C   -0.6481044923    0.0189189886    0.4168992906
 O   -1.3910981540    0.0493605427    1.3842848751
 N   -0.5440853588   -1.0190817228   -0.4871875584
 C   -1.2418226189   -2.2266930452   -0.6852359500
 N   -0.9311079859   -2.7987684161   -1.7874053300
 C   -2.2024361363   -2.8332363186    0.2851330486
 C   -2.0102780090   -2.8707017242    1.7660564041
 N   -3.1397082765   -2.1478553130    1.1876980034
 H    0.0593389448    1.8767091214    0.6986498010
 H    0.5991187659    1.1926517297   -0.7681242766
 H    0.1121170462   -0.9018523201   -1.2475301205
 H   -1.4352553953   -3.6763027179   -1.8929569168
 H   -2.6435909562   -3.7188921041   -0.1658585762
 H   -2.2491126446   -3.7928738107    2.2889746365
 H   -1.2031097803   -2.2828609428    2.1903285512
 H   -2.9025664131   -1.1568862485    1.2288041227