20

 C    0.3462147192    1.5650463593   -0.0882603332
 C   -0.0518424521    0.0907538996    0.0507516578
 C    0.3952819024   -0.7601940971   -1.1637981503
 C    1.5308685696   -1.6728108797   -0.6818543493
 O    2.2782645784   -2.2957257851   -1.3952804446
 C    1.6122111842   -1.6046633230    0.8175520276
 C    0.6425299740   -0.5400048488    1.2662899105
 N    0.4116495782   -1.9227759600    1.5960625640
 C   -0.7040313379   -2.7110281846    1.0896010223
 H    1.4295823644    1.6695480079   -0.2169127555
 H   -0.1395556950    2.0213318507   -0.9561376583
 H    0.0580873955    2.1381273221    0.7991369216
 H   -1.1393212843    0.0381393947    0.1815945475
 H   -0.4065865953   -1.3710796265   -1.5930065842
 H    0.7782940178   -0.1416896871   -1.9815068484
 H    2.5638301821   -1.8330052544    1.2881601954
 H    0.8701857727    0.1085616293    2.1102377749
 H   -1.1025015417   -2.4189881196    0.1092239345
 H   -0.3917044944   -3.7575117402    1.0331357582
 H   -1.5205138978   -2.6419953276    1.8154816495