15

 C    0.0998538738    1.4096111112   -0.0155974504
 O    1.2396757630    0.5307930889    0.0064787455
 C   -0.0450657680   -0.0427090155    0.0015815637
 C   -0.6753638575   -0.8861498526    1.0765193647
 C   -1.5690291015   -1.5060356591    0.0522699181
 C   -0.6473713189   -0.9675755653   -1.0899755454
 N    0.3553107032   -2.0248961825   -1.3284119528
 C    0.3696972034   -2.6927386591   -0.2482810556
 N   -0.6117367951   -2.3664540383    0.7553252334
 H   -0.0619167824    1.9869602200    0.8939452137
 H   -0.0505293999    1.9553907365   -0.9459947004
 H   -0.8404896902   -0.6337208857    2.1160498148
 H   -2.6304334189   -1.7193684687    0.0666793419
 H   -1.0487823550   -0.5290027344   -1.9998835097
 H    1.0643998741   -3.4981668254   -0.0366884115