17

 C    0.0257659276    1.5134974358   -0.0390350861
 C    0.0112965010    0.0171768521   -0.0616599559
 C   -0.2260134995   -0.8618849829   -1.0985549656
 C    0.0483736116   -1.3682801255   -2.5022329001
 C    1.4046453650   -2.0649638728   -2.4652157387
 C    0.2065589706   -2.7501082953   -1.8640252802
 N   -0.1609618545   -2.1252729389   -0.5851333195
 N    0.2165469720   -2.1702783347    0.7116292737
 C    0.2277669294   -0.8755280357    1.0396099579
 H    0.7614302031    1.8890817918    0.6791103791
 H    0.2783060099    1.9237713073   -1.0214188896
 H   -0.9470890627    1.9316180034    0.2470009029
 H   -0.4644655105   -1.1163763154   -3.4193046632
 H    1.7539491481   -2.4777797868   -3.4086542469
 H    2.1858394937   -1.6827581045   -1.8163785564
 H   -0.1873171369   -3.7112628280   -2.1645943103
 H    0.3797632121   -0.5929263900    2.0738385690