16

 N   -0.0162661187   -3.6931178588   -0.2626925806
 C   -0.0153062348   -2.5352000517   -0.1682718453
 C   -0.0128539871   -1.1746210389   -0.0568260725
 C   -0.0151032471    0.0297191171    0.0426106521
 C    0.0155390655    1.4779082299    0.1642026291
 C    1.4432729336    2.0460383551    0.1494029106
 C    2.1593925674    2.0364536984   -1.2194931369
 O    2.0741248388    3.4731120049   -1.3213176822
 C    1.5283997267    3.5821378029    0.0068208680
 H   -0.5628629299    1.9208347760   -0.6576036669
 H   -0.4904417594    1.7711710475    1.0935285711
 H    2.0204467750    1.6233385172    0.9734214924
 H    3.1987278154    1.6870798164   -1.1970929678
 H    1.6318752761    1.5304863276   -2.0373919052
 H    0.5725430753    4.1219414283    0.0192527648
 H    2.2224599533    4.0736981581    0.7000276693