23

 C    0.0198542578    1.5292833028   -0.1068406823
 C   -0.1577517417    0.0385184814    0.1755554200
 C    0.7667972579   -0.4780743555    1.2743235808
 O    1.3825323055    0.2935185174    1.9784687277
 C    0.9042826748   -2.0005516269    1.4569045762
 C   -0.4704626047   -2.6983731521    1.4366876867
 C    1.7915120004   -2.5485098754    0.3135818197
 C    1.6005815466   -2.2564416885    2.8052143816
 O    1.7416964898   -3.6627621193    2.9726821009
 H    1.0286524468    1.7424975370   -0.4714217920
 H   -0.6967967024    1.8669967148   -0.8607400322
 H   -0.1257756984    2.1153527771    0.8031250071
 H   -1.1878026151   -0.1711973309    0.4951123587
 H   -0.0146432732   -0.5605984635   -0.7313704991
 H   -0.9576606090   -2.6095901837    0.4620489825
 H   -0.3391192048   -3.7593741622    1.6595009927
 H   -1.1417847712   -2.2781905434    2.1939073911
 H    2.7477546847   -2.0168847183    0.2683386019
 H    1.9990612209   -3.6050442711    0.4975643236
 H    1.3021226742   -2.4569165470   -0.6601339680
 H    2.5740211707   -1.7514504215    2.8133499881
 H    0.9993010816   -1.8185201777    3.6154346253
 H    2.2318601690   -3.8170929734    3.7845776790