17

 C   -0.1269104928    1.5505916843    0.0428040346
 C    0.0190399986    0.0136870851   -0.0019961294
 C    0.7742429872   -0.4498153193   -1.2659096381
 C    2.2654155571   -0.3061151000   -1.1681687812
 C    2.9420599996   -0.2163017462   -0.0137588255
 C    2.2715589845   -0.2763602114    1.2951262111
 O    2.8621436399   -0.2286465483    2.3514507632
 C    0.7266281367   -0.4452144725    1.2665198881
 O    0.1480166367   -0.8873453446    2.2259076235
 H    0.8467598486    2.0497998093    0.0273074433
 H   -0.6977336052    1.8963829446   -0.8243247029
 H   -0.6562903010    1.8620547406    0.9471618574
 H   -0.9808471069   -0.4295607580    0.0177400793
 H    0.5444041051   -1.5049410938   -1.4742483959
 H    0.4083756557    0.1030359473   -2.1396026631
 H    2.8146379578   -0.2944406035   -2.1073876684
 H    4.0239505184   -0.1271538637    0.0110573540