15

 C   -0.0254365405    1.4033661755    0.0347739435
 O   -0.0064972877   -0.0153074411    0.0204088006
 C    0.6006249786   -0.5733930363   -1.0450810797
 C    1.2087021899    0.0127234613   -2.1288523039
 O    1.6896071806   -0.9394648125   -2.9657484658
 C    1.3892295625   -2.1466378402   -2.4179764012
 C    1.7896143699   -3.3621844421   -3.1096512100
 O    2.3847100211   -3.4101856196   -4.1621936664
 C    0.7189880791   -1.9781975001   -1.2335977930
 H    0.9938851581    1.8113756349    0.0432332855
 H   -0.5633890279    1.7995225685   -0.8365674203
 H   -0.5433560895    1.6995121503    0.9474780087
 H    1.3696866342    1.0336030882   -2.4282100062
 H    1.4866416949   -4.2808530625   -2.5608512291
 H    0.3540311166   -2.7518545242   -0.5766224026