17

 C   -0.1080733147    1.6305262595   -0.0168522799
 C    0.0989702550    0.1574856039   -0.0341294773
 C    0.0808289360   -0.7623807103   -1.0700050289
 O   -0.1377189884   -0.4652115270   -2.3733247878
 N    0.2821055611   -2.0687039413   -0.6704454003
 C    0.3740210577   -1.9414273124    0.6344695423
 C    0.8671708110   -2.4764374920    1.9649694284
 C    0.8171046690   -0.9614004317    2.4074833149
 N    0.2424497353   -0.6737092931    1.0732420119
 H    0.7237352352    2.1655470983    0.4587274025
 H   -0.1890069274    1.9915251410   -1.0449276978
 H   -1.0259811442    1.9189516415    0.5110220275
 H   -0.0776451440   -1.3007984887   -2.8511995973
 H    0.1932453106   -3.1441963715    2.5073410492
 H    1.8717172109   -2.9063566181    1.9583733322
 H    0.1563128102   -0.7083339780    3.2404083787
 H    1.8025541866   -0.5139365900    2.5629316516