19

 C   -0.0917429565    1.4652491647    0.0414103615
 C    0.0418624017   -0.0278110472   -0.0007069666
 C    0.9196255697   -0.8921741387   -0.8892882755
 N    0.0754413404   -2.0970632858   -0.5249081644
 C    0.4096481410   -2.2538590555    0.9458531844
 C   -0.2850942593   -0.9341008871    1.2160096039
 C   -1.0255020144   -1.0865013847   -0.0869404103
 C   -2.4538445419   -1.1315935826   -0.5020683580
 H    0.7966173837    1.9345229502    0.4802537478
 H   -0.2251865327    1.8808971698   -0.9640699354
 H   -0.9544942274    1.7722930515    0.6427892582
 H    0.7907819923   -0.6654987483   -1.9523243259
 H    1.9886971404   -1.0007893472   -0.6676859030
 H   -0.1324767116   -3.1124419030    1.3522520864
 H    1.4795898776   -2.3641908405    1.1588559807
 H   -0.6452907142   -0.5085033715    2.1456446942
 H   -3.0038615406   -0.2900422871   -0.0673431798
 H   -2.5528423004   -1.0735304750   -1.5918145102
 H   -2.9379714878   -2.0571747421   -0.1711938779