19

 O    0.3272796879    0.3401509642    1.0320354643
 C   -0.1481176901    0.3526046832   -0.3100917405
 C   -1.4248570029   -0.4629479460   -0.3200451399
 C   -1.9744412967   -1.2055822252   -1.5707637037
 C   -0.8487900637   -2.2593934936   -1.4798072164
 C   -1.4154873830   -1.9966480271   -0.0595663235
 C   -1.2246943070   -2.7732847099    1.2076000759
 O   -1.4849052646   -4.1505742499    1.0073047625
 O   -2.7883715478   -2.0441411202   -0.6599638054
 H    1.1074056218    0.9005212758    1.0827861831
 H   -0.3714475976    1.3777805597   -0.6452756907
 H    0.6043392511   -0.0568218733   -0.9983490153
 H   -2.2168586968    0.0348750509    0.2446934532
 H   -2.4763821869   -0.7987713910   -2.4488805431
 H   -1.1026905312   -3.2343727511   -1.8946091682
 H    0.1792467767   -1.9667082155   -1.6991317614
 H   -0.1871311302   -2.6776856182    1.5418112363
 H   -1.8690035763   -2.3415993945    1.9895755092
 H   -2.3462893327   -4.2061926384    0.5770893938