13

 N   -0.0211643733    1.0614984434    0.1615163793
 C   -0.1808520935   -0.2714000614   -0.0656783496
 O    0.7020552534   -1.0912821628    0.0388221268
 C   -1.6032394021   -0.6530567484   -0.5154811049
 O   -1.6867423346   -2.0581338313   -0.7376575766
 C   -1.7357657561   -2.8065419757    0.3703897561
 O   -1.8281795988   -2.4136973063    1.4991692999
 C   -1.7075622308   -4.2279027984    0.0121799828
 N   -1.6999036890   -5.3608434981   -0.2098321985
 H    0.8607382987    1.3686168023    0.5399376912
 H   -0.8032617815    1.6914528060    0.2198419153
 H   -2.3367485180   -0.3417701608    0.2342543509
 H   -1.8389801843   -0.1912780186   -1.4763389326