20

 C   -0.1980732624    1.4004303254    0.0045269594
 N    0.2723015273    0.0266039796    0.0327661936
 C   -0.0591361487   -0.7115409330    1.2350570160
 C    0.1570296285   -0.6864552679   -1.1626752923
 C    0.0501493582   -2.0601153559   -1.3327438712
 N    0.0323826164   -2.2902555974   -2.6770852480
 C   -0.1282663883   -3.5605529348   -3.3470361797
 N    0.0959457533   -1.1588817509   -3.3907775234
 C    0.1727257084   -0.1816774105   -2.4880862281
 H    0.3080857253    1.9559890628   -0.7893214990
 H   -1.2866368473    1.4878529292   -0.1566839871
 H    0.0493145851    1.8830847223    0.9540821658
 H   -1.1142119990   -1.0376369857    1.2716485520
 H    0.5730985566   -1.6021620302    1.3118404198
 H    0.1381908298   -0.0868270278    2.1102182033
 H   -0.0094949706   -2.8696094576   -0.6250373959
 H   -1.1566956583   -3.9312905453   -3.2657235290
 H    0.1141406159   -3.4097732770   -4.3987244347
 H    0.5505594004   -4.3047367456   -2.9202560256
 H    0.2429077295    0.8426307104   -2.8193127756