18

 C   -0.2117705350    1.5477740518   -0.0613586134
 C    0.0394407414    0.0513363260    0.0229598688
 O    0.8686081935   -0.3979947036   -1.0796759702
 C    1.8864545022   -1.1913107981   -0.4595863363
 O    1.2655176877   -1.7472716507    0.6765058904
 C    0.8390210281   -0.4982819909    1.2396921362
 C    2.1509988792    0.2900185855    1.3256501932
 N    3.3411794027   -0.5725615112    1.4890056669
 C    2.8901251763   -0.1930039164    0.1349905151
 H    0.7217464948    2.1150527105   -0.0470220261
 H   -0.7345543969    1.7853664135   -0.9918658247
 H   -0.8410815868    1.8787922219    0.7721360847
 H   -0.9155803394   -0.4873730492   -0.0305591938
 H    2.2356607136   -1.9651724883   -1.1413700492
 H    0.2721491145   -0.6677510324    2.1537250624
 H    2.1679621536    1.3205356667    1.6562293083
 H    4.1249029422    0.0281935067    1.7378981162
 H    3.4787169284    0.4484485882   -0.5089229984