17

 C    0.0246979291    1.5353766973    0.0310493075
 C    0.0369917810    0.0073955110   -0.0174406687
 C   -1.2895032665   -0.5609089143    0.1763453131
 C   -2.3895850200   -1.0117837067    0.3589996336
 C    0.7895922530   -0.6930856587   -1.1680880160
 C    2.2553996654   -0.7540924064   -0.7008354824
 O    2.3477829110   -0.0953073991    0.5643880355
 C    1.0921164638   -0.7396953518    0.8919487292
 C    1.2962124741   -1.7983134718   -0.2510779650
 H    1.0472979201    1.9142211511   -0.0139093246
 H   -0.5443783908    1.9391712798   -0.8119273298
 H   -0.4453709457    1.8912296290    0.9530784257
 H   -3.3615497205   -1.4104012607    0.5134873772
 H    0.4912877787   -0.7628195679   -2.2062705876
 H    3.1174649292   -0.7694750039   -1.3539319104
 H    0.9289869488   -0.8899298858    1.9564559095
 H    1.2661781593   -2.8764305810   -0.3041683569