16

 C    0.0668395885    1.4243844474    0.0254290593
 N    0.0161858303   -0.0282303808    0.1086864763
 C   -1.2319960588   -0.6224668552    0.0397415116
 C   -2.5141960626   -0.1078264787    0.0424242969
 C   -3.3586740078   -1.2509966122    0.0217652309
 C   -4.8300460099   -1.2320138795    0.0105769346
 O   -5.5527385764   -2.1981409868   -0.0294941098
 N   -2.6618640692   -2.3885811664    0.0033682383
 N   -1.3799705679   -1.9798905172    0.0214319825
 H    1.1078682314    1.7457738972    0.0971452421
 H   -0.3652329813    1.8256987328   -0.9035595746
 H   -0.4787303759    1.8548724948    0.8702909112
 H    0.7115880576   -0.4810234370   -0.4689751959
 H   -2.8062444462    0.9288481334    0.0440084511
 H   -5.2492744702   -0.1996999508    0.0439037119
 H   -0.6492085117   -2.6721541610    0.0567071135