17

 C    0.1492202612    1.4616314121    0.0091256275
 C   -0.0502920386   -0.0112868789   -0.0048959537
 C   -1.1667083619   -0.8121747722    0.0431188838
 C   -2.6012323044   -0.3883795391    0.1295878273
 C   -0.6730249464   -2.1485434771   -0.0069204318
 C    0.6926899929   -2.0724172808   -0.0810429185
 O    1.0750065018   -0.7623977722   -0.0798557172
 C    1.6985850953   -3.1143668094   -0.1546372162
 O    2.8964502793   -2.9436559527   -0.2182110223
 H    0.7624056073    1.7667636265    0.8641577710
 H    0.6646543715    1.7967663442   -0.8976302412
 H   -0.8092872952    1.9796249048    0.0711164839
 H   -3.1777875257   -0.7528474960   -0.7278169511
 H   -3.0806712231   -0.7832564099    1.0321407231
 H   -2.6997894751    0.6996353421    0.1538149243
 H   -1.2550799689   -3.0584998711    0.0098327842
 H    1.2493240102   -4.1325240404   -0.1470807131