20

 C   -0.1631601506    1.4774575264    0.1345949951
 C   -0.0561349218    0.0300454206    0.0355735215
 C    0.0217833631   -1.1701949501   -0.0498339938
 C    0.1573062149   -2.5861452608   -0.1311459262
 C   -0.2848618292   -3.3994557605   -1.2889610397
 N   -1.0251214429   -3.5773158500   -0.0318771748
 C   -0.1653823559   -4.4298157092    0.8778574995
 C    0.0029650422   -5.8888534076    0.4915838918
 C    1.0327749413   -3.4450088131    0.7915639881
 H    0.5691698955    1.8810046979    0.8426834131
 H    0.0093691006    1.9610483886   -0.8334602117
 H   -1.1580904305    1.7769902380    0.4828444452
 H   -0.8751941578   -2.8956622595   -2.0474589814
 H    0.3605000595   -4.1889571024   -1.6680372877
 H   -0.6282556425   -4.3745619507    1.8669513751
 H    0.4967492535   -6.0136448062   -0.4767395609
 H    0.6103381456   -6.4086683102    1.2403808400
 H   -0.9719527778   -6.3848432330    0.4426045832
 H    1.9611316244   -3.8128094787    0.3434374400
 H    1.2642792584   -2.9630295694    1.7418969936