17

 C   -0.0905085170    1.3787745527    0.0070322555
 O   -0.1318933599   -0.0419117365   -0.0078494181
 C    0.5211323445   -0.6330663742   -1.0264100558
 N    0.6815824864   -1.8851584249   -1.0386999108
 C    1.2630977278   -2.4806746736   -2.1618959905
 C    1.0650414945   -2.1779719059   -3.4992405848
 N    1.8222236084   -3.0544702922   -4.2381788966
 C    2.4933974801   -3.9110439274   -3.4036147614
 C    2.1615390980   -3.5885444429   -2.1105586007
 H    0.9186041209    1.7477377460    0.2272215794
 H   -0.4277593673    1.8017254326   -0.9476630417
 H   -0.7691483187    1.6995205729    0.7983113090
 H    0.8721970992    0.0520607428   -1.8124176487
 H    0.4087304254   -1.4653007438   -3.9711004783
 H    1.8315458879   -3.1008362468   -5.2412612883
 H    3.1453849632   -4.6733413024   -3.7985676448
 H    2.5231777166   -4.0630031465   -1.2121461234