18

 C   -0.0680364827    1.5221136940   -0.0402548642
 C    0.0538990821    0.0250349802   -0.0148129237
 C   -0.7894242890   -0.8733712607    0.8725718411
 O   -1.5100187120   -1.9747478549    0.4045201923
 C    0.6842691191   -0.9745503375    1.0261913043
 C    1.2755894671   -1.8194033617   -0.1182055016
 C    0.6695846498   -0.8119436641   -1.0832720043
 N    0.7674435429   -0.5616627444   -2.3217513963
 O    1.5198771300   -1.5591365385   -2.9779263027
 H    0.8828176940    1.9906297327   -0.3135308500
 H   -0.8143351296    1.8412236874   -0.7763293826
 H   -0.3724386931    1.9094873949    0.9369531815
 H   -1.2870946980   -0.3170532019    1.6693990720
 H   -2.1813141251   -1.6581300694   -0.2088662272
 H    1.1917091425   -0.7396589558    1.9536193988
 H    2.3676565142   -1.8001342529   -0.1623247834
 H    0.9232179210   -2.8497866931   -0.1900467190
 H    1.5326604068   -1.2358133844   -3.8847552853