21

 O   -0.8266197589    1.0135859270    0.7293667264
 C    0.0728663248    1.0490349560   -0.0699296220
 C    1.2521373606    1.9915360267   -0.0115924315
 C    1.3652768777    2.8412277548   -1.3008924008
 C    2.5886168613    3.7098936204   -1.3285305030
 C    3.6162075312    3.6117842294   -2.1750978136
 C    4.6586438998    4.6811160728   -1.9583451527
 C    4.2507541960    5.2912159513   -0.5919324926
 C    2.7693812608    4.8882175889   -0.3885199818
 H    0.0841955419    0.3589618998   -0.9475724937
 H    1.1553704069    2.6156019329    0.8804212790
 H    2.1629867512    1.3848565269    0.0876718707
 H    1.3682806885    2.1748579225   -2.1716335152
 H    0.4644772219    3.4650444487   -1.3834661785
 H    3.6887396643    2.8767711877   -2.9708236338
 H    5.6818853316    4.2884095924   -1.9525329262
 H    4.6231780914    5.4256315719   -2.7669030918
 H    4.8593933171    4.8438758185    0.2001939003
 H    4.4063629100    6.3718310394   -0.5452511887
 H    2.0797083264    5.6986341130   -0.6676636128
 H    2.5431432456    4.6469919190    0.6562940925