19

 O    0.0340691541    1.3975479983    0.0458786409
 C    0.0298316396   -0.0086418364   -0.0513522517
 C   -1.3577673838   -0.6284286548    0.0719222837
 C   -2.2414551337   -0.1419966952   -1.0390855020
 C   -1.2376838753   -1.2195210259   -1.3413507509
 C    0.1751253760   -0.6455162207   -1.4878665582
 C    0.4816693480    0.2980916703   -2.6618675410
 C    1.7701660578    0.9648025712   -2.4946820425
 C    2.8313891957    1.4989981894   -2.3018763391
 H    0.9046755047    1.7052392546   -0.2351277058
 H    0.7458835302   -0.4568353277    0.6494113615
 H   -1.7572304777   -1.0845674960    0.9688163846
 H   -3.2708690913   -0.4812313757   -0.9864702322
 H   -2.1256672083    0.8682717534   -1.4175750606
 H   -1.5436187027   -2.2016569610   -1.6811951155
 H    0.9295167965   -1.4367639980   -1.4634775089
 H    0.4774935770   -0.2696495482   -3.6008163790
 H   -0.3037015352    1.0556094131   -2.7515069727
 H    3.7721916486    1.9731287695   -2.1681920307