21

 C   -0.0376418874    1.5083156888   -0.0531631310
 C    0.1933661812    0.0119542051   -0.0150745712
 O    1.3692547312   -0.4129854260   -0.7753433683
 C    1.8321355141   -1.1896891092    0.3414748956
 C    2.1670907848   -0.2822856276    1.4834080695
 C    0.7202875968   -0.6803001197    1.2402272419
 C    2.4098447891   -2.5215521611    0.0508758362
 C    1.8502192758   -3.3684078705   -1.0657059715
 C    3.2029469868   -2.7212055628   -1.2207344364
 H    0.8006561836    2.0553999011    0.3857604041
 H   -0.1640142606    1.8458306237   -1.0868941558
 H   -0.9478360219    1.7617702870    0.5010414967
 H   -0.6844427919   -0.5179492315   -0.4077602601
 H    2.6159425072   -0.7647955816    2.3466465757
 H    2.5186407649    0.7276523393    1.2911144811
 H    0.1184674795   -1.1946156797    1.9776088424
 H    2.7678425852   -3.0423428829    0.9338001904
 H    1.8000272347   -4.4412024658   -0.9163952240
 H    1.0348205800   -2.9468762742   -1.6419025182
 H    3.2726779366   -1.8764880502   -1.8960649612
 H    4.0891159502   -3.3442482721   -1.1758969460