19

 O   -0.1883179798    1.4271731352    0.0500019385
 C   -0.0872826866    0.0511816734   -0.0249240823
 C   -0.2756674503   -0.8542358846    1.1751119528
 C   -1.2065981328   -0.9977111758    0.0028675510
 O   -2.5689608771   -0.9135490929    0.1980607378
 C   -0.5220346540   -1.7529822245   -1.1188864504
 C   -0.4589267241   -3.2356783898   -1.3290677287
 C   -1.2270356857   -2.3558692574   -2.2958603319
 C    0.6129928718   -0.7021358910   -1.1669926994
 H    0.5040768279    1.7556357564    0.6338263865
 H    0.4417296612   -1.6303755178    1.4358365802
 H   -0.7426243610   -0.3501315399    2.0163753995
 H   -2.9553365797   -0.4986884677   -0.5819665648
 H    0.4765222623   -3.6666744601   -1.6710837453
 H   -1.0292528624   -3.8726624927   -0.6604805001
 H   -2.3114312802   -2.4085585065   -2.2648426803
 H   -0.8139041911   -2.1935263064   -3.2863187998
 H    0.6111452626   -0.1240764061   -2.0953323044
 H    1.6269528590   -1.0657346419   -0.9650453389