23

 C   -0.2713580387    1.5390430678    0.0314638026
 C    0.0316981464    0.0352176228    0.0109888636
 C    0.7605862389   -0.4323680991   -1.2614000713
 C    2.2442048117   -0.0377953769   -1.2520183197
 C    2.9072854289   -0.5060348371    0.0510176210
 C    4.3638425002   -0.0674509818    0.1377971560
 O    4.9297948758   -0.6240449615    1.3166888671
 C    2.0923856114    0.0065170267    1.2455351533
 O    0.7321757349   -0.3907052997    1.1801118854
 H    0.6223247315    2.1543384567   -0.1061930371
 H   -0.9724758504    1.7911656813   -0.7707546156
 H   -0.7281025825    1.8122898224    0.9867951089
 H   -0.9251526471   -0.4951727820    0.0756352623
 H    0.6854724409   -1.5248765166   -1.3165829435
 H    0.2553512453   -0.0305673070   -2.1470091898
 H    2.7539083070   -0.4695796557   -2.1213016641
 H    2.3484932253    1.0522996671   -1.3433760963
 H    2.8867827316   -1.6037991741    0.0821524967
 H    4.9030498485   -0.4070699221   -0.7615046647
 H    4.4192239100    1.0344568179    0.1538396807
 H    5.8346557366   -0.3093900546    1.3963371397
 H    2.4809944665   -0.4039899205    2.1793034127
 H    2.1830152272    1.1049271562    1.3034380523