19

 C   -0.4065590987    1.5035773151    0.0327347739
 C   -0.0481042441    0.0100422427    0.0102877431
 C    0.6581817713   -0.4702282608   -1.2452107483
 C    1.7200559065   -1.2316035631   -0.9754285655
 C    1.9600344802   -1.3310007949    0.4936699875
 C    2.3450304257   -0.0176644213    1.1890129168
 C    2.9078435001    1.0963335052    0.4840021466
 C    3.4350884410    2.0280290435   -0.0661961057
 C    0.8881217975   -0.4705035918    1.1243495895
 H    0.4860821115    2.1260298580   -0.0528071879
 H   -1.0797084698    1.7502201380   -0.7952237424
 H   -0.9186033533    1.7629841802    0.9649576120
 H   -0.9904883146   -0.5515678074    0.1107138255
 H    0.3167645843   -0.1957003837   -2.2372872487
 H    2.3713218290   -1.6932788703   -1.7080030528
 H    2.3195407825   -2.2533906359    0.9364509572
 H    2.7782067842   -0.1611899462    2.1764462180
 H    3.8878851343    2.8503504011   -0.5613197601
 H    0.4477239324   -0.7396391084    2.0776015815