17

 C    0.4075517953    1.3600224273    0.3170640494
 C    0.0809726697   -0.0646356891   -0.0617479202
 C    0.8274404862   -0.7657219693   -1.1675790952
 N    1.0113134986   -1.1350487232    0.2209298390
 C    2.1491485950   -1.0841061180    0.9872272962
 O    2.1932296193   -0.5694983941    2.0905806801
 C    3.3703036137   -1.8183124939    0.4356527337
 O    4.4096087144   -1.7943533489    1.3683764024
 H    1.4395508142    1.6154273282    0.0600499079
 H   -0.2600435630    2.0482267936   -0.2106549188
 H    0.2861187183    1.5110901370    1.3926718247
 H   -0.9596148480   -0.3517165490    0.0815140292
 H    0.3252472234   -1.4970467919   -1.7952930060
 H    1.6267626839   -0.2118500241   -1.6558645501
 H    3.0750621764   -2.8484475854    0.1835085891
 H    3.6751709634   -1.3392639774   -0.5093811999
 H    4.0469299093   -1.3052997317    2.1258310284