18

 O    0.0206321719    0.0287073436    0.3539137973
 C   -0.0049317163    1.1661010024   -0.0301461297
 O   -1.1888611858    1.7378286349   -0.3553529083
 C   -1.2435686025    3.0711506473   -0.8951175565
 C   -0.2712039171    4.0170150301   -0.2021196286
 C    1.1525441478    3.5268375083   -0.4522652205
 C    2.1612289786    3.7278984740    0.7053530660
 N    1.8102706909    2.3754270769    1.1984340586
 C    1.2576701808    2.0128980487   -0.1292003008
 H   -1.0426984746    3.0250602136   -1.9742614765
 H   -2.2817493114    3.3835417943   -0.7610136295
 H   -0.4190367974    5.0361727490   -0.5749498326
 H   -0.4897765035    4.0204119896    0.8714805051
 H    1.4966192432    3.8169372146   -1.4470698311
 H    3.1927867118    3.8277156740    0.3392036533
 H    1.9591771735    4.5355696649    1.4178839561
 H    2.5697985602    1.7942684555    1.5327745197
 H    1.9615248799    1.4804881082   -0.7832116119