20

 C   -0.0597650296    1.5183089231    0.0224649286
 C    0.1001506856    0.0048178521   -0.0178381211
 C    1.0319703754   -0.6242709440   -1.0702269350
 C    2.4024155856   -0.0009508329   -0.6978322113
 C    2.2110903979   -0.7976627599    0.5899994868
 N    0.7952027906   -0.5529376052    1.2037358837
 C    0.5179527379   -2.0278911774    0.9818404290
 C    1.4538954141   -1.9050353853   -0.2154084868
 O    2.0092515620   -2.9367722993   -0.9581949809
 H    0.8827328986    2.0390487436    0.2026672591
 H   -0.4807962440    1.8864482192   -0.9198089468
 H   -0.7425733746    1.7915169249    0.8323953445
 H   -0.9001473824   -0.4362807622   -0.0710320232
 H    0.6996825750   -0.7203483971   -2.1032671122
 H    3.2110629132   -0.4540969405   -1.2768040684
 H    2.5200045287    1.0836603992   -0.6838979653
 H    2.9721740377   -0.9670696561    1.3506092291
 H    0.9641142932   -2.6180315906    1.7903751087
 H   -0.5374989225   -2.2953081624    0.8708454931
 H    2.4087931677   -3.5694035391   -0.3513276415