21

 C    0.0457671872    1.5986971446   -0.0713061274
 C    0.0313075605    0.0632298195   -0.0074356172
 C   -1.4459190356   -0.4468541918   -0.0018336980
 C   -2.2178796205   -0.0536045232    1.2347757488
 O   -3.1616787729    0.6964570908    1.2473306379
 C    0.8043670271   -0.5808687556   -1.1998797553
 C    1.5604654539   -1.8013474886   -0.6197138589
 C    1.6178079046   -1.4845225152    0.8554747764
 C    0.8035336969   -0.4840569843    1.1840218045
 H    1.0731788686    1.9746453542   -0.0504468172
 H   -0.4287823313    1.9551151606   -0.9922300198
 H   -0.4954616186    2.0459830040    0.7689566712
 H   -1.9791025739   -0.0591812781   -0.8757552490
 H   -1.4338062590   -1.5439395972   -0.0520388929
 H   -1.8480679233   -0.5139207819    2.1798675700
 H    0.1431511103   -0.8397114486   -2.0315866652
 H    1.5304173349    0.1456218444   -1.5791644281
 H    1.0259778761   -2.7456729416   -0.7957861674
 H    2.5523551182   -1.9282217612   -1.0673265328
 H    2.2381810284   -2.0390467727    1.5513744728
 H    0.6689064885   -0.0933961481    2.1874076675