19

 O   -0.0748954586    1.3966942996   -0.3401652148
 C   -0.0182006480   -0.0200368759   -0.4598731014
 C   -1.3331360693   -0.5768922069    0.0847478498
 C   -2.5368114306   -0.0781144391   -0.7608015444
 C   -2.8306829962   -1.2369535574   -1.6804397485
 C   -2.2214923046   -2.3535961361   -1.2941034751
 C   -1.4138068637   -2.1416338258   -0.0193463667
 C   -0.1413817561   -2.8577025023    0.0079870153
 C    0.8904576139   -3.4753010374    0.0291476430
 H    0.7353825526    1.7585798820   -0.7095473987
 H    0.1087872140   -0.3281202696   -1.5096390569
 H    0.8239713567   -0.4331447534    0.1104124395
 H   -1.4173037107   -0.2564375125    1.1266274620
 H   -3.4079561829    0.1451963889   -0.1296279746
 H   -2.2908012251    0.8503585438   -1.2845519923
 H   -3.4942132051   -1.1553856997   -2.5344618607
 H   -2.2910939276   -3.3261631553   -1.7658319593
 H   -2.0068654845   -2.5124341091    0.8312749637
 H    1.8033491358   -4.0172215339    0.0483813001