19

 C   -0.0816802346    1.5272102767   -0.0656638315
 C    0.0189725162    0.0058587504   -0.0242296160
 N    0.9433872973   -0.4152310674   -1.1206841232
 C    1.6288662042   -1.3596778095   -0.6165242388
 N    3.0156764977   -1.0320064070   -0.2325841020
 C    2.2831553873   -1.0096334069    1.1520506997
 C    1.2000021759   -1.9400806328    0.7712833636
 C    0.7306686913   -0.5983216551    1.2208391876
 C    0.1742988403   -0.3530621404    2.6034172756
 H    0.9145495401    1.9755441880   -0.0226978891
 H   -0.5622249409    1.8514684963   -0.9921367550
 H   -0.6748385797    1.8940423305    0.7791330277
 H   -0.9920343616   -0.4284362768   -0.0912966203
 H    3.5724229264   -1.8910591232   -0.1495174765
 H    2.9026999922   -0.9741526036    2.0433115375
 H    0.9354561658   -2.9450625969    1.0754681234
 H    0.7004672236   -0.9383157696    3.3635665979
 H    0.2498244457    0.7030574228    2.8820689980
 H   -0.8847067472   -0.6337300656    2.6450944314