19

 C   -0.0520939744    1.4797053404    0.0916088770
 C   -0.0069749726   -0.0058835744    0.0051824495
 C   -0.0349742665   -0.8392172873   -1.0400813064
 C    0.0457098572   -2.2293597642   -0.3992596696
 C   -0.9623805148   -2.0499286940    0.8037748647
 C    0.0898587516   -0.9673417410    1.2117708715
 C    1.1623137974   -1.9789128640    0.6899510709
 C    0.0414165945   -3.4545811316   -1.2489439671
 O   -0.0222865430   -3.4589320678   -2.4540348812
 H    0.8416303967    1.8798891422    0.5878264137
 H   -0.1204053085    1.9334364933   -0.9010129061
 H   -0.9125075816    1.8211683703    0.6817052400
 H   -0.0982101547   -0.6436009064   -2.1000405197
 H   -1.9688011806   -1.7133193098    0.5467926289
 H   -0.9929757231   -2.9104457442    1.4801778085
 H    0.1293221791   -0.5410811014    2.2144801726
 H    1.3221482823   -2.8330881555    1.3561181591
 H    2.1108762079   -1.5769560710    0.3281775511
 H    0.1035240132   -4.4105447937   -0.6774191174