18

 O   -0.0444499509    1.3520490441    0.4003759971
 C   -0.0205961098    0.0000546315   -0.0447494682
 C   -1.4236947454   -0.5275638996   -0.0060938361
 C   -2.0012119341   -1.1302432708    1.2504685541
 C   -1.7515278659   -2.0036982143    0.0470523789
 C   -2.9292884136   -2.1912426837   -0.8925236641
 O   -3.5005859279   -0.8964656807   -1.0508065724
 C   -2.4535316485    0.0658702081   -0.9568875928
 H    0.8366295309    1.7208180315    0.2862459247
 H    0.3716240243   -0.0648147962   -1.0735243613
 H    0.6276251980   -0.6205470692    0.5943774918
 H   -1.3307249978   -1.2422272935    2.0955606186
 H   -3.0284636628   -0.8936309643    1.5092050284
 H   -0.9747318494   -2.7596665491    0.0753193618
 H   -2.5832746366   -2.5986109518   -1.8573340410
 H   -3.7162295681   -2.8472760665   -0.5053433436
 H   -2.8985780325    1.0018869068   -0.6083348551
 H   -1.9866807900    0.2478336879   -1.9402690208