19

 C   -0.0610242232    1.5196584666   -0.0633044707
 C    0.0084223181   -0.0132478459    0.0216843917
 N   -1.3075868810   -0.6280431478    0.0848022188
 C   -2.0192932713   -0.6331509838    1.2626240888
 N   -3.3370296549   -1.0534728756    1.1239449924
 O   -1.5495134669   -0.2842619837    2.3310845858
 C    0.7675596513   -0.5923016849   -1.1603372464
 C    0.6052378746   -1.9714819455   -1.6257147415
 O   -0.0095674096   -0.8816419301   -2.3309495994
 H    0.9437555503    1.9553398796   -0.0743788486
 H   -0.5804114585    1.8357811812   -0.9741784957
 H   -0.5955175743    1.9106645133    0.8049938818
 H    0.5299450711   -0.2871214423    0.9444623763
 H   -1.8046058805   -0.6535556506   -0.7936976612
 H   -3.5448576485   -1.7158340477    0.3916522333
 H   -3.7658538299   -1.2720781789    2.0103722065
 H    1.7128572499   -0.0914025601   -1.3718456815
 H    1.4209385998   -2.4608300803   -2.1548694277
 H   -0.0844506766   -2.6298793135   -1.1032638827