20

 C   -0.4955555073    1.4355250620   -0.1023987560
 C   -0.0286416189   -0.0056942331   -0.0078187490
 N    1.0491730761   -0.5046409964   -0.9423781776
 C    2.2271777846    0.4120561385   -1.1283064404
 C    3.0711958373   -0.3879718965   -0.1012412813
 C    1.7765366724   -1.1570108445    0.2257505794
 C    0.7954075788   -0.4913165896    1.1937169566
 C    1.0288307536    0.1096405490    2.5096644999
 O    0.2551223897   -1.0893617859    2.3538440193
 H    0.2946933347    2.1535413320    0.1345823168
 H   -0.8678771142    1.6536011550   -1.1087532059
 H   -1.3174521248    1.6039665117    0.6011060003
 H   -0.8926869986   -0.6685878542   -0.1416805904
 H    2.5943077214    0.3914212608   -2.1581528017
 H    2.0440462340    1.4556027158   -0.8562218166
 H    3.8399591112   -1.0131380295   -0.5599121215
 H    3.5209532490    0.1760061664    0.7194418746
 H    1.8036370997   -2.2496036486    0.2669404562
 H    1.9917587083   -0.0179161832    3.0032874161
 H    0.4659514630    0.9918528403    2.8123548512