16

 C    0.3308987602    1.5799544391    0.0701367884
 N    0.1187325192    0.1389776003    0.1063812312
 C    0.6498365962   -0.5153068149    1.2901375331
 C    0.0781704577   -1.9470593074    1.3879343659
 N   -1.3798679265   -1.8739010392    1.4863079802
 C    2.1216119302   -0.5669581001    1.2419705366
 N    3.2759285713   -0.6139181337    1.2261279296
 H    1.4013225707    1.7952654394   -0.0120766290
 H   -0.1606995238    1.9922864031   -0.8148876689
 H   -0.0520469603    2.1122939481    0.9594110819
 H   -0.8725311797   -0.0835545507    0.0875566865
 H    0.3907846695    0.0197684891    2.2272658586
 H    0.3372132231   -2.4735083215    0.4650235501
 H    0.5674710813   -2.4695362064    2.2219404115
 H   -1.7965404346   -2.7625164252    1.2334692420
 H   -1.6652124646   -1.6772710200    2.4405922925