15

 C   -0.1242966709    1.5726754397    0.0009917009
 C   -0.0152893124    0.0428690444   -0.0174004584
 C    0.7842437153   -0.5217644025   -1.2374818401
 C    1.9692270391   -0.6876016973   -0.2560196580
 N    1.0244817118   -0.5295196067    0.8751898346
 C   -1.3435206934   -0.5532168003    0.1969206201
 N   -2.3939160174   -1.0115540592    0.3468796907
 H    0.8543546707    2.0187654986   -0.2006118980
 H   -0.8296558921    1.9250915388   -0.7575861705
 H   -0.4751368605    1.9221172448    0.9770349366
 H    0.3871537398   -1.4695803423   -1.6000746112
 H    0.9117781871    0.1673958855   -2.0726153211
 H    2.4883504839   -1.6501566421   -0.2659088151
 H    2.7148398616    0.1125337610   -0.3479835321
 H    1.3182116174    0.0817851475    1.6298725916