19

 C   -0.5021709012    1.3440909368   -0.0127763416
 C    0.2099633823    0.0112813572    0.0109814428
 O    1.5076585235    0.0454642800   -0.6370723956
 C    2.0815899713   -0.7929429151    0.3796039137
 C    0.8596864868   -0.5534872837    1.3005119938
 C    1.0824642041    0.4217550517    2.4441376741
 O    0.1450498596   -1.7107290168    1.7634198459
 C    0.8280516813   -2.6425068724    2.4538146143
 O    0.3077575160   -3.6141494162    2.9144092161
 H    0.0977268558    2.1338403142    0.4458691030
 H   -0.7038745331    1.6298760588   -1.0496057109
 H   -1.4610105304    1.2742746626    0.5109798388
 H   -0.4212357461   -0.7679579273   -0.4391643893
 H    2.1821792553   -1.8359266321    0.0496583165
 H    3.0516986701   -0.4207858095    0.7259808874
 H    1.5828168638    1.3255275452    2.0869977343
 H    0.1301144651    0.7036023587    2.9018262081
 H    1.7136760358   -0.0281872475    3.2172945532
 H    1.9089651700   -2.4202728745    2.5389117256