20

 C   -0.2764123292    1.5581184555   -0.0954561378
 C    0.0290996465    0.0727594875    0.0488625925
 C    1.1189746713   -0.5693163829   -0.8433182489
 N    1.7860704421   -1.2249431809    0.3378985188
 C    2.8854424110   -0.3668667371    0.8142982699
 C    3.0572525501   -0.5705189736    2.2926697737
 C    1.9898194969    0.3758362960    1.7956609653
 O    1.9451513611    1.7126653706    2.1546466930
 C    0.8195506055   -0.4537822966    1.2730474166
 H    0.6251584845    2.1683170118   -0.0086697877
 H   -0.7357012418    1.7563624636   -1.0705710792
 H   -0.9777532640    1.8954398099    0.6756384949
 H   -0.9033314308   -0.4948936318   -0.0330874622
 H    0.7654240393   -1.3046240062   -1.5709054671
 H    1.7675732306    0.1474672919   -1.3600397172
 H    3.6795984030   -0.0430359405    0.1512130980
 H    2.8104316695   -1.5296573318    2.7427401051
 H    3.9208258152   -0.0635820481    2.7128603712
 H    1.8726447823    1.7703906201    3.1139975246
 H    0.2499077970   -1.0287821176    2.0105941567