16

 C   -0.0352203160    1.6048120985    0.0381954788
 C    0.1066183619    0.0898693231   -0.0119090577
 C    0.8678823831   -0.6144430291   -1.1241556327
 C    2.3066984299   -0.7429152015   -0.7312826518
 C    2.5033160306   -0.1288224043    0.6416253802
 C    1.0880086595   -0.6753364874    0.9101635124
 N    1.2976954811   -1.7381619737   -0.2217242986
 H    0.9265570986    2.1119937863   -0.0784103491
 H   -0.6929775795    1.9579786246   -0.7633514346
 H   -0.4742571593    1.9261863385    0.9893648817
 H   -0.8767799186   -0.3855165784    0.0788195912
 H    0.5369507110   -0.8116303007   -2.1383465937
 H    3.0667322601   -1.0370484458   -1.4466360280
 H    3.2493454840   -0.6909140368    1.2094740096
 H    2.6945137247    0.9438881165    0.7449234212
 H    0.7872800690   -1.0026624398    1.9037741212