21

 C    0.0227609607    1.5119101027    0.0931488674
 C    0.0531035768   -0.0133275672   -0.0193311280
 O   -1.2566567647   -0.5695978705    0.0861123639
 C    0.7369725768   -0.4957852067   -1.2770642938
 C    2.1954121180   -0.1994617952   -1.7547904402
 C    1.5706031547   -1.1152491778   -2.8288260411
 O    2.2582607242   -1.5261134652   -3.9543532822
 C    0.9815783659   -1.9822342389   -1.6760249830
 C    0.2800645041   -0.2387712858   -2.7519180647
 H    1.0341802305    1.9295159002    0.1095340742
 H   -0.5089249743    1.9538512686   -0.7581853738
 H   -0.4928603729    1.8082368315    1.0103525638
 H    0.5921927230   -0.4239398555    0.8439364977
 H   -1.7736855005   -0.2243144319   -0.6505163321
 H    2.4164846986    0.8275849567   -2.0571705896
 H    3.0018956640   -0.6303396659   -1.1552558193
 H    1.6920602654   -2.1212726139   -4.4574780968
 H    1.6987257185   -2.5386670167   -1.0662607517
 H    0.0902850263   -2.5748107173   -1.8990715525
 H   -0.6552248943   -0.7146158401   -3.0644539503
 H    0.3625903092    0.7849235091   -3.1268367178