18

 C   -0.0235474566    1.4709887494   -0.0545511524
 N    0.0130376671    0.0212732325    0.0774508231
 C   -1.1893632371   -0.6966627409    0.0590157831
 C   -1.2389310499   -2.0046940611    0.3054450847
 C   -2.4894982477   -2.8278183070    0.2928370562
 C    0.0674507803   -2.6616681305    0.6443463637
 O    1.1974158633   -1.9743525830    0.0828282520
 C    1.2377145672   -0.6225089592    0.0112681173
 O    2.2898665092   -0.0543799053   -0.1448474956
 H    1.0023568064    1.8333395461   -0.0518430980
 H   -0.5053468535    1.7672287030   -0.9940845338
 H   -0.5738636477    1.9176901451    0.7799396855
 H   -2.0662395859   -0.1049749603   -0.1803113787
 H   -3.3682913601   -2.2116461665    0.0841837104
 H   -2.4438287610   -3.6203551710   -0.4654709468
 H   -2.6527599093   -3.3266963339    1.2575710207
 H    0.2087197637   -2.7368000067    1.7349208128
 H    0.1241484319   -3.6776855708    0.2406429654