19

 O   -0.3860948108    1.5776908766    0.1835296319
 C   -0.0863880440    0.2099806571    0.3701836945
 C   -1.2531697926   -0.6730889520   -0.0770132086
 N   -1.5932437666   -0.3024756663   -1.4446870577
 C   -2.0973175425   -1.1574634699   -2.2226220707
 N   -2.4000094357   -0.9485675633   -3.5607781426
 C   -3.3254561479   -1.9764222282   -4.0104554833
 C   -2.9093274864   -3.1157432659   -3.0692745385
 O   -2.4264762528   -2.4449569008   -1.8963272469
 H   -0.7930423031    1.6155141688   -0.6932021994
 H    0.8192851475   -0.0811974540   -0.1886256636
 H    0.1168727980    0.0593283257    1.4363891803
 H   -0.9930531919   -1.7349061519    0.0283360598
 H   -2.1133164824   -0.4751077971    0.5782699382
 H   -2.5446543664    0.0130386037   -3.8259606865
 H   -4.3800459730   -1.6999673111   -3.8637870546
 H   -3.1745249753   -2.2322206227   -5.0624681445
 H   -3.7319638055   -3.7717494429   -2.7799918355
 H   -2.0984382187   -3.7151373759   -3.4987115722