15

 N   -0.1971184301    1.1554907602   -0.7053845015
 C   -0.1072837886    0.0161473423   -0.1300071340
 N   -1.1939429514   -0.6657385740    0.3477742136
 C   -2.4940435576   -0.0639684013    0.3672706560
 C   -3.3507583844   -0.1484488842   -0.8675453445
 C   -3.6828175419   -0.9836170927    0.3442340843
 C    1.1541186074   -0.6874411464    0.0611414587
 N    2.1758106165   -1.2104924632    0.2022126128
 H    0.7136975890    1.4753690811   -1.0251009489
 H   -1.0127421599   -1.4197830163    0.9914266335
 H   -2.5634291972    0.8513995918    0.9501123380
 H   -3.9749862510    0.7052485272   -1.1026384354
 H   -2.9271868049   -0.6556313561   -1.7256867377
 H   -3.4905384250   -2.0495706044    0.2845749023
 H   -4.5402609008   -0.7148561139    0.9500870427