18

 O   -0.1586624105    1.3072773782    0.1385504782
 N    0.0073740615   -0.0904492251    0.2121376423
 C   -1.0995583683   -0.6849261538    0.0198705649
 C   -2.4644951637   -0.0845168540   -0.2350046017
 O   -3.3046909155   -1.1814071211   -0.5654547689
 C   -2.7721239664   -2.3472144013    0.0562794937
 C   -1.2604267521   -2.1620819196    0.0219760742
 C   -0.3464611248   -3.0376635815   -0.8150764490
 C   -0.2811830858   -3.0902941111    0.6859054130
 H    0.7348704494    1.6290283125    0.2975218689
 H   -2.8168251636    0.4470076334    0.6644347017
 H   -2.4611952473    0.6291732077   -1.0638783503
 H   -3.1310910972   -2.4301089958    1.0961216951
 H   -3.1239331432   -3.2187939861   -0.5023100207
 H   -0.7971636241   -3.8713889997   -1.3438362200
 H    0.4582310165   -2.5365502884   -1.3412475586
 H    0.5692665533   -2.6303599630    1.1767194499
 H   -0.6830414882   -3.9654457014    1.1870461274