18

 O   -0.0454257649   -0.0071952981    0.0784670623
 C    0.0342385782    1.2051102482    0.0436165295
 N    1.1934717360    1.9052171716    0.0553864717
 C    2.5226928265    1.2827122854    0.0199262146
 C    3.3807087045    2.4254966993   -0.5308213868
 C    2.8549908124    2.8801796252   -1.9348537273
 C    2.0159087143    3.9507705428   -1.2375383564
 C    2.7604373458    3.7216288033    0.0764519666
 C    1.3227395209    3.3424219265   -0.0232871280
 H   -0.8515659771    1.8714602510    0.0089630224
 H    2.8384988013    0.9721663021    1.0249130543
 H    2.5032960234    0.3981127341   -0.6212618593
 H    4.4535949274    2.2673954991   -0.4379748846
 H    3.6516036524    3.3268235936   -2.5340787952
 H    2.3299647258    2.1287156452   -2.5348071179
 H    1.6704552794    4.8839857594   -1.6678678017
 H    3.1932001642    4.4080196573    0.7916531966
 H    0.5587734796    3.9277266441    0.4733960491