20

 C   -0.0334108561    1.5301864193   -0.0076362103
 C   -0.0049590908   -0.0055976191    0.0516170525
 C    0.7574899420   -0.5149538254    1.2841758634
 C   -1.4068442829   -0.5538844133   -0.0128101889
 C   -1.9226189175   -2.0359412238   -0.0688973201
 C   -3.2102865020   -1.1632512991    0.0435582737
 N   -2.4933910238   -0.2559272606    1.0430554858
 C   -2.5471840715   -0.2714035719   -1.0202654435
 O   -2.7596253696    0.2794336663   -2.0513914946
 H    0.9829574607    1.9353978478    0.0067900077
 H   -0.5295727510    1.8776551581   -0.9180566932
 H   -0.5784893277    1.9378216220    0.8493569790
 H    0.5088851193   -0.3767998779   -0.8464612360
 H    0.2852333194   -0.1653584351    2.2090894322
 H    0.7971162639   -1.6085815572    1.3143287513
 H    1.7866204341   -0.1428844955    1.2792794581
 H   -1.7508859535   -2.6292466064   -0.9731448483
 H   -1.7093494521   -2.6067909326    0.8397410377
 H   -4.2431301815   -1.4755345286    0.1806031486
 H   -2.2783800193   -0.8325928169    1.8640752648