18

 C   -0.0741932606    1.3838702677    0.0156734459
 O    0.0377276367   -0.0219455994   -0.0240195046
 C    0.6583004723   -0.5592339364    1.1120507457
 C    0.6088214181   -2.0907463011    1.0016402189
 C    1.4254450841   -2.7580202503    2.1416742493
 C    1.5333525170   -4.2026397466    2.0005041262
 C    1.6196818359   -5.3923595696    1.8618952159
 C   -0.7800978032   -2.5598271026    1.0034106001
 N   -1.8756196856   -2.9248645684    1.0340500270
 H    0.9127424465    1.8694230046    0.0664760673
 H   -0.5748021669    1.6930600309   -0.9039678083
 H   -0.6706878021    1.7179081969    0.8779315392
 H    1.7125945056   -0.2401772121    1.1776428624
 H    0.1536354451   -0.2314916917    2.0359794188
 H    1.0544854727   -2.3696437568    0.0406175105
 H    2.4267528247   -2.3104225945    2.1437241872
 H    0.9671243409   -2.5084415676    3.1061114257
 H    1.6881554790   -6.4461972532    1.7495298528