19

 O   -0.1889326617    1.2594477953   -0.5752677188
 C   -0.0534756441   -0.0773573671   -0.1174573482
 C   -1.4443680614   -0.6973684542   -0.0862986004
 C   -1.4391740757   -2.1426947225    0.4155127727
 C   -2.8186869195   -2.8108428488    0.3506338288
 C   -2.7947969679   -3.5334847652   -0.9967928644
 O   -3.7256784464   -4.0029331183   -1.5934128316
 C   -1.3329158168   -3.5374574131   -1.4509545593
 O   -0.5825712997   -2.9823442617   -0.3903276327
 H    0.6907472151    1.6389609090   -0.6563467975
 H    0.5956658321   -0.6703516218   -0.7765161432
 H    0.3880907149   -0.1112137880    0.8929063981
 H   -2.0888821556   -0.0962216121    0.5664534612
 H   -1.8806454105   -0.6436914786   -1.0919922347
 H   -1.0122770115   -2.1779308650    1.4228376691
 H   -2.9348483338   -3.5660686779    1.1363234977
 H   -3.6659480994   -2.1253686448    0.4136834237
 H   -0.9840279890   -4.5553650128   -1.6538388269
 H   -1.2445968289   -2.9581829427   -2.3837807036