24

 C   -0.4983773606    1.5042506794   -0.4187035960
 C    0.0036572509    0.0712079919   -0.2436457013
 C   -1.1443055156   -0.9239049584   -0.4116207275
 C    1.2674836768   -0.2674453806   -1.1002449538
 C    2.1150069029   -0.4888061590    0.1952897860
 C    2.6174771011   -1.9216851026    0.3704173463
 C    3.2626698318    0.5066659699    0.3632228531
 C    0.8511093173   -0.1504218766    1.0518892679
 H    0.3126582271    2.2308678393   -0.3012879911
 H   -0.9340573001    1.6507580934   -1.4143731703
 H   -1.2700797130    1.7451904558    0.3222840865
 H   -1.5966898407   -0.8399523694   -1.4070805392
 H   -0.8013090774   -1.9568090633   -0.2891387259
 H   -1.9326160117   -0.7455684369    0.3295964063
 H    1.1619400100   -1.1575093198   -1.7281431551
 H    1.6169612733    0.5538242161   -1.7334838873
 H    3.3893074058   -2.1624050592   -0.3705088691
 H    3.0531342676   -2.0680364957    1.3661204261
 H    1.8066703742   -2.6485522211    0.2529615261
 H    2.9193987829    1.5394557380    0.2405525433
 H    3.7149697253    0.4229903218    1.3587444746
 H    4.0511084287    0.3284411536   -0.3778838145
 H    0.9565372853    0.7394407292    1.6800933459
 H    0.5016315781   -0.9719263059    1.6848228391