14

 C   -0.0608748951    1.5863301886    0.0114815676
 C    0.1014966456    0.0570437410   -0.0189071364
 C    0.7815077953   -0.3906530455   -1.2400595204
 N    1.3193042843   -0.7130455803   -2.2094880674
 N    0.8254470865   -0.4328799988    1.1545366495
 C    2.1167605072   -0.7603406390    1.3562250515
 N    2.2794611067   -1.0763237031    2.6215248103
 N    1.0562468467   -0.9306125829    3.1975964394
 N    0.1770134897   -0.5465596478    2.3360610600
 H    0.9136880195    2.0780986175   -0.0258256386
 H   -0.6550620762    1.9123472940   -0.8450924052
 H   -0.5724982195    1.8681013793    0.9335730464
 H   -0.8850909373   -0.4157248388    0.0178212280
 H    2.8690189465   -0.7696290541    0.5848482551