23

 C    0.1709494625    1.3835881470   -0.1522243372
 C    0.2956671361   -0.1360614097   -0.0178010914
 C    0.7801804185   -0.5577585592    1.3621101133
 O    0.8588247001   -1.9760646974    1.3993144788
 C    1.2899035953   -2.4938499606    2.6322424232
 C    1.2420546373   -4.0340791652    2.5372352261
 C    2.7224856379   -4.4645161271    2.6368274087
 C    3.4646222546   -3.1538831360    2.3498741666
 O    2.6306079721   -2.1462001370    2.9202633387
 H    1.1330007109    1.8793502401    0.0181563141
 H   -0.1738582789    1.6632562770   -1.1519145510
 H   -0.5435650362    1.7916743727    0.5712539979
 H   -0.6703853022   -0.6161030433   -0.2126945821
 H    0.9943242280   -0.5269358263   -0.7666109911
 H    1.7629982012   -0.1189153536    1.5813673430
 H    0.0826496207   -0.2027989978    2.1403540781
 H    0.6863868534   -2.0656391159    3.4451727156
 H    0.6294421336   -4.4640433799    3.3320487304
 H    0.7958638191   -4.3067443607    1.5789500442
 H    2.9581573176   -4.8114024768    3.6470936404
 H    2.9834643127   -5.2614923929    1.9365595252
 H    4.4466239198   -3.0807808981    2.8231204492
 H    3.5812139360   -2.9920274093    1.2686947093