19

 C   -0.2856041774    1.5279954417    0.2375177460
 C    0.2580505714    0.1418744993   -0.0948866449
 N    0.8191695828   -0.4854910205    1.1012092315
 C   -0.0865661230   -1.2746892188    1.9277688672
 C    0.9592870247   -1.9239674474    1.0960361688
 C    0.8189110661   -2.9382021962   -0.0439146504
 O    2.0034427541   -3.6274866074    0.4627153360
 C    2.1749576706   -2.7079415331    1.4895796023
 N    3.0394782521   -2.6355307328    2.3912081764
 H    0.5014415102    2.1549629118    0.6647402753
 H   -0.6717955361    2.0145392854   -0.6630689879
 H   -1.1010499123    1.4647233394    0.9651508465
 H   -0.5388170286   -0.4743229756   -0.5491794852
 H    1.0634789153    0.2222098148   -0.8339687995
 H    0.0539707578   -1.1938201354    3.0016005270
 H   -1.1181515828   -1.3948992279    1.5947058161
 H   -0.0559282887   -3.5926990113   -0.0228606835
 H    0.9889003690   -2.5572463498   -1.0546746801
 H    3.7213703049   -3.3921950460    2.3208800084