20

 C    0.1357146855    1.5347981038    0.2521479898
 C    0.0139201541    0.0174975626    0.0171825122
 C   -1.3936601641   -0.4723073937   -0.0835508658
 C   -2.1804706431   -0.7391476466   -1.1914130413
 N   -1.7628263560   -0.6306695330   -2.5433327015
 C   -3.4268743474   -1.1795867046   -0.6727544088
 C   -4.6358029382   -1.6188974629   -1.4358516348
 N   -3.4159148788   -1.1838583461    0.6596754921
 N   -2.1867695259   -0.7398467848    0.9897630417
 H    1.1861797052    1.8373273362    0.3073002810
 H   -0.3375792921    2.0960395608   -0.5593781673
 H   -0.3515135035    1.8326731767    1.1861519602
 H    0.5194576669   -0.2506744493   -0.9167489675
 H    0.5358545966   -0.5171512850    0.8213031448
 H   -1.7397132978    0.3323317079   -2.8627416092
 H   -2.3903939637   -1.1343821244   -3.1589553904
 H   -4.4562488884   -2.5475631408   -1.9919831730
 H   -5.4634163808   -1.7969839148   -0.7460816290
 H   -4.9505616838   -0.8614830860   -2.1636859783
 H   -1.9448883346   -0.6599186761    1.9623870851