17

 C    0.1480462651    1.4855308504   -0.2823128887
 O    1.5001417748    1.4634536376    0.2368251963
 C    1.3700285482    0.1189946879    0.6850861593
 C    2.5509170777   -0.6749352825    1.2937380573
 C    1.7566681072   -1.9573232392    0.9293881113
 C    1.6201630955   -1.0026756391   -0.2826542929
 C    3.1439236817   -0.7047571102   -0.2087013517
 O    0.3908309922   -0.8653192626   -1.0110700922
 C   -0.1016918920    0.0194989382    0.0547901567
 H   -0.4726529468    2.1916430650    0.2825184222
 H    0.1134377337    1.7113656713   -1.3514688802
 H    3.1340117925   -0.4975964455    2.1977351678
 H    2.3453773824   -2.8630156019    0.7764427421
 H    0.8494604538   -2.1462653348    1.5068053140
 H    3.4676964725    0.2568638030   -0.6031296634
 H    3.8482119407   -1.5128576616   -0.4235328689
 H   -1.0557976892   -0.3117859860    0.4631921211