17

 C    0.4642966334    1.1006371962    0.3556058331
 O    0.4307028616   -0.2872325004    0.0537403889
 C    0.5176784866   -0.5659850807   -1.3121264941
 O    1.7926393271   -0.2804799505   -1.8591987516
 C    2.5514114132   -1.4719859444   -1.9424324156
 C    2.7456302949   -2.2558764892   -0.6953039309
 C    1.6669822006   -2.6751336308   -1.7143205603
 C    0.3161931389   -2.0983529280   -1.4827443025
 O   -0.7509681843   -2.6511029819   -1.4964050911
 H    1.4154310052    1.5522913750    0.0514173423
 H   -0.3591331537    1.6311311094   -0.1436335319
 H    0.3453455263    1.1920380808    1.4367964625
 H   -0.2230978798    0.0149026902   -1.8779818130
 H    3.2993500917   -1.4266496635   -2.7238624046
 H    3.5999055784   -2.9211170129   -0.6378064601
 H    2.4204706012   -1.8207738494    0.2416702895
 H    1.7552769288   -3.6170097898   -2.2381200505