22

 C   -0.1471097384    1.4550490274   -0.0538672688
 C    1.1016989705    0.6541655332    0.0564534621
 N   -0.2068431706   -0.0117086962   -0.1157734796
 C   -0.2196873739   -0.5359418318   -1.4977170606
 C    0.9293910126    0.1443834332   -2.2756851913
 C    1.9634836463    0.4780253264   -1.1777138419
 C    3.0248219656    1.5535001645   -1.5549606500
 C    4.0369541176    0.4174781494   -1.8637513903
 C    3.1303963365   -0.5574463206   -1.0676950705
 H   -0.5901319961    1.8846634108    0.8400171452
 H   -0.3210879290    2.0309101790   -0.9596126548
 H    1.5791347273    0.5392397380    1.0269267744
 H   -0.0544714537   -1.6170140593   -1.4311713658
 H   -1.2017712046   -0.3790717103   -1.9549904980
 H    1.3377383822   -0.4983858525   -3.0603155401
 H    0.5863918279    1.0618836576   -2.7654254027
 H    2.7663641324    2.2405919810   -2.3657653986
 H    3.3270756019    2.1443193498   -0.6847838098
 H    4.0696801511    0.1748949268   -2.9293493224
 H    5.0621297386    0.5482683287   -1.5103494128
 H    3.4665653352   -0.6743629092   -0.0326155467
 H    2.9549938005   -1.5524941061   -1.4865293968