17

 C   -0.0044308665    1.4222051581   -0.0099024534
 C    0.0176844944   -0.0295051509    0.0208813232
 C    0.0170250770   -1.2364332674    0.0426705915
 C    0.0253875534   -2.6787522893    0.0809744157
 O   -1.0214500761   -3.3231730225    0.1252583626
 C    1.3448101185   -3.3329212181    0.0269263498
 C    1.5038392456   -4.6795595716    0.7480444730
 C    1.3890903734   -4.6946059837   -0.7287258367
 O    0.2782434930   -5.1714295662   -1.3854032386
 H    0.9930505435    1.8438222254    0.1507788105
 H   -0.3712647456    1.7803178828   -0.9781599811
 H   -0.6719559065    1.8178868650    0.7630386481
 H    2.2076560351   -2.6820914814   -0.0396836840
 H    2.4651102651   -4.8664427264    1.2136679741
 H    0.6360369107   -5.0045902180    1.3127156584
 H    2.2878959385   -4.8580714552   -1.3145447573
 H   -0.5014269035   -4.8292238005   -0.9119585458