19

 C   -0.0319310582    1.5086249435    0.0446717786
 C   -0.0133897731    0.0131098555   -0.0348381235
 C   -0.0887306449   -0.7118566173   -1.1553334814
 C   -0.0281267250   -2.2257893355   -1.0681698691
 O    1.1463862216   -2.7285715976   -1.6959479522
 C   -0.0381276541   -2.6368597588    0.4120085439
 C   -1.0623940354   -1.8560754933    1.2585997845
 C    0.0763357823   -0.8060511981    1.2434028070
 O    1.0443423470   -1.8884887820    1.0484731473
 H    0.8835197890    1.8900128205    0.5149218697
 H   -0.1233071621    1.9618663997   -0.9458698882
 H   -0.8684147261    1.8653219190    0.6598769422
 H   -0.1314834152   -0.2604347051   -2.1426413590
 H   -0.8678454650   -2.6883268692   -1.6007001840
 H    1.8792560296   -2.3729724363   -1.1756412294
 H    0.0721960239   -3.7167534076    0.5362798592
 H   -2.0196098960   -1.5806313947    0.8132937337
 H   -1.2026632901   -2.3113807725    2.2409538432
 H    0.2917063717   -0.2184133303    2.1387739374