25

 C    0.0054573285    1.5416584302   -0.0028469329
 C    0.0039323126    0.0309527614   -0.0165659247
 C   -0.0310203965   -0.6274974300   -1.1802364851
 C   -0.0222146357   -2.1233162147   -1.3440907450
 C    0.3822822447   -2.8369014091   -0.0501846495
 C   -0.3141731998   -2.1881397365    1.1473094298
 C    0.0499548945   -0.6950963292    1.3326026888
 C    1.4640928275   -0.5683401048    1.9475128118
 C   -0.9653610770   -0.0795469783    2.3192571458
 H    0.8496333750    1.9465372831    0.5682463941
 H    0.0715767389    1.9396561773   -1.0188186547
 H   -0.9032793760    1.9486851612    0.4559301370
 H   -0.0753843075   -0.0475039146   -2.1011206237
 H   -1.0202956367   -2.4606159527   -1.6645105199
 H    0.6526131937   -2.4012114539   -2.1639774575
 H    0.1325195680   -3.9020751028   -0.1053588428
 H    1.4701388661   -2.7793314537    0.0737072961
 H   -1.4005716860   -2.2690614898    1.0072952790
 H   -0.0793844035   -2.7301618583    2.0715876347
 H    2.2240889009   -1.0318482532    1.3124811454
 H    1.7472379609    0.4790490381    2.0893789621
 H    1.4973852432   -1.0538939573    2.9295682859
 H   -0.9913995719   -0.6662568951    3.2443015538
 H   -0.7062827108    0.9481251047    2.5897655088
 H   -1.9759516233   -0.0751792022    1.8971455328