15

 C   -0.0217888254    1.3893734165    0.0100476954
 C    1.2818934886    1.8537149209    0.0000277237
 N    2.1116193949    0.7657405469   -0.0136641888
 C    3.4723372162    0.6681403198   -0.0272012944
 C    4.0437710850   -0.5672668046   -0.0391786872
 C    3.1961707859   -1.7124362572   -0.0370998856
 N    1.8869665000   -1.6428441079   -0.0242087854
 C    1.3180379543   -0.4231827753   -0.0123344990
 C   -0.0089610597   -0.0200926428    0.0024481443
 H   -0.8984850213    2.0197250597    0.0217629307
 H    1.6820336153    2.8549680991    0.0014897383
 H    4.0255116573    1.5999442686   -0.0275805092
 H    5.1206642593   -0.6707919218   -0.0500279434
 H    3.6360918369   -2.7068098085   -0.0465554022
 H   -0.8544239874   -0.6883625235    0.0069830431