25

 C   -0.0460369608    1.5490242344   -0.0412733489
 C    0.0648404996    0.0207693055   -0.0075501667
 C    0.6717268759   -0.5358083838   -1.3086299662
 C    0.7209336192   -2.0700629332   -1.3079590695
 C    1.4396028338   -2.6067402608   -0.0614652735
 C    0.8117587625   -2.0433931270    1.2190904114
 O    1.4757759295   -2.5018762912    2.3922137016
 C    0.8177131162   -0.5030642043    1.2438730682
 C    2.2312175177    0.0748880787    1.4247500489
 H    0.9291329953    2.0226931320   -0.1944732292
 H   -0.6989870430    1.8723570685   -0.8589724408
 H   -0.4632894066    1.9392702559    0.8935805316
 H   -0.9591600589   -0.3776269005    0.0605923056
 H    0.0861976626   -0.1803540060   -2.1649573737
 H    1.6844047368   -0.1340582450   -1.4451347223
 H   -0.3051056056   -2.4627590422   -1.3296471771
 H    1.2110444244   -2.4386386058   -2.2158390139
 H    1.3918498334   -3.7040158950   -0.0399701122
 H    2.5028790891   -2.3401325964   -0.0885085693
 H   -0.2445257091   -2.3654835190    1.2458660864
 H    1.5240823045   -3.4619548915    2.3482147253
 H    0.2365067050   -0.2068599603    2.1273131779
 H    2.8638920610   -0.0707117099    0.5437137802
 H    2.1910108314    1.1489275546    1.6255108073
 H    2.7221184662   -0.4110808077    2.2700757088