21

 C    0.0221117283    1.5696117746   -0.0308999971
 C    0.0155679098    0.0344544768    0.0053382080
 C   -1.4568468041   -0.4866638519    0.0340368422
 C   -2.2057094329   -0.1009898715    1.2241834434
 C   -2.8103106263    0.2258037203    2.2111310315
 C    0.7737986028   -0.5887942636   -1.2074834567
 C    1.5957708872   -1.7788308419   -0.6503658391
 C    1.6333552284   -1.4971505063    0.8326546368
 C    0.7921773666   -0.5272960242    1.1825185321
 H    1.0475989818    1.9508486953   -0.0103383998
 H   -0.4593217970    1.9416774215   -0.9428768533
 H   -0.5162701781    1.9867305386    0.8253705421
 H   -1.9790485415   -0.1151045790   -0.8580099704
 H   -1.4453353974   -1.5808149796   -0.0444996481
 H   -3.3529928220    0.5073587894    3.0791090543
 H    0.0944454737   -0.8816026796   -2.0138020362
 H    1.4546684218    0.1610404061   -1.6221096845
 H    1.1166156328   -2.7474633791   -0.8510275466
 H    2.5940638583   -1.8391812117   -1.0987674479
 H    2.2583048149   -2.0593220758    1.5185009540
 H    0.6168629731   -0.1771750881    2.1936399354