15

 C    0.0323464254    1.4621762667    0.0019414214
 N   -0.0020055936    0.0082618821   -0.0059456208
 C   -0.0462801966   -0.6823258898    1.1916970929
 O   -0.0591896333   -0.1449373654    2.2765295568
 C    0.0115395330   -0.6500671946   -1.2312099356
 C    0.0564453613   -0.1036488272   -2.4970306547
 N    0.0486086127   -1.1980832306   -3.3031337451
 N    0.0026281553   -2.3348855872   -2.6037689615
 N   -0.0201194004   -2.0090620353   -1.3409172755
 H    0.9452518251    1.8310110710   -0.4792881744
 H   -0.8367535079    1.8731432762   -0.5241142265
 H    0.0138157673    1.7812504428    1.0429803403
 H   -0.0682271134   -1.7701723813    1.0391987334
 H    0.0911697700    0.9029245866   -2.8722411211
 H    0.0721944551   -1.2391548640   -4.3094507596