17

 C    0.0185231008    1.5227024355   -0.0587101090
 C    0.0159420027    0.0042132245   -0.0134622049
 O    0.6666585618   -0.4821620503   -1.1708500331
 C    0.7206637112   -1.8872086021   -1.2322054406
 C    1.4490161797   -2.2658822307   -2.5267300852
 C    1.5630214362   -3.7079167396   -2.6959381156
 C    1.6431866640   -4.9016064238   -2.8100965068
 H    1.0432199359    1.9037320841   -0.0888806930
 H   -0.5063297247    1.8809174669   -0.9488181813
 H   -0.4785810107    1.9310931287    0.8262214697
 H    0.5321143496   -0.3577537722    0.8918932397
 H   -1.0169690284   -0.3808244093    0.0307003971
 H    1.2575465113   -2.3013538387   -0.3634045419
 H   -0.2915458131   -2.3230981057   -1.2286185484
 H    0.9095101114   -1.8242623075   -3.3729665822
 H    2.4431359994   -1.8034656680   -2.5161286278
 H    1.7214738028   -5.9541562718   -2.9235054667