19

 O   -0.0702476702    0.0125603485    0.0307978576
 C   -0.0449569940    1.2067402267    0.0236085484
 O    1.1003737250    1.9105848983    0.0091530394
 C    1.0202879242    3.3349549903    0.0456640929
 C    1.6617791282    3.9616566925    1.3163918642
 C    3.0349196796    3.6813587906    0.6310445630
 C    2.2277735709    4.0007884874   -0.6652385266
 C    1.8888424736    5.4912086905   -0.4768778686
 C    1.4556507155    5.4608074650    1.0322961725
 H   -0.9463362110    1.8504739581    0.0189476135
 H    0.0109343424    3.6583596649   -0.2361951974
 H    1.4190551251    3.5889770281    2.3114600393
 H    3.8710145374    4.3390433788    0.8833783329
 H    3.3333731070    2.6360658155    0.6949630897
 H    2.5493198441    3.6662916508   -1.6510319105
 H    2.7569197366    6.1310956162   -0.6537867423
 H    1.0848342806    5.8270144152   -1.1383065231
 H    0.4186172317    5.7777413067    1.1775826993
 H    2.0881573833    6.0872719158    1.6662815455