12

 N    0.1817945140   -3.7081716164   -0.0200810228
 C    0.1057816792   -2.5479202560   -0.0126709568
 C    0.0203952566   -1.1886896222   -0.0040382587
 C   -0.0593419349    0.0207897385    0.0036894495
 C   -0.1342377718    1.4200576606    0.0123961155
 C   -1.2207867899    2.2891123436    0.0314950041
 C   -0.6502473053    3.5715903308    0.0310542189
 N    0.6838540022    3.5221992667    0.0132309950
 N    0.9760791916    2.2212670433    0.0022036643
 H   -2.2614692757    2.0118592065    0.0436609727
 H   -1.1498335133    4.5284108938    0.0429062952
 H    1.9385344872    1.9241824507   -0.0120742568