21

 C   -0.1064692715    1.5396076034   -0.0359283310
 C    0.0866460334    0.0256148758    0.0096258616
 C    1.0577607591   -0.6154088334   -1.0118683476
 C    2.4216551027    0.0451236852   -0.6805629132
 C    2.3008531465   -0.7302867527    0.6399588859
 C    1.5173922793   -1.8424108711   -0.0795750173
 O    0.5868785312   -2.0100386118    0.9882986980
 C    0.8309468503   -0.5795468007    1.2334591076
 C    0.5280947462   -0.1347705000    2.6342718680
 H    0.8155228539    2.0963803411    0.1519196707
 H   -0.4909887786    1.8554887945   -1.0116740996
 H   -0.8345093752    1.8540505931    0.7193380745
 H   -0.8922064680   -0.4617148572   -0.0415817686
 H    0.7158538570   -0.7460120634   -2.0378202177
 H    3.2326407949   -0.3696631721   -1.2875587939
 H    2.4984881394    1.1337615877   -0.6815179461
 H    3.1133807227   -0.9123344959    1.3421479584
 H    1.9162600367   -2.7563891577   -0.5171866541
 H    1.1165688920   -0.7040905978    3.3591920928
 H    0.7597433979    0.9279001324    2.7583078754
 H   -0.5328298798   -0.2831939196    2.8632753362