15

 C    0.0047895960    1.5061496043    0.0648391064
 C    0.0227627656    0.0163686147   -0.0455289078
 C   -0.0420510798   -0.8366869153   -1.1455227090
 C   -0.1503452781   -0.4483173215   -2.5416086454
 O   -0.2042790110   -1.2228548599   -3.4753865944
 C    0.0174512008   -2.1819652150   -0.6542180232
 C    0.1149662859   -2.1140177492    0.7046255108
 N    0.1171288346   -0.7765584805    1.0602547243
 H    0.9206561917    1.8880845733    0.5318921727
 H   -0.0788272573    1.9661740015   -0.9206299250
 H   -0.8422849721    1.8566425843    0.6668389685
 H   -0.1832223034    0.6503143219   -2.7237998524
 H   -0.0113209872   -3.0693837686   -1.2653365407
 H    0.1831638764   -2.8829455354    1.4570720876
 H    0.1796305580   -0.4327254148    2.0039652176