16

 O    0.0415126879    1.4633655244    0.0546798013
 C    0.0156918300    0.0650893835   -0.0368888159
 C   -1.3893290828   -0.5550078020   -0.0350385759
 C   -2.4113967998    0.1762025319   -0.9202977735
 C   -1.7713223907   -0.5427426778   -2.1329839154
 N   -0.9995940881   -1.4926691781   -1.1918346203
 C    0.2607096173   -0.6339960958   -1.4076180779
 C   -0.4436802607    0.0824864055   -2.5558879915
 O   -0.0757685367    0.7307585151   -3.4913045492
 H    0.9543161389    1.7673137943    0.0144073152
 H    0.6437990566   -0.4087004286    0.7292687261
 H   -1.7402184600   -0.9937076513    0.8997847956
 H   -3.4242599581   -0.1903373914   -0.7425483238
 H   -2.4099488791    1.2673543371   -0.9091291745
 H   -2.4155085185   -0.9564801401   -2.9107160151
 H    1.2237373638   -1.1107732166   -1.5983147353