16

 O   -0.0203023543    1.2701992602    0.0618160084
 C   -0.0061139060   -0.0702813647   -0.0109375787
 N   -0.1188803569   -0.8008504744   -1.0865295010
 C   -0.0433111196   -2.1160998321   -0.6342311444
 C    0.1216083620   -2.1411507051    0.7208018789
 N    0.1385578096   -0.8043208269    1.1172810759
 C   -0.1210686446   -3.2422035029   -1.5803299827
 C   -0.9984005157   -3.1442164462   -2.7800275478
 N    0.4620610195   -3.0887050251   -2.9300735979
 H   -0.1327979950    1.5905949846   -0.8418295617
 H    0.2246347104   -2.9458065196    1.4282289952
 H    0.2498839407   -0.4418846879    2.0483370483
 H    0.0438427686   -4.2206151967   -1.1363285454
 H   -1.4686289032   -4.0395419854   -3.1780430256
 H   -1.5652326203   -2.2254414538   -2.8976795362
 H    0.7368926147   -2.1126608339   -3.0316379352