23

 C   -0.1544313770    1.6227106825    0.1059191980
 C   -0.1105315608    0.1012059382   -0.1261014742
 C   -1.4269142698   -0.5264682562   -0.0578017841
 C   -2.5267568677   -1.0163676749   -0.0033754370
 C   -3.8523434183   -1.6343502539    0.0903211467
 C   -3.7447040205   -3.1721836793    0.1485302772
 C   -4.6308683539   -1.0888360075    1.2833304033
 C   -5.3705624878    0.2163323737    1.1835563007
 C   -6.1379070553   -1.0825928837    1.2624754583
 H    0.8515603663    2.0491374901    0.0452932322
 H   -0.7823097226    2.1111770866   -0.6442086068
 H   -0.5681963102    1.8528851737    1.0915109034
 H    0.3430501276   -0.1055659513   -1.1042834872
 H    0.5543569911   -0.3614494292    0.6149298869
 H   -4.4173173141   -1.3720623484   -0.8164616668
 H   -4.7424124661   -3.6202739492    0.1801398030
 H   -3.2124022514   -3.5600309973   -0.7240597930
 H   -3.1979786465   -3.4846787356    1.0434945551
 H   -4.1615434130   -1.3026689321    2.2400468259
 H   -5.3768719689    0.8747961144    2.0450096877
 H   -5.3519689471    0.7356549946    0.2307619294
 H   -6.6350869208   -1.4299914931    0.3619889787
 H   -6.6700804733   -1.3161883421    2.1779872224