19

 O   -0.0227809933    1.4008903181   -0.5566738992
 C   -0.0572283758    0.1518237624    0.1290512522
 C   -1.5129365008   -0.2750865464    0.2023268758
 N   -2.0340677667   -0.4454336234   -1.1512977547
 C   -3.4372962362   -0.7307251958   -1.2371131188
 C   -4.5034112782    0.3192081229   -0.9016145593
 C   -4.2568344902   -0.0807948532   -2.3291371803
 C   -3.7683319821   -2.1009156933   -0.8982816412
 N   -4.0356325512   -3.1873103929   -0.6046098406
 H    0.8913213377    1.6068091483   -0.7705130738
 H    0.5190877841   -0.6115533404   -0.4120665710
 H    0.3524640554    0.2429441773    1.1456477068
 H   -1.5843348410   -1.2284426795    0.7382257217
 H   -2.0772872152    0.4738699428    0.7846042293
 H   -1.7957722401    0.3719872983   -1.7009268248
 H   -5.4200866511   -0.0065043608   -0.4241110441
 H   -4.1251348787    1.2788961622   -0.5675032395
 H   -3.7261821950    0.6097123184   -2.9764329492
 H   -4.9973713217   -0.6890653749   -2.8341578793