21

 C    0.0365491000    1.3279321036    0.0118335516
 O   -0.0115034335   -0.0792976077   -0.0281402644
 C    0.6650864326   -0.6195679826   -1.1399339223
 C    0.5151754868   -2.1438353638   -1.0946718569
 C   -0.9642628279   -2.5682773655   -1.1919602825
 C    1.2986920982   -2.7746503936   -2.2311676764
 O    1.2551571330   -2.3540137236   -3.3702624055
 C    2.1579193315   -3.9909609355   -1.9265349948
 O    2.7450006089   -4.5088128422   -3.0798530977
 H    1.0713091531    1.6986860784    0.0812310549
 H   -0.4293486061    1.7772910936   -0.8789063912
 H   -0.5137274214    1.6482395785    0.8996257399
 H    0.2504580966   -0.2356551220   -2.0846266532
 H    1.7319362252   -0.3388511137   -1.1151743577
 H    0.9230089485   -2.5010484554   -0.1411511950
 H   -1.0782485642   -3.6512561331   -1.0862641104
 H   -1.5339639046   -2.0778923270   -0.4007906507
 H   -1.3796133180   -2.2726930958   -2.1600923276
 H    2.9162225379   -3.6817561471   -1.1848411290
 H    1.5304580259   -4.7435426399   -1.4200209417
 H    2.4750712076   -3.9029626657   -3.7894847993