16

 O   -0.1483862715    0.0996597968   -0.6730426471
 C   -0.0614601339    1.1586274359   -0.1505629721
 O   -1.1169985347    1.9668445734    0.3099695897
 C   -0.1460135691    2.7923121358    1.0263918990
 C    0.3524363668    4.2249431988    1.3209818141
 N    1.3880592556    3.4571314060    2.1685140123
 C    0.2589807067    2.4921873557    2.4701659086
 C    2.1481306000    2.5916256254    1.1732281607
 C    0.9906402466    2.2365601135    0.2003576597
 H    0.7542494398    4.8200563964    0.4988806442
 H   -0.2564643868    4.8303354633    1.9925232926
 H   -0.4157128308    2.9067709404    3.2209947502
 H    0.5675886007    1.4793050045    2.7408449365
 H    2.9312536601    3.1723754146    0.6833705609
 H    2.6077132003    1.7640367258    1.7143996786
 H    1.0965183203    2.8002639036   -0.7339411380