21

 C   -0.0751172128    1.5888667718   -0.0564889903
 C    0.0029609512    0.0606226722   -0.0072918048
 C   -1.3896612508   -0.6015556835    0.1363686091
 C   -1.1088809701   -1.8008390061    1.0452325838
 O   -0.1606877226   -1.3171285682    1.9864790427
 C    0.7461233979   -0.4629530628    1.2762668988
 C    1.9500836677   -1.2010822475    0.7508253954
 C    1.9846915521   -1.2312618686   -0.5791962698
 C    0.8273813807   -0.5014659244   -1.2094524241
 H    0.9258307326    2.0325695569   -0.1022467221
 H   -0.6286719319    1.9289977380   -0.9389392863
 H   -0.5797343506    1.9869375488    0.8304786890
 H   -2.0794434831    0.0833024787    0.6408619776
 H   -1.8322078440   -0.8787259379   -0.8242921000
 H   -1.9814596488   -2.1544176285    1.6010875896
 H   -0.7006733344   -2.6467682785    0.4688786020
 H    1.0155867317    0.3365948842    1.9761009760
 H    2.6691667385   -1.6653740811    1.4162794144
 H    2.7502195089   -1.7199590816   -1.1739612294
 H    0.2345133440   -1.1707661431   -1.8465006283
 H    1.1706828540    0.3079925513   -1.8667697634