19

 C    0.0344538990    1.5790066744    0.3978956209
 C   -0.0142792403    0.1105024499   -0.0329928660
 O    0.8331872700   -0.6906544268    0.7732310488
 C   -1.4446081019   -0.4382531553   -0.0043314962
 C   -1.6698770506   -1.8607810857    0.3221626927
 O   -1.8961212837   -0.8427180341    1.2998069401
 C   -2.4638105673    0.2536145245   -0.8818812441
 C   -3.8999623865    0.2784630546   -0.4051544919
 O   -2.1046581505    0.7730913321   -1.9157709612
 H    1.0736402332    1.9151878213    0.4232160667
 H   -0.5222438577    2.2127167863   -0.2966579460
 H   -0.3915943179    1.7003217504    1.4007926951
 H    0.3604599216    0.0156694582   -1.0559470896
 H    0.4553947126   -0.6769483755    1.6622111745
 H   -2.5637171088   -2.3676733357   -0.0361257178
 H   -0.7944878571   -2.4811994309    0.4907627215
 H   -3.9679239806    0.8850309493    0.5045322099
 H   -4.5292075169    0.7074365024   -1.1854534118
 H   -4.2579726567   -0.7189789595   -0.1348188255