19

 C    0.9114449498    0.6458391071   -0.4337624088
 C    0.1614254565   -0.6529803097   -0.1302219331
 C   -1.3428822766   -0.4152165457    0.0990200218
 O   -1.8815713633    0.1208561154   -1.0797860749
 C   -3.1797014476    0.6670003220   -0.9458224293
 C   -2.0222866935   -1.7262896733    0.4939858154
 O   -2.7626057734   -2.3576685684   -0.2218113041
 C   -1.7632080783   -2.2700882457    1.9086302872
 O   -1.1233328182   -1.6919311139    2.7477468052
 H    1.9681391066    0.4430226486   -0.6309671828
 H    0.4848190244    1.1407840612   -1.3086993492
 H    0.8551888654    1.3391114533    0.4124953345
 H    0.2660208418   -1.3554263558   -0.9652341815
 H    0.5785523134   -1.1322179655    0.7604170978
 H   -1.4625523337    0.2839913482    0.9453953334
 H   -3.9271831138   -0.1014624303   -0.7148390533
 H   -3.2083867873    1.4426077207   -0.1651495681
 H   -3.4297914931    1.1240967332   -1.9056786325
 H   -2.2555108993   -3.2513412013    2.0799223023