17

 N   -0.1483213355    1.3040959649   -0.0258917799
 C   -0.1498860928    0.0462656167   -0.1273134245
 O   -0.8941724777   -0.7014575663    0.7082044201
 C   -0.9305519211   -2.1092490619    0.4574128068
 C   -1.2458839540   -2.8514001622    1.7419780324
 C   -2.2757092387   -3.6844324532    1.6000276039
 C   -2.8587738301   -3.5738396412    0.2253029430
 N   -3.4045330468   -2.2116183346   -0.0199102427
 C   -2.0468425862   -2.5572093211   -0.4886046937
 H    0.4833229996    1.7060690236   -0.7154178654
 H    0.4284497975   -0.5481837130   -0.8506373801
 H    0.0465702519   -2.4179278470    0.0541930757
 H   -0.6875692151   -2.6608541662    2.6500694779
 H   -2.6867250348   -4.3224698952    2.3727826623
 H   -3.3028136023   -4.4256501606   -0.2774783155
 H   -4.0304947712   -2.2449038701   -0.8235029065
 H   -1.8534099327   -2.6132232526   -1.5540548939