17

 O    0.7496768648    0.9288489224    0.3883071484
 C    0.1379050660   -0.2768584366    0.0467476520
 C   -1.4176265359   -0.3738531333    0.0420051115
 C   -2.1463026214    0.8081225226   -0.6207900619
 O   -2.0835817595    0.1761604201   -1.9310782468
 C   -1.3838886969   -0.9532811015   -1.3970609448
 C    0.1824502140   -0.7779374622   -1.4440826093
 C    0.6165726948    0.1808536389   -2.5110539906
 O    0.8486650671    1.3563129725   -2.3293167418
 H    0.8236565095    1.4535057536   -0.4241586562
 H    0.5456377306   -1.0516040667    0.7055948243
 H   -1.9000644418   -0.8519835378    0.8927592527
 H   -3.1854803584    0.9511725775   -0.3072997308
 H   -1.6197734737    1.7677981366   -0.5951929839
 H   -1.7935267420   -1.9091946478   -1.7295166958
 H    0.7085434568   -1.7283351470   -1.5810082831
 H    0.6958070963   -0.2490279615   -3.5319614738