17

 C    0.5058327421    1.4899193543   -0.4074172466
 C    0.0158361125    0.1252083231    0.0175572440
 C   -1.3380346899   -0.2891813263   -0.5186252449
 O    1.0002252150   -0.9037417333    0.0319625236
 C    0.4734977974   -0.5092587135    1.2964634449
 C    1.3997407754    0.1777628630    2.2414440677
 O    2.4468459630    0.7092173292    1.9470675509
 C    0.9576680271    0.2163144761    3.7110370734
 O   -0.0606042403   -0.2771657668    4.1195308427
 H    1.4887381224    1.7050835594    0.0113885226
 H    0.5802443007    1.5225486164   -1.4997268977
 H   -0.2008095547    2.2673385197   -0.0989767626
 H   -1.3280273099   -0.2653364690   -1.6136759034
 H   -1.5939349346   -1.3016147173   -0.1988979478
 H   -2.1178048957    0.3979288190   -0.1752337449
 H   -0.2032427149   -1.2172576563    1.7702161024
 H    1.6829942446    0.7548818922    4.3565622555