23

 C    0.0118004649    1.5425565269    0.1124350986
 C   -0.0207442232    0.0127181413    0.0866289534
 C   -1.4385290343   -0.5592065827   -0.0291663520
 O   -2.1084544819   -0.0690670233   -1.1925693483
 C   -1.4565149715   -2.0937968743    0.0100273632
 C   -2.8648505866   -2.6579362801    0.0674554755
 C   -3.0403673021   -4.1744988898    0.3059594275
 C   -3.8347401576   -3.7407421269    1.5534879408
 O   -3.5217416673   -2.3519539251    1.3270630940
 H    1.0391085068    1.9177820602    0.1439323603
 H   -0.4803434108    1.9541493710   -0.7725543729
 H   -0.5139783765    1.9301832810    0.9919009871
 H    0.5780147670   -0.3621716135   -0.7576727269
 H    0.4487427603   -0.3902870799    0.9926224019
 H   -2.0440921901   -0.1896883894    0.8072776065
 H   -1.5878433433   -0.3351813838   -1.9594552491
 H   -0.9476921434   -2.4880603690   -0.8831612765
 H   -0.8948711131   -2.4479581456    0.8832558606
 H   -3.4518054048   -2.2659951984   -0.7725427989
 H   -3.5955575436   -4.7229143884   -0.4564265842
 H   -2.1084320337   -4.7023557435    0.5215961642
 H   -4.9151366684   -3.9288792649    1.5021668710
 H   -3.4622688568   -4.0943985119    2.5222446341