16

 C    0.0487405529    1.4847724780    0.0513025721
 C   -0.1014721260   -0.0037122894   -0.0486894953
 C   -0.9671737470   -0.8185334161    0.8295073883
 N    0.5040715882   -0.9347059001    0.9721890483
 C    1.0810268760   -1.7329302138   -0.1819006788
 C    0.1425574220   -2.2469755512   -1.2360986774
 C    0.5260785379   -0.7913853390   -1.2238755435
 H    1.0703139868    1.7915518357   -0.1999288191
 H   -0.6354597790    1.9929527609   -0.6388743463
 H   -0.1686158167    1.8286750351    1.0663829115
 H   -1.4080739428   -0.3106135022    1.6831552011
 H   -1.5615653685   -1.6490653871    0.4668206241
 H    2.0800045785   -2.1257845798   -0.0429958874
 H    0.6538035707   -2.8210190251   -2.0037793616
 H   -0.8639309284   -2.5999165897   -1.0418788983
 H    1.0264678053   -0.3034962466   -2.0500908978