13

 N   -0.1250726923    1.2842945809    0.0116367061
 C   -0.0027290394    0.0202041608    0.0037027009
 C    1.2006393538   -0.8399233607   -0.0084276908
 C    0.8299944340   -2.1228731153   -0.0135057755
 C   -0.6614962302   -2.2115843313   -0.0050512777
 O   -1.3455721539   -3.1961388985   -0.0065443087
 N   -1.1114233434   -0.8565552717    0.0053576871
 C   -2.4432835732   -0.4049413716    0.0159335621
 O   -3.4047205837   -1.1206913474    0.0178509068
 H    0.7894929416    1.7344716174    0.0087090428
 H    2.2013648302   -0.4293964976   -0.0121036818
 H    1.4450333806   -3.0109092647   -0.0222583858
 H   -2.4736309840    0.6957961197    0.0226216844