17

 C   -0.0893596086    1.4735308078    0.0063105017
 C    0.0401727721   -0.0377514795   -0.0240284954
 C    0.8420190223   -0.6166042763   -1.1773584616
 C    2.0798279770   -0.5727516818   -0.3154149247
 N    1.1474685127   -0.5193188883    0.9156453512
 C    1.0020126046   -2.0277786206    0.8074268457
 C    1.4668378569   -1.9106907710   -0.6335889002
 O    1.8618485934   -2.8852905891   -1.5231749972
 H    0.8728635299    1.9540271164   -0.1965671979
 H   -0.8079199338    1.8159581146   -0.7461077720
 H   -0.4358448228    1.8031248280    0.9904576890
 H   -0.9277751192   -0.5048645699    0.1987900092
 H    0.7633714878   -0.4608862176   -2.2468661233
 H    3.0609024453   -0.1282207048   -0.3990072121
 H    1.7418464727   -2.5110642662    1.4539222443
 H    0.0016851095   -2.4123649640    1.0372887556
 H    2.6373312603   -3.3294830975   -1.1622345524