21

 C    0.1032423132    1.5750810374   -0.0184119385
 C   -0.0194702065    0.0529635774    0.0110448985
 O   -1.4349639134   -0.2074948260    0.0711925137
 C    0.5820183574   -0.5642036421   -1.2706078624
 C    0.6932489773   -2.0879460742   -1.2130482781
 C    2.0358073327   -2.7283703967   -0.9512278706
 C    0.9801208768   -2.7109416969    0.1355141418
 C    1.0882362203   -1.7891811522    1.2944242024
 C    0.6475939045   -0.5305404108    1.2453688797
 H    1.1526261166    1.8825362642   -0.0449913362
 H   -0.4022184384    1.9772679292   -0.9014565912
 H   -0.3670077383    2.0071137154    0.8696346883
 H   -1.5403186480   -1.1406965546    0.2833818473
 H   -0.0469399368   -0.2631332987   -2.1140817041
 H    1.5713869881   -0.1231357995   -1.4367973301
 H    0.0222051257   -2.6359141169   -1.8662785905
 H    2.2613610534   -3.6787480889   -1.4229620034
 H    2.8889970856   -2.0673612116   -0.8344811943
 H    0.5224247056   -3.6727751265    0.3543812519
 H    1.5251303316   -2.1821471763    2.2102582619
 H    0.7109920326    0.1107651481    2.1207693539