20

 C   -0.0043452239    1.5650943891   -0.0327436730
 C    0.0381964337    0.0391671020    0.0570965987
 C    0.7828298549   -0.6235506011   -1.1276757794
 O    1.3400969665   -1.8424895844   -0.6490346475
 C    1.5410049262   -1.7282392298    0.7454720711
 C    1.6472384216   -3.0708913245    1.4088278213
 C    2.2974023748   -0.5136037703    1.2284739039
 C    0.7734397400   -0.5431863618    1.2572348938
 H    1.0061013929    1.9873538326   -0.0141942558
 H   -0.4898927064    1.8951945994   -0.9579396950
 H   -0.5615115915    1.9955923666    0.8051517853
 H   -0.9903354918   -0.3432373750    0.0866725585
 H    0.1292962401   -0.8589380875   -1.9728602766
 H    1.5766219009    0.0441110533   -1.4966071495
 H    2.5072776745   -3.6270081999    1.0211871962
 H    1.7735964586   -2.9581647816    2.4890307687
 H    0.7473358749   -3.6657442929    1.2221710756
 H    2.8073212026   -0.5921514426    2.1828625397
 H    2.8062308659    0.1175482605    0.5073995898
 H    0.2689813256   -0.5639490121    2.2172257042