18

 C   -0.0323473206    1.5012254135    0.0237334968
 N   -0.0434741144    0.0579682758    0.1038249638
 C   -1.2971929155   -0.6274105542    0.4867992720
 C   -0.4662445882   -1.5708964307    1.3527072124
 C   -0.8012972631   -2.5193782569    2.4065377089
 O   -0.3530808428   -2.9501855218    1.1086556766
 C    0.7138763699   -0.5821567412    1.2114871495
 C    2.0373574656   -1.0872633683    0.8988988315
 C    3.1377845062   -1.5088951538    0.6638464569
 H    0.9847233179    1.8489097471   -0.1821571050
 H   -0.6731284535    1.8300059600   -0.8006460947
 H   -0.3853471567    1.9931233927    0.9509791337
 H   -1.9857027433   -0.0029283356    1.0799974811
 H   -1.8433205637   -1.0816936533   -0.3459182613
 H   -0.0988836412   -2.6932562676    3.2206146827
 H   -1.8448561128   -2.7326789443    2.6343827203
 H    0.7661327328    0.0642934872    2.1064817237
 H    4.1042442531   -1.8892079888    0.4422682009