18

 C    0.0364586582   -1.3128225998    0.2800152279
 C    0.0358862700   -0.1174318592    0.1516477831
 C    0.0305066471    1.3308971528   -0.0115452966
 C   -0.6237834486    2.0617021466    1.1884620518
 O    0.4125676335    2.2026923251    2.1391231775
 C    1.5910128413    2.5551228435    1.4268689993
 C    1.4472296736    1.9482610371    0.0251675746
 C    2.5686917252    1.4126637779   -0.7730545661
 N    1.9811828645    2.7289937620   -1.0964107127
 H    0.0370145360   -2.3679006856    0.4001664346
 H   -0.4771872945    1.5897027620   -0.9481546951
 H   -0.9995661047    3.0434315207    0.8558005700
 H   -1.4394855542    1.5013002043    1.6476720121
 H    1.6952965444    3.6463507067    1.3367075984
 H    2.4464708603    2.1630587573    1.9838249184
 H    3.5809726291    1.4496985999   -0.3786585360
 H    2.3677772161    0.5682010991   -1.4271836958
 H    1.3782454027    2.6490331497   -1.9120838855