21

 C    0.0398363066    1.4765537991    0.0464300206
 C   -0.0110329643   -0.0622050593   -0.0441595321
 C   -1.4638015841   -0.5771214661   -0.0080230599
 C    0.6960717252   -0.5374278017   -1.2353533535
 C    1.2853565694   -0.8773048653   -2.2340604688
 C    1.9543571580   -1.3716572507   -3.4008151779
 C    3.3294516168   -2.0332270973   -3.2701938256
 C    2.1194373732   -2.8830528128   -3.5177801638
 O    1.6220829170   -3.7057737608   -2.5149721000
 H    1.0717562979    1.8366177315    0.0501663831
 H   -0.4747590078    1.9292223237   -0.8067587712
 H   -0.4508439022    1.8174726057    0.9636068864
 H    0.5092804441   -0.4652508111    0.8361823708
 H   -2.0290040250   -0.1955667160   -0.8639407909
 H   -1.4968515916   -1.6694837338   -0.0410223950
 H   -1.9614581263   -0.2443871833    0.9084762859
 H    1.7613236973   -0.8290096415   -4.3212449190
 H    4.0374396909   -1.8721816221   -4.0758453211
 H    3.7560295641   -2.0722327396   -2.2748614647
 H    1.9908249780   -3.3120953633   -4.5081901025
 H    1.0882705027   -3.1560817853   -1.9245259208