18

 N   -0.1285921073   -1.1057978599    0.3942998434
 C   -0.0729929646    0.0172068562    0.1283763457
 C    0.0193832668    1.4400264940   -0.2139918618
 C    1.4352201602    1.9736060841   -0.1159440846
 C    1.9942618729    2.4727154009    1.1914782604
 C    1.7435219347    3.4431531339    0.0628326669
 C    2.9279371755    3.7211847058   -0.8454531533
 O    3.5142826880    2.4475442027   -1.1009964891
 C    2.4778451721    1.4743253782   -1.1089395794
 H   -0.3727056292    1.5729667628   -1.2303728493
 H   -0.6445859025    1.9976698307    0.4555412834
 H    1.3186289375    2.5103043709    2.0391444883
 H    3.0212395573    2.2229807841    1.4378437531
 H    0.9573944071    4.1846051284    0.1494024240
 H    2.5874826662    4.2007948796   -1.7776391228
 H    3.7032265982    4.3499461745   -0.3962237098
 H    2.9272417394    0.5124785318   -0.8437779277
 H    2.0216669176    1.3799378911   -2.1097898076