23

 C    0.0778676355    1.5035018058   -0.0108794172
 C   -0.0149677318   -0.0093950367    0.0221192638
 C   -0.8868766770   -0.6225279600    1.0991553235
 C    0.6145759524   -0.7660102587    1.1747539258
 C    1.3306346163   -2.0569185334    0.7957976723
 C    2.2501520431   -1.7404417261   -0.4254748882
 C    0.9802484253   -1.9707643350   -1.2997904539
 C    0.4997292087   -2.9336414145   -0.1822560075
 C    0.1162027660   -0.6970572000   -1.3476800574
 H    1.0297114396    1.8365926134   -0.4418917088
 H   -0.7275652382    1.9376083815   -0.6164353115
 H    0.0003813309    1.9297074806    0.9948442961
 H   -1.3597157186    0.0619689607    1.7966831901
 H   -1.4932199409   -1.4898035328    0.8656968121
 H    1.1248661097   -0.1761367923    1.9326912398
 H    1.7666047832   -2.5488935421    1.6687648170
 H    2.7309425732   -0.7581213814   -0.4566328555
 H    2.9978937201   -2.5203188025   -0.5942095957
 H    1.1174282780   -2.3808208173   -2.3037812658
 H    0.9559064446   -3.9217837152   -0.2897153837
 H   -0.5723569325   -3.0633784758   -0.0171818382
 H   -0.8717720446   -0.9293735678   -1.7675872935
 H    0.5852566670    0.0093817495   -2.0440525136