18

 C   -0.0160943412    1.5722126626   -0.0042380381
 C   -0.0020899701    0.0403235826    0.0287038833
 O   -1.3568523249   -0.4527972748   -0.0074901322
 C    0.6481065647   -0.5351314572   -1.2381649668
 C    0.9462528550   -2.0256354761   -1.1739124622
 O    0.9200342896   -2.7688046584   -2.1301856871
 N    1.3429543706   -2.4683936040    0.0758092738
 C    1.2938215216   -1.6892970804    1.2270652776
 C    0.7133722499   -0.4864051605    1.2521522372
 H    0.9987477393    1.9824101310   -0.0168841518
 H   -0.5536754515    1.9261472634   -0.8882497546
 H   -0.5265850111    1.9637822610    0.8828743071
 H   -1.7253959495   -0.3574725283    0.8772395373
 H    0.0092304183   -0.3595215101   -2.1054258415
 H    1.6059342175   -0.0301572298   -1.4164282323
 H    1.6230571583   -3.4360633334    0.1261761868
 H    1.7682690721   -2.1330653993    2.0952904142
 H    0.7125795915    0.0971824219    2.1654591494