19

 O    0.0675526147    1.3931953999   -0.0505487761
 C   -0.0371312283    0.0070840761   -0.0040096638
 C   -0.4336855573   -0.7609003432    1.2471733479
 C   -1.1512533344    0.0370515205    2.2814479003
 C   -2.3098606272    0.5259173506    1.8173505384
 C   -2.5755121106    0.0752139852    0.4228023548
 C   -3.9697343899   -0.3025379952   -0.0360328309
 C   -3.3281290103    0.9485217957   -0.5655345591
 C   -1.3556703923   -0.7224993954    0.0123071480
 H   -0.4778365792    1.7494884812    0.6628942547
 H    0.7508322548   -0.4412442996   -0.6008210712
 H    0.1393229575   -1.6359786873    1.5348759044
 H   -0.7463738422    0.2172526747    3.2704296257
 H   -2.9866389532    1.1798935203    2.3567654043
 H   -4.0559426142   -1.1569506968   -0.6998608204
 H   -4.7826322498   -0.2068524534    0.6760374632
 H   -3.7022307724    1.9048914210   -0.2151006031
 H   -2.9733498412    0.9567800034   -1.5898954370
 H   -1.4873764143   -1.5885441677   -0.6277972802