15

 C   -0.0349668712    1.4547201813   -0.0426553130
 C    0.0226206597   -0.0536929192   -0.0248012733
 O    1.0747430042   -0.6705022362   -0.0005703011
 C   -1.2559300143   -0.7962557819   -0.0296193043
 N   -2.4219433181   -0.1768550924    0.0241461090
 O   -3.3680441461   -1.1557282712    0.0442884261
 C   -2.7685454221   -2.3733552169   -0.0049626599
 C   -1.4126695180   -2.2229174640   -0.0552006974
 N   -0.3971751200   -3.1492215738   -0.1805901664
 H    0.9781631432    1.8549006941    0.0021618380
 H   -0.5374747523    1.7993534212   -0.9521585784
 H   -0.6301504172    1.8223752559    0.7985683410
 H   -3.4294286208   -3.2239530959    0.0026709941
 H   -0.5685351984   -4.0514274235    0.2360064377
 H    0.5105421415   -2.7592985576    0.0372858778