17

 C    0.2126793668    1.4399992044    0.0641469500
 O   -0.2860895559    0.1710010217   -0.2971813974
 C    0.5292386618   -0.5040723207   -1.2149760887
 C    1.7664886709   -1.2390953107   -0.6481093869
 O    1.2178641951   -2.5216389496   -1.0059299382
 C    0.0177290246   -1.9236231522   -1.5610393482
 C   -1.2479237677   -2.4106248788   -0.8852903671
 H    1.1901148603    1.3727645973    0.5650998030
 H    0.3198109621    2.0968110583   -0.8133454560
 H   -0.5055947942    1.8857360542    0.7559415707
 H    0.7378354186    0.1347790466   -2.0850408271
 H    2.7214762675   -1.0431506908   -1.1514517392
 H    1.8959288698   -1.1300924888    0.4364373514
 H   -0.0304677551   -2.1086965540   -2.6427917723
 H   -1.2361510890   -2.1772463826    0.1808824389
 H   -2.1280867380   -1.9386171212   -1.3334432355
 H   -1.3336559875   -3.4941555932   -1.0122865673