20

 C   -0.6010844740    0.4726301853    1.0954838373
 C   -0.0999891972    0.4792712954   -0.3561109723
 C    1.2001441724   -0.3208706221   -0.5246464900
 N   -1.1361782983    0.0393013177   -1.3011533067
 C   -1.6336286460   -1.1026224543   -1.2594719468
 O   -1.3664930823   -2.2037697568   -0.4121047506
 C   -2.2527211814   -3.0270069334   -1.2089869088
 C   -3.6399171544   -2.5062189750   -1.1124734175
 C   -2.6393997264   -1.8502461704   -2.0731617638
 H    0.1443169146    0.9289533689    1.7551648536
 H   -1.5295084531    1.0449843870    1.1838605974
 H   -0.7907893619   -0.5475249936    1.4399677647
 H    0.1136674493    1.5197738083   -0.6281818970
 H    1.9928043025    0.1108588328    0.0951639531
 H    1.0575361578   -1.3637617066   -0.2294901770
 H    1.5322634362   -0.2989560229   -1.5668612266
 H   -1.9242378321   -4.0287819712   -1.4475468396
 H   -4.4069390545   -3.0923822937   -1.6096551337
 H   -3.9570205782   -1.9884499505   -0.2128263725
 H   -2.8101606527   -1.7579445552   -3.1352012431