17

 O   -0.0886707479   -0.0078146109    0.0065292087
 C   -0.0063563612    1.2007382241    0.0006839222
 C    1.2579778687    1.9383242797    0.0422313493
 C    1.3535515444    3.2768387149    0.0075178243
 C    2.7788319071    3.7505588669    0.0403734680
 C    3.5656426893    2.4571688359    0.2990459580
 C    5.0228295208    2.3622830497    0.1901820686
 O    4.3876248748    2.4427173757    1.4698292255
 C    2.6118171015    1.2722508716    0.1081826983
 H   -0.9155885887    1.8416566553   -0.0396429265
 H    0.5057143397    3.9517566507   -0.0516670388
 H    3.0581697899    4.2260437557   -0.9100853447
 H    2.9736558616    4.4848715455    0.8303359140
 H    5.4862195821    1.4041619579   -0.0437164958
 H    5.6036091393    3.2376081960   -0.1006273194
 H    2.6976951894    0.5644804706    0.9380414435
 H    2.8206997293    0.7114338807   -0.8108260252