15

 C    0.0716865276    1.4692452692    0.0296398744
 C   -0.0741968092   -0.0087944291   -0.0004082311
 C   -1.1674888912   -0.8159956431   -0.1613286965
 C   -0.6483331209   -2.1480004285   -0.0954738975
 C    0.7149491673   -2.0381270544    0.0994416892
 O    1.0894293045   -0.7297131207    0.1609694100
 C    1.2335435369   -3.3399358399    0.1656665668
 N    0.2348768714   -4.2151292337    0.0179685078
 N   -0.9000649503   -3.4799569206   -0.1397424712
 H    0.7412468897    1.8191933065   -0.7641757267
 H   -0.9025218283    1.9432209347   -0.1069971627
 H    0.4907467438    1.8087741944    0.9836279402
 H   -2.1809592237   -0.4770891631   -0.3033246719
 H    2.2425687308   -3.6927065924    0.3071909612
 H   -1.7703406584   -3.9650897792   -0.2650031021