18

 C    0.1169147542    1.5609433433    0.2130994828
 C    1.6356859912    1.9357681994   -0.0106911581
 C    2.1759844711    0.6273364566    0.5108967212
 C    2.2944206278    0.3661513656    1.8211371740
 C    1.4827751842   -0.8567613375    2.2111228760
 C    0.6784864878   -1.1031585092    0.9318915593
 C    0.0431267517    0.0168934906    0.0399439007
 C    1.4322125499   -0.4882851147   -0.2031782033
 H   -0.2004008168    1.8994313952    1.2045546561
 H   -0.5375991043    2.0403403821   -0.5237834867
 H    1.8374596143    2.1148227488   -1.0717792305
 H    1.9439042409    2.8125422035    0.5633186344
 H    2.6027308192    1.1013177045    2.5585340809
 H    2.0623356838   -1.7527076519    2.4787719407
 H    0.8649746000   -0.6163265424    3.0868734547
 H    0.1993900717   -2.0708235489    0.8065182616
 H   -0.7845548887   -0.3572179052   -0.5561345263
 H    1.8017366820   -0.9771812601   -1.0977293176