15

 C    0.0395928030    1.5769321927   -0.0249151884
 N    1.4698116751    1.8656115418    0.2053956828
 C    2.0513154639    0.7560483202    0.4167194794
 N    1.2748969010   -0.4159742403    0.3166241295
 C    1.1384482078   -1.3092385830    1.3982621060
 N   -0.0357980981   -1.5406767507    1.8243095366
 C   -0.9613346543   -0.6875657417    1.0513349488
 C   -0.1039974365    0.0301133390   -0.0271734875
 H   -0.5516738308    2.0613496206    0.7631626111
 H   -0.2743045196    2.0135750963   -0.9766959440
 H    3.1058511999    0.6652370469    0.6591465464
 H    2.0312142895   -1.7660261240    1.8146480489
 H   -1.7418843045   -1.3066852970    0.6013256770
 H   -1.4583857446    0.0100139354    1.7380995859
 H   -0.3553478117   -0.3338535864   -1.0267464125