13

 C   -0.0323962101    1.4061229144    0.0981445464
 N    0.1377155212   -0.0387573625    0.0718745815
 C    0.5968527348   -0.5937776009   -0.9508148843
 N    0.8167398693   -1.9552836524   -1.1404541360
 C    1.2984558980   -2.1230665125   -2.4071502643
 N    1.4289722035   -1.0071695252   -3.0546670277
 O    1.0009943970   -0.0189048154   -2.1528362542
 C    1.6274197640   -3.3901910911   -2.9642966141
 N    1.8809063888   -4.4394342391   -3.3769917259
 H    0.8103045815    1.8740775793    0.6213959899
 H   -0.1105335205    1.8606887507   -0.8964651427
 H   -0.9375719214    1.6438213062    0.6638388402
 H    0.6057572840   -2.6639709916   -0.4595820688