13

 O    0.0097911438    0.0313196912    0.1561995225
 C   -0.0178478843    1.2268949516    0.0391417181
 C   -1.1950339023    2.1515242638   -0.0622374901
 C   -0.8223334620    3.4884346923    0.5807581581
 C   -0.7662377585    3.3317377406   -0.8999641713
 N    0.7668920592    3.3572444768   -0.9129646783
 C    0.7254928415    3.4833794150    0.5667406847
 C    1.1355468423    2.1909152754   -0.0504414564
 H   -2.2146041540    1.7954462907   -0.0631588067
 H   -1.4855012818    4.0559813786    1.2163550028
 H   -1.3238747611    3.7687808415   -1.7160839789
 H    1.3871818942    4.1484632611    1.1084104621
 H    2.1619794028    1.8539124913   -0.1003731067