16

 C   -0.1437049423    1.5561290045   -0.0460893955
 C   -0.0161739037    0.0394920987   -0.0278048043
 O   -1.2381038584   -0.6081675053   -0.2800478773
 C    1.2308854374   -0.5003192772   -0.7802925113
 O    1.9109828909   -0.7660256028    0.4642859458
 C    0.7133610291   -0.5724264038    1.2160186730
 C    0.8577368175    0.2860232073    2.4457135353
 O    1.8492582365    0.8924698636    2.7546110595
 H    0.7997142262    2.0297897303    0.2372475778
 H   -0.4017949375    1.8987319806   -1.0558333404
 H   -0.9246006809    1.8931775279    0.6427390340
 H   -1.7513627448   -0.0727268925   -0.8939540184
 H    1.0152609675   -1.4190908846   -1.3395217581
 H    1.7874613139    0.2045349947   -1.4078483160
 H    0.2307486662   -1.5219607488    1.4978048296
 H   -0.0728335478    0.3270482176    3.0601007166