12

 N    0.0836775558    1.3879121603    0.1779602146
 C    0.0391254121    0.0177446424    0.0284676035
 N   -1.0311889291   -0.7427864616   -0.0508543827
 N   -0.6508749476   -2.1034772464   -0.0838272572
 C    0.6362333684   -2.0545475509   -0.0351886862
 O    1.6999069743   -2.9104643086   -0.0446639307
 C    2.7783751965   -2.0719754960    0.0266655829
 N    2.5272095575   -0.8066733959    0.0791715290
 N    1.1458159970   -0.7950594094    0.0424717526
 H    0.7870501102    1.8453883688   -0.3881287082
 H   -0.8317797386    1.7936300038    0.0315666657
 H    3.7556931634   -2.5262833465    0.0332914467