20

 C   -0.0981988287    1.5352857533   -0.0519323921
 C    0.1558504757    0.0443172287   -0.0240961710
 C    1.5496842759   -0.5297107984   -0.0676575118
 C    0.7077669477   -0.6925493371    1.1796582864
 C    1.1625474170    0.0244502692    2.4500931688
 O    2.4805896755   -0.2932974996    2.8276824554
 N    0.1154711704   -1.9999833845    1.3929857033
 C    0.7371805891   -3.0349686614    2.0019217885
 O    1.8554689508   -3.0098955773    2.4880901845
 H    0.7107074116    2.0970165597    0.4221581484
 H   -0.1686799151    1.8826427022   -1.0881158372
 H   -1.0342998619    1.7988187450    0.4526784212
 H   -0.5859787450   -0.5294027335   -0.5784509635
 H    1.7346110606   -1.4087334231   -0.6735594138
 H    2.3882025405    0.1536962349    0.0129689540
 H    1.1398678648    1.1066273269    2.2930520299
 H    0.4362606651   -0.2004418704    3.2487547876
 H    2.5357337774   -1.2639976671    2.8242605811
 H   -0.8342210646   -2.1479961664    1.0870353288
 H    0.1096788430   -3.9457348710    2.0218453815