18

 C    0.0358238622    1.4349919037   -0.0092951566
 N    0.0211086834   -0.0121094101   -0.0260053129
 C   -0.0076381254   -0.8267740656   -1.1532334212
 C   -0.0302670903   -0.2578803786   -2.5316512474
 C   -0.0135606665   -2.1353636963   -0.7264975514
 C    0.0272055065   -2.1227561419    0.6986942355
 O   -0.0259538287   -3.1669442940    1.6037446670
 C    0.0504039548   -0.8090553004    1.0890141123
 O    0.0769148108   -0.2509980031    2.3276449160
 H    0.9485818180    1.8318083122   -0.4677873454
 H   -0.8273367251    1.8430801952   -0.5452868740
 H   -0.0068658499    1.7701178112    1.0270789261
 H    0.8531751963    0.3561804371   -2.7533220154
 H   -0.0530297525   -1.0728495410   -3.2590093682
 H   -0.9109829793    0.3716938582   -2.7171637813
 H   -0.0481649033   -3.0058783161   -1.3642352770
 H    0.7266541100   -3.7471560728    1.4487454822
 H    0.0440351790   -0.9866021377    2.9511713416