16

 O    0.6328748220    0.3298926149   -1.1371042835
 C    0.0661800626   -0.3912280549   -0.0952864967
 C    0.1978519082    0.0921960499    1.3707960914
 C   -1.2442125326   -0.4409509322    1.6392573807
 C   -2.1203069412    0.2959822120    2.5205178033
 C   -2.8457225768    0.9231834678    3.2448315774
 C   -1.5054159716   -0.4093004304    0.0822308610
 C   -2.0910051883    0.8281114017   -0.3991894570
 N   -2.4818473419    1.8349472695   -0.8138316028
 H    0.2609401010    1.2211663459   -1.1396013883
 H    0.4182007281   -1.4204917365   -0.2051916372
 H    1.0082244543   -0.3132877049    1.9777640168
 H    0.2167922287    1.1843011058    1.4211784521
 H   -1.2028448392   -1.4920203333    1.9419855910
 H   -3.4892559407    1.4801642947    3.8801656148
 H   -2.0434452427   -1.2623771899   -0.3354634429