25

 C   -0.0060444403    1.6084213536    0.0446002396
 C    0.0274749595    0.0780254176    0.0269882067
 C   -1.3727824426   -0.5455641036   -0.0203050410
 C   -1.3780534378   -2.0886497472   -0.0240214500
 C   -2.8098175387   -2.6483859716    0.1103353015
 C   -2.8754642435   -4.1697950264    0.2914818075
 C   -4.3088024190   -4.6876665312    0.4360572967
 C   -0.7640005467   -2.5887521010   -1.3164164831
 O    0.2228971787   -3.2708395875   -1.4165459387
 H    1.0036472349    2.0279242372    0.0868720900
 H   -0.4940541255    2.0051402712   -0.8526989555
 H   -0.5593114884    1.9828489869    0.9132642926
 H    0.6169984490   -0.2665363623   -0.8319136386
 H    0.5538725811   -0.2899201028    0.9170436008
 H   -1.9553838883   -0.2011578352    0.8436010480
 H   -1.9093314066   -0.1812925789   -0.9085073657
 H   -0.7564209063   -2.4624281385    0.7983402868
 H   -3.2927276564   -2.1576080647    0.9649180549
 H   -3.3953097419   -2.3562283764   -0.7735914638
 H   -2.3893819736   -4.6665272703   -0.5575968867
 H   -2.2903648103   -4.4509932265    1.1765020327
 H   -4.3276660441   -5.7731650215    0.5723810988
 H   -4.8088753729   -4.2344525765    1.2994249412
 H   -4.9070196915   -4.4531888697   -0.4515472245
 H   -1.3264360189   -2.2597803548   -2.2263861299