23

 C   -0.3273892888    1.4458063400    0.0222396185
 C    0.0680905483   -0.0279059366    0.0829040380
 C    0.7156906958   -0.5752838241   -1.2102926964
 C    1.4980904308   -1.8161261139   -0.7574513525
 O    2.9360028869   -1.7078299238   -0.9104319838
 C    3.1441068845   -1.8675412133    0.5073887926
 C    1.6279306870   -1.7771968415    0.7945810226
 C    1.0061662365   -2.9027781878    1.6075110288
 C    1.1047599883   -0.3730291550    1.1740323184
 H    0.5483696066    2.0766431674   -0.1703461164
 H   -1.0528399111    1.6316136855   -0.7769415830
 H   -0.7783404156    1.7783178528    0.9634533463
 H   -0.8371338533   -0.6198892038    0.2818213357
 H   -0.0213878485   -0.7884289627   -1.9900890264
 H    1.4304288404    0.1496930884   -1.6163879456
 H    1.1295167308   -2.7533355690   -1.1932346143
 H    3.5899473679   -2.8440897813    0.7429421628
 H    3.7791237006   -1.0765477379    0.9256767184
 H    1.3244014471   -2.8532330865    2.6553822275
 H   -0.0882770852   -2.8447768539    1.5942482065
 H    1.2933294762   -3.8846201236    1.2166775042
 H    1.9183511736    0.3625752152    1.1414318682
 H    0.6798888913   -0.3392935548    2.1825140297