20

 C    0.2112622485    1.5323714775   -0.1802366322
 C   -0.0888683501    0.0503808662    0.0618800299
 O    0.3953133182   -0.7518604569   -1.0143828575
 C    0.5671438836   -0.4679416060    1.3243130639
 N    2.0134907683   -0.8321169096    1.2958108292
 C    0.9905091802   -1.8803037623    1.5288037610
 C    0.7905378131   -2.2348125034    2.9984343648
 C    0.2807164569   -0.9367326552    3.5931144316
 C    0.1369835063    0.0196587834    2.6736753189
 H    1.2902778619    1.6965460749   -0.2545600596
 H   -0.2600911851    1.8752960544   -1.1089548278
 H   -0.1783371520    2.1529222034    0.6320922871
 H   -1.1789056902   -0.0810652616    0.1642488082
 H    0.1115580523   -0.3474460404   -1.8394599182
 H    2.2731276995   -0.9023427513    0.3111645755
 H    0.8427931185   -2.6249393123    0.7559309410
 H    0.0678240506   -3.0518078868    3.1246569344
 H    1.7267884950   -2.5598752296    3.4681768093
 H    0.0952868934   -0.8152262736    4.6546840541
 H   -0.2044162190    1.0302391390    2.8651539464