17

 C    0.0501033682    1.1204153567    0.4217629505
 N   -0.1387861809   -0.0411096512   -0.4473778129
 C   -1.4366958082   -0.6337253357   -0.3423597744
 C   -1.6701721483   -1.9702678262   -0.9808544650
 C   -1.5429217619   -1.8801798050    0.5442150287
 N   -0.3559689511   -2.3041661172    1.2345465191
 C   -2.7646483979   -2.0324563836    1.3015938887
 N   -3.7562070150   -2.1598395170    1.8837706315
 H    1.0469384004    1.5378118918    0.2576657558
 H   -0.6935921658    1.9177221074    0.2599831719
 H   -0.0183103878    0.8027931673    1.4663460324
 H    0.0592063247    0.1965034494   -1.4128796786
 H   -2.2944696369    0.0405229114   -0.2953960673
 H   -2.6424377512   -2.1688476864   -1.4165795195
 H   -0.8281994464   -2.4357980948   -1.4818982643
 H   -0.2182142554   -3.3052171193    1.1425872107
 H    0.4354096032   -1.8281950176    0.8080913728