18

 C    0.0336180359    1.4659681755   -0.1135668026
 C    0.1049548878   -0.0316160588   -0.0758222266
 C    0.5698823780   -0.9762803731   -1.1945321252
 C    0.0458139799   -1.8821094578   -0.0857350805
 C    0.5936345530   -0.9920335706    1.0623880888
 C   -0.8050001947   -1.0038003497    1.6913293559
 C   -1.2686991746    0.0672167206    2.5490980643
 C   -1.6585576740    0.9198794178    3.3032167343
 N   -1.1542973093   -0.9363255117    0.1899002676
 H    1.0348802731    1.8846655555   -0.2645061722
 H   -0.5985959191    1.7896593755   -0.9468823618
 H   -0.3765645909    1.8736037217    0.8123465978
 H   -0.0170542588   -0.9514057965   -2.1171799739
 H    1.6437568384   -1.0095138948   -1.3970802306
 H   -0.1020327094   -2.9629625919   -0.0668600981
 H    1.5750272784   -1.0278592859    1.5470951859
 H   -1.1120162075   -1.9697166292    2.1108449269
 H   -2.0046621162    1.6806558035    3.9584604699