18

 C   -0.0042606099    1.5602121221    0.0832661964
 C   -0.0083761369    0.0326608495   -0.0099421287
 C    0.7115513319   -0.5005672123   -1.2552026643
 O    2.0643855872   -0.0434558886   -1.3099293272
 C    0.6331234842   -2.0284501770   -1.3680447377
 C    1.2826345421   -2.5748778943   -2.6414953667
 H    1.0185406346    1.9442153099    0.0485467493
 H   -0.5527479518    2.0060376401   -0.7539543331
 H   -0.4729800785    1.9038575248    1.0102989087
 H    0.4708477237   -0.3985347551    0.8819094077
 H   -1.0391672317   -0.3438029143   -0.0105928190
 H    0.2470195957   -0.0574223425   -2.1471487009
 H    2.5214235430   -0.4070383426   -0.5425332023
 H    1.1154208666   -2.4691815092   -0.4825310371
 H   -0.4204485760   -2.3316993900   -1.3203224243
 H    0.7604333640   -2.2138084238   -3.5345075745
 H    2.3228190723   -2.2467467668   -2.7131362260
 H    1.2613191995   -3.6686425100   -2.6616029003