19

 C   -0.0464151755    1.4772258435   -0.0076044044
 C   -0.0020999778   -0.0275920822    0.0612133977
 O   -1.3178305163   -0.6342312403    0.0537984046
 C   -1.0190828086   -1.4005261782    1.2493580025
 C    0.4237622550   -0.8448730619    1.2927422843
 C    1.5541785232   -1.5066394248    0.4742423659
 C    1.1253674340   -2.1810601243   -0.7950226601
 O   -0.0171710854   -2.9656412014   -0.9813312995
 C    1.1040830937   -0.6950764849   -0.7988303861
 H    0.9546667903    1.9041101668    0.1129767605
 H   -0.4370422380    1.7961800481   -0.9808912101
 H   -0.7000485330    1.8800157979    0.7710960804
 H   -1.6417517932   -1.0697629297    2.0902112941
 H   -1.1442036122   -2.4730221211    1.0919702522
 H    0.7539024883   -0.3568638220    2.2090885160
 H    2.5566345232   -1.6443848155    0.8649342135
 H    1.9905983509   -2.5537047456   -1.3500415781
 H    0.1846887988   -3.8477642910   -0.6509914542
 H    1.7074830128   -0.1367140836   -1.5078572392