14

 N   -0.0140411924    1.3982714176   -0.0829034879
 C    0.0233000708    0.0069010779   -0.0381173413
 N   -1.1567116106   -0.6195250345   -0.0048046836
 C   -1.1747912780   -1.9520547615   -0.0260857359
 C   -0.0252917669   -2.7371492029   -0.0694619638
 O   -0.1677687430   -4.0970228804   -0.0797063008
 C    1.2056504572   -2.0815581278   -0.0953620272
 C    1.2366064353   -0.6961001593   -0.0837448218
 H    0.7662924413    1.8693712271    0.3500189629
 H   -0.9069487172    1.7664159534    0.2137712814
 H   -2.1478376085   -2.4361310049   -0.0014016575
 H    0.7030978307   -4.5048341171   -0.1153725252
 H    2.1320024339   -2.6499356655   -0.1273228007
 H    2.1813852275   -0.1639988721   -0.1156106486