20

 C   -0.0501968708    1.5102302077    0.3131658465
 C   -0.1255631465   -0.0067726900    0.1356424615
 O    0.2288452942   -0.6736071281    1.3468346451
 C   -1.4876971620   -0.5027847541   -0.3920662305
 C   -1.8572356644    0.0972473660   -1.7578019166
 C   -1.4920905439   -2.0161979141   -0.4844915644
 C   -2.0590691057   -2.8805818069    0.5505996409
 O   -2.7696163450   -2.6358927679   -0.6670564023
 H    0.9099712778    1.7775983877    0.7623061467
 H   -0.1444569367    2.0408650229   -0.6379450298
 H   -0.8495547179    1.8661416086    0.9758663035
 H    0.6513341234   -0.3175814313   -0.5759153333
 H   -0.3909028667   -0.3893082567    2.0279202264
 H   -2.2616895582   -0.2139667654    0.3349492966
 H   -2.0092468399    1.1780917125   -1.7025273458
 H   -1.0712679652   -0.0959613327   -2.4977162211
 H   -2.7819305981   -0.3569008420   -2.1234697830
 H   -0.7062995474   -2.4367216175   -1.1171296002
 H   -1.6844465521   -3.8946886290    0.6811202138
 H   -2.4955527549   -2.4325441796    1.4426158760