20

 C   -0.0284726923    1.5267386485   -0.0824820009
 C    0.0499116378    0.0106093402   -0.0029330980
 O    0.6690844548   -0.4503801660   -1.1874965756
 C    0.6854252062   -1.8659573063   -1.3019889850
 C    1.4598800058   -2.5172732637   -0.1557353395
 C    0.8860209506   -2.0623451177    1.1909854856
 C    0.8030975352   -0.5171398082    1.2512713605
 C    2.1394539270    0.0752471926    1.3627002855
 N    3.1955598845    0.5344231462    1.4637144342
 H    0.9731544945    1.9601239780   -0.1451002514
 H   -0.5895950706    1.8207722301   -0.9726899271
 H   -0.5323533542    1.9346281812    0.7990575276
 H   -0.9703009229   -0.4088848083    0.0643890330
 H   -0.3494715864   -2.2501140300   -1.3230457734
 H    1.1450877498   -2.0846267019   -2.2694683619
 H    1.4086320188   -3.6076755436   -0.2449812870
 H    2.5150695299   -2.2304598234   -0.2260190268
 H   -0.1322673497   -2.4519177726    1.3132789929
 H    1.4805550761   -2.4427612218    2.0261027098
 H    0.2380873050   -0.2163680834    2.1418194574