16

 N   -0.0970993201    1.2473706992    0.2481137655
 C   -0.0415410578    0.0124258654   -0.0218819715
 O    1.1152679782   -0.6708138169   -0.3537898633
 C    0.7655738479   -2.0154898699   -0.6978919493
 C    1.3503065776   -3.1854783747    0.0627145081
 C    0.3865488590   -4.0668672094    0.3516198613
 C   -1.0061055110   -3.5899391742   -0.0632528445
 C   -0.6917218140   -2.1480325178   -0.3352634443
 C   -1.1545068297   -0.9545634253    0.0306163451
 H    0.8312560757    1.6684637968    0.1921983739
 H    0.9692378036   -2.1283880210   -1.7748864121
 H    2.4108531675   -3.3200030532    0.2347834103
 H    0.5449689221   -5.0386852250    0.8056079951
 H   -1.3582064427   -4.1328099222   -0.9523192942
 H   -1.7634732338   -3.7271634731    0.7148002510
 H   -2.1215628927   -0.6882257187    0.4311259289