16

 C   -0.1041097618    1.5489795685   -0.0157790204
 C    0.1811559992    0.0637618389    0.0305090368
 O    1.3690014344   -0.3549921699   -0.7382008600
 C    1.8082547559   -1.1733593776    0.3529236398
 C    2.2652994159   -2.4995317151    0.0964067642
 N    2.6445554067   -3.5777726189   -0.0848405025
 C    2.2002506289   -0.2718106482    1.4857808846
 O    2.7866239496    0.9577268167    1.2386267516
 C    0.7319120486   -0.5982574348    1.2925891053
 H    0.6990791491    2.1308155392    0.4383758409
 H   -0.2474884544    1.8718735128   -1.0517465890
 H   -1.0303398612    1.7565948216    0.5305153353
 H   -0.6710441786   -0.5058417935   -0.3579537901
 H    2.6411891747   -0.7721690929    2.3429747201
 H    2.7384749567    1.0993297829    0.2827341144
 H    0.1466368263   -1.1101499396    2.0448442188