13

 O   -0.1125244044    1.4585313220    0.2285609239
 C    0.0218957134    0.0936519098   -0.0195140645
 C   -1.2817536216   -0.7078574546    0.0307336176
 O   -2.0843703946   -0.3062346907   -1.0489325497
 C   -1.0728626279   -1.2917816941   -1.3459464706
 C   -1.4729650232   -2.6285929332   -1.8598888107
 O   -2.5877284844   -3.0736872820   -1.7758386477
 C    0.2050381295   -0.4617763028   -1.4783826559
 O    1.0644025255   -0.3610764034   -2.3000609518
 H    0.6981482468    1.8982310849   -0.0508425427
 H    0.7963688056   -0.3847081566    0.6058575529
 H   -1.7575789804   -1.1997320316    0.8708643581
 H   -0.6386510344   -3.1968858975   -2.3211645788