23

 C   -0.0942235508    1.5109839229    0.0484079009
 C   -0.0858935175    0.0176732577   -0.0127431262
 C   -0.1028898473   -0.7681015395   -1.0945540627
 C    0.0251029343   -2.2313233360   -0.6924333887
 C   -0.5749133934   -2.1762789733    0.7294311607
 C    0.0502745918   -0.8600085492    1.2333343868
 C    1.5467805757   -1.1315489669    1.5438904890
 C    2.3114235798   -1.6285208687    0.2945390313
 C    1.5170030987   -2.6399077337   -0.5636776259
 H    0.8144665513    1.8964119535    0.5295431445
 H   -0.1619364990    1.9567180508   -0.9481361836
 H   -0.9381219388    1.8802527687    0.6456082450
 H   -0.1121319414   -0.4230934908   -2.1233955613
 H   -0.4995827739   -2.9208701855   -1.3609044169
 H   -1.6655869196   -2.0956392289    0.6855673612
 H   -0.3129575009   -3.0437588891    1.3450529027
 H   -0.4492854350   -0.4441121268    2.1148142094
 H    2.0350706396   -0.2300487019    1.9329427722
 H    1.5977214593   -1.8803879437    2.3443940896
 H    2.5516196514   -0.7625030652   -0.3300744009
 H    3.2711614763   -2.0635405769    0.5940494727
 H    1.5626553400   -3.6402803432   -0.1143400427
 H    1.9840705597   -2.7213144644   -1.5521356768