15

 N   -0.0433907548    1.2697070890    0.5190985430
 C    0.0378967357    0.1396641307   -0.2588601241
 O    1.0411777791   -0.1339977970   -0.8894812851
 C   -1.2202226838   -0.6731886684   -0.2713200777
 C   -1.5942306777   -1.6477500524   -1.3698681551
 O   -0.5649863040   -2.1141488166   -2.2155482016
 C    0.2855143082   -2.7887301928   -1.3988122502
 N   -0.0228877624   -2.9226336011   -0.1710591889
 C   -1.2514323983   -2.1919108541   -0.0040554132
 H    0.8212517505    1.7652154625    0.6719590241
 H   -0.7595735731    1.3674484234    1.2187267582
 H   -2.0928853769   -0.1725803534    0.1378677985
 H   -2.5592327890   -1.6035648254   -1.8572155676
 H    1.1743359281   -3.1704448838   -1.8822685104
 H   -1.9556350116   -2.5666634604    0.7283017001