17

 C   -0.0674634970    1.4899902474   -0.0558147061
 C   -0.0167970243   -0.0048825438    0.0244415582
 O    0.6492349551   -0.5867064630   -1.1162856446
 C    0.0934306822   -1.9029021340   -1.2548437447
 C   -0.7930768702   -1.9977787763   -0.0025387797
 C    0.1008244506   -2.0824376652    1.2470280365
 C    0.6925198996   -0.6597099304    1.2332725152
 O    1.5120778779   -0.1775639827    1.9644626847
 O   -1.2789472344   -0.6388156605    0.0600253164
 H    0.9469935882    1.8880319531    0.0155423708
 H   -0.5162387422    1.8012141375   -1.0011481996
 H   -0.6544347496    1.8866731524    0.7755614305
 H   -0.4919512511   -1.9642044687   -2.1787072317
 H    0.8931831082   -2.6502931074   -1.2789886827
 H   -1.6297696309   -2.6915531443   -0.0549802351
 H   -0.4965966114   -2.2264298813    2.1517501136
 H    0.8807556393   -2.8468148528    1.2175710683