23

 C    0.1037035893    1.5450787300   -0.0430655623
 C    0.0085743125    0.0175727182    0.0219003666
 C   -1.4229136300   -0.5383266739    0.0043795994
 C   -2.2085861067   -0.1376589223   -1.2605253628
 C   -3.4715016143   -0.9384766311   -1.4509618896
 C   -3.7717823718   -2.0299924048   -0.7454238046
 C   -2.8590261915   -2.6006206603    0.3122465468
 C   -1.4269976835   -2.0734686502    0.1546256049
 O   -0.7653248061   -2.7097163689   -0.9391837611
 H    1.1444515245    1.8744765265    0.0366714630
 H   -0.2918643396    1.9402086392   -0.9840167530
 H   -0.4556095510    2.0145934752    0.7746977573
 H    0.5643803200   -0.4312924558   -0.8095019274
 H    0.5022636733   -0.3316741080    0.9384063604
 H   -1.9622058704   -0.1363579580    0.8751959078
 H   -2.4605638704    0.9288150447   -1.2260115120
 H   -1.5650061693   -0.2486874568   -2.1471536445
 H   -4.1613204135   -0.5856011378   -2.2146631597
 H   -4.7088751509   -2.5501876057   -0.9289086285
 H   -3.2421350117   -2.3589777229    1.3138792317
 H   -2.8404870631   -3.6954690931    0.2511932718
 H   -0.8359489869   -2.3499141389    1.0351921710
 H   -1.3704426690   -2.6885306154   -1.6893392352