15

 N   -0.0434707072    1.4043244308   -0.0088140609
 C    0.0448922154    0.0155792482   -0.0651373612
 O    1.1256520969   -0.5515440497   -0.2034095008
 C   -1.1949720960   -0.7206761411   -0.0056006887
 C   -1.3634115565   -2.0996817058    0.0925971043
 N   -0.3791049710   -3.0347182776    0.2237165219
 N   -2.6936407723   -2.4288217949    0.1062678533
 C   -3.3344553135   -1.2794562053    0.0095578331
 N   -2.5015757775   -0.2166362621   -0.0357704588
 H    0.8616737851    1.8429425568    0.0947356743
 H   -0.7481367477    1.7935109788    0.6012059808
 H    0.5352973721   -2.7149621665   -0.0655439631
 H   -0.6379442122   -3.9767814694   -0.0220979232
 H   -4.4085659682   -1.1707960841   -0.0295508450
 H   -2.7620539075    0.7265418119   -0.2690336861