19

 C   -0.0022860650    1.4592396741   -0.7180325418
 C    0.0040377656    0.0779676316   -0.0943474016
 C    1.1243516223   -0.8542645305   -0.3986764717
 N    1.0046826738   -0.2336165717    0.9309236073
 C   -1.3752411745   -0.4807754723    0.1326081333
 N   -1.5412986411   -1.5935046438    1.0597897019
 C   -2.1508191953   -0.2849195496    1.4029443822
 C   -1.6501859850    0.4368215639    2.5402521538
 C   -1.3082479099    1.0871474651    3.4917881190
 H    1.0159818787    1.7923717194   -0.9425582865
 H   -0.5721254161    1.4739253046   -1.6544137676
 H   -0.4594941298    2.1869539310   -0.0382712778
 H    0.9435759648   -1.9254420416   -0.4045594443
 H    1.9032172589   -0.5127808407   -1.0763558245
 H    1.6523914198    0.5454585768    1.0193533644
 H   -1.9838421638   -0.4828568887   -0.7728290276
 H   -2.2685789025   -2.2239350958    0.7321528981
 H   -3.2296024659   -0.2044872391    1.2783843393
 H   -0.9805302650    1.6405415473    4.3364514143