19

 C   -0.1614033642    1.6353494970    0.0549966568
 C    0.0215948525    0.1273590851    0.0054365061
 C    0.8781129517   -0.6118787068   -1.0833081811
 C    0.6136897299   -0.7512349966   -2.5521342183
 C    2.1719708930   -0.1130310755   -0.3748564735
 C    1.1988826488   -0.6148742639    0.7240925842
 N    0.9767458089   -1.8304979841   -0.1599647822
 C    1.4337268714   -0.7195219081    2.1440912431
 N    1.6012372774   -0.7748396298    3.2868423088
 H    0.7596341558    2.1919357908   -0.1331195399
 H   -0.8981380544    1.9484530859   -0.6926652320
 H   -0.5405499924    1.9402345255    1.0359364253
 H   -0.9362747200   -0.3763458135    0.1864078075
 H    0.6461839133    0.2257838913   -3.0450255162
 H    1.3648622456   -1.3970521317   -3.0165766566
 H   -0.3740331697   -1.1885077026   -2.7334065831
 H    3.0498741460   -0.7419160581   -0.5198191406
 H    2.4019804389    0.9503262900   -0.4006057418
 H    0.0332847075   -2.1952063647    0.0163860135