19

 C   -0.0276876631    1.5021893449    0.0269657683
 C   -0.0063795764    0.0111978634   -0.0392700648
 C   -0.0175925013   -0.7768359678   -1.1166350802
 C    0.0137530856   -2.1923645988   -0.6959042843
 O    0.0151338492   -3.1958213433   -1.3528113535
 O    0.0439590638   -2.2098293882    0.6771212636
 C    0.0343596194   -0.8668313099    1.2022047084
 C    1.3189252101   -0.6730807508    2.0175482338
 C   -1.2190108782   -0.7129406587    2.0727349981
 H    0.8593987273    1.8873690157    0.5434174641
 H   -0.0597696605    1.9425210662   -0.9719300162
 H   -0.8985537893    1.8605818050    0.5882771776
 H   -0.0448920045   -0.4866609716   -2.1573163818
 H    2.1992608549   -0.8109332391    1.3844814709
 H    1.3546319843    0.3279832370    2.4572760145
 H    1.3557279587   -1.4062605918    2.8274320765
 H   -1.1976893190   -1.4466990657    2.8826501148
 H   -1.2667929824    0.2866206397    2.5147202674
 H   -2.1212912286   -0.8783772262    1.4783593528