17

 C    0.1449567579    1.2954168529   -0.2176025587
 N    0.0236770661   -0.1292587184    0.0894009705
 C    0.5907962253   -0.5161834665    1.3817131342
 C    0.3229394491   -1.9943208202    1.6722760324
 C    1.4772374709   -2.6836701162    0.9313138344
 O    2.5721706663   -1.7541052012    0.9913364183
 C    2.1252581850   -0.4967537017    1.2407187179
 O    2.8597704198    0.4467971609    1.3059382846
 H    1.1999025601    1.5669319183   -0.2951051884
 H   -0.3339469394    1.4940625380   -1.1802590722
 H   -0.3126057538    1.9508569820    0.5435032604
 H   -0.9561793243   -0.3924191696    0.0808966963
 H    0.2963024372    0.1513167474    2.2068666234
 H    0.3937111553   -2.1825883208    2.7475182723
 H   -0.6584094306   -2.3326978495    1.3297954468
 H    1.8062380649   -3.6158188969    1.3947192341
 H    1.2336890603   -2.8667933288   -0.1197179663