17

 O   -0.6928364352    0.7449671484   -0.5764712261
 C    0.0584794687    1.0748937909    0.2954099489
 C    1.3324285333    1.9155191451    0.0978957698
 C    1.4473936755    2.4430278860   -1.2784732540
 N    1.5689997912    2.9384868682   -2.3152375132
 N    1.4064167273    2.9191614367    1.1361964889
 C    0.5678037638    4.1440215710    1.0681568359
 C    1.7385438192    4.9272555691    1.7098031579
 C    2.6346484155    3.7325152409    1.3020512949
 H   -0.0872983925    0.8042112931    1.3620778310
 H    2.1669790523    1.2153455620    0.2597739043
 H    0.3636261232    4.4692880119    0.0386668091
 H   -0.3748063004    4.0768012425    1.6190833077
 H    1.9804999588    5.8948606842    1.2719763870
 H    1.6368889505    5.0277978024    2.7912632596
 H    3.3407725244    3.3357566707    2.0379089838
 H    3.1611716644    3.9154702267    0.3546535944