17

 C   -0.0523298393    1.4226101338   -0.0162219297
 N   -0.0074491235   -0.0167637335    0.1246886161
 C    0.6770582091   -0.6341642899    1.1065853723
 N    1.2746896300   -0.0843122708    2.1081759063
 C    1.8009179820   -1.1494136789    2.9456124701
 C    0.7795187371   -1.9747649264    3.6554966241
 C    1.4348329194   -2.4996827344    2.3624511765
 C    0.7330350575   -2.1556383799    1.0965719821
 O    0.3174194092   -2.8583499620    0.2056941102
 H    0.8994951386    1.8362774295   -0.3754634798
 H   -0.8431772585    1.6933520182   -0.7188570087
 H   -0.2664085058    1.8751330759    0.9556376802
 H   -0.2880123371   -0.6125654108   -0.6390642970
 H    2.7684711062   -0.9654943121    3.3974126573
 H    1.0580357058   -2.5101536850    4.5576368260
 H   -0.2525632115   -1.6415253279    3.6170573635
 H    2.0437639708   -3.3917879659    2.4139928405