15

 N    0.2312607399   -1.1795318609   -0.1917498669
 C    0.1362790331   -0.0360114424   -0.0517835034
 C    0.0485002436    1.3946669987    0.0927085730
 C    0.2148135368    2.2875760504   -1.1201157953
 C    1.2886775249    2.2499040732   -0.0651956815
 C    1.4577181315    3.3868598286    0.9296812769
 N    0.3328876089    3.6298406340    1.8201348811
 C   -0.6572531470    2.8530590602    1.8234893280
 O   -0.9154407156    1.7546254415    1.0530923115
 H    0.4022833904    1.8140882888   -2.0762961615
 H   -0.4457963983    3.1482693290   -1.1481296569
 H    2.1955667809    1.7125528798   -0.3208895365
 H    2.3300669465    3.1764133877    1.5595717241
 H    1.6830705869    4.3239251802    0.4051802283
 H   -1.4936825727    3.0066250612    2.5007280791