15

 O    0.0442763864    0.0350563529    0.4486624222
 C   -0.0200134428    1.1934725811    0.0835839680
 C   -1.3031340163    1.8714091023   -0.1863401283
 C   -1.3855376226    3.0228806344   -0.8633550487
 C   -0.2105870944    3.7737044294   -1.4215178741
 C    1.1273346309    3.2980890358   -0.8954985319
 N    1.2713653743    3.3079040597    0.5592886257
 C    1.2202292275    2.0041126739   -0.1529323367
 H   -2.1906720653    1.3470137498    0.1527379889
 H   -2.3639165626    3.4540196944   -1.0648002771
 H   -0.2284437700    3.6903302646   -2.5179146372
 H   -0.3264120284    4.8446471682   -1.2061592301
 H    1.9913211478    3.5819677682   -1.4921488911
 H    2.2358623577    3.5006953645    0.8169694140
 H    2.1295764578    1.4139708909   -0.2129695336