17

 C   -0.0328225016    1.5773180198   -0.0189174923
 C   -0.0072971417    0.0363244233   -0.0471065653
 C   -1.4265127208   -0.5614200013    0.0573362566
 C    0.6777586989   -0.4647488650   -1.2347160466
 C    1.2329034731   -0.8830980102   -2.2230118547
 C    1.8963511730   -1.3997228791   -3.3943853401
 O    1.9904508509   -2.5872002906   -3.6399116987
 C    2.4517790201   -0.3857566836   -4.2727101359
 C    2.9161810586    0.4464823125   -5.0077734131
 H    0.9778382503    1.9902009485   -0.0680739428
 H   -0.6026624598    1.9691765827   -0.8667318744
 H   -0.5059502283    1.9263484529    0.9038531509
 H    0.5676752974   -0.3118745842    0.8227903187
 H   -2.0414877803   -0.2447073068   -0.7901793155
 H   -1.3949362131   -1.6534908167    0.0669709317
 H   -1.9068567586   -0.2175346358    0.9782248546
 H    3.3289084818    1.1756399337   -5.6618231529