19

 C    0.0172904445    1.4453894813    0.0928061185
 C   -0.0115480908   -0.0068713439    0.0212365691
 C   -0.0353382532   -1.2109902610   -0.0321697001
 C   -0.0419294404   -2.6296252750   -0.0947849091
 C   -0.3853713140   -3.4687715402   -1.2952027169
 C   -1.1551034450   -3.6726902050   -0.0117806788
 C   -0.2709372271   -4.3419424306    1.0388232795
 C    0.1601760811   -5.7863279820    0.8948878809
 O    0.8044970974   -3.3854637420    0.7906034015
 H    0.6647116950    1.7808580996    0.9105221885
 H    0.3967769028    1.8884991120   -0.8346853591
 H   -0.9824715282    1.8554997379    0.2751359705
 H   -0.9405499444   -2.9567547882   -2.0739691963
 H    0.3399102409   -4.1981973084   -1.6439166730
 H   -2.2239641014   -3.5258593531    0.0611609750
 H   -0.6709058837   -4.1623949904    2.0455751954
 H    0.5082902134   -6.0036322575   -0.1181968838
 H    0.9747312505   -6.0071594931    1.5919793971
 H   -0.6764593074   -6.4539363404    1.1275431912