15

 O    0.1830894291    1.4038438158   -0.0704950909
 C    0.0338218037    0.0202992191   -0.0173823520
 C    0.6714459482   -0.6439140414   -1.1775004306
 N    1.1751059855   -1.1792940203   -2.0695356071
 C    0.6750353944   -0.5183616107    1.2930779627
 O    1.3324568029    0.2450170213    1.9696119828
 N    0.3491061555   -1.7935976616    1.6502543675
 C    0.5933603412   -3.0535451177    0.9666032744
 C    1.2135640218   -2.7480616753    2.3011052695
 H    0.8217186641    1.6098249698    0.6360139022
 H   -1.0302459731   -0.2508082923   -0.0220111170
 H   -0.2574787441   -3.7258706790    0.9108842529
 H    1.2319319648   -3.0354323784    0.0895357840
 H    2.2729112514   -2.5102647867    2.3309995262
 H    0.8122188247   -3.2116482724    3.1968387456