18

 O    0.2918669065    1.1818687440   -0.4837724412
 C    0.1658423890   -0.2095513327   -0.2784961360
 C   -1.2847443806   -0.5911201322    0.0314272125
 C   -2.2307666462   -0.5196318867   -1.1983734004
 O   -1.7532674300    0.3181607759   -2.2314746776
 C   -2.1022805645   -2.0542617599   -1.3831863576
 C   -1.5745930454   -2.1347637852    0.0844381963
 C   -0.4751967627   -3.0423550703    0.3638386210
 N    0.4039089311   -3.7632227875    0.5762880737
 H   -0.2358031342    1.3828298498   -1.2664257750
 H    0.5402019086   -0.7840802747   -1.1391224190
 H    0.7989898201   -0.4663915618    0.5766485727
 H   -1.6140666730   -0.0293914056    0.9079427525
 H   -3.2481621046   -0.2336055895   -0.9021277448
 H   -2.4214808647    0.3927845228   -2.9191386915
 H   -2.9993699784   -2.6293585311   -1.6184181821
 H   -1.3155644442   -2.2908737565   -2.1021144618
 H   -2.3875281865   -2.3491748687    0.7831634882