18

 N   -0.1426195160    1.2360782560   -0.3127161060
 C    0.0645233832   -0.0903658614   -0.0602304703
 O    1.1404769307   -0.6141761642    0.1047377705
 O   -1.1232785983   -0.7493257742   -0.0538678338
 C   -1.0278800869   -2.1687542183    0.1396711894
 C   -2.4372208884   -2.7182211063    0.1303818498
 C   -3.1468259929   -2.7593671352   -1.2408726500
 O   -3.1402273903   -4.2025735824   -1.2527299599
 C   -2.5420008292   -4.2583171308    0.0569204314
 H    0.6349944476    1.8487852505   -0.1384371291
 H   -1.0715118550    1.6104607749   -0.2222405956
 H   -0.4239871010   -2.6061557403   -0.6633792549
 H   -0.5182359234   -2.3765261143    1.0867155807
 H   -3.0233604684   -2.2578296481    0.9286097081
 H   -4.1659659511   -2.3540981576   -1.2579286067
 H   -2.5808007570   -2.3349921149   -2.0792751928
 H   -1.5880611894   -4.8022167470    0.0526693322
 H   -3.2083233444   -4.7196094264    0.7962358170