17

 N   -0.1197946108    1.1878772190   -0.1883910504
 C   -0.0766328322   -0.0521332877   -0.0324825267
 O    1.0201790531   -0.9076546799    0.1195350585
 C    0.1570671466   -2.0478268583    0.2699362751
 C    0.3558969280   -3.4667801071   -0.2080544622
 C   -0.6581687806   -3.8895514994    0.9154711984
 C   -0.5121920736   -2.4822223235    1.6033217618
 N   -1.5794482052   -1.4744153687    1.4263099022
 C   -1.0992361516   -1.1825409995    0.0486977900
 H    0.8142228570    1.6017269195   -0.1730128687
 H    0.1093289587   -3.6977569543   -1.2472126972
 H    1.3638207896   -3.8327104820    0.0084097647
 H   -1.6674546793   -4.0787270082    0.5426415654
 H   -0.3428168870   -4.7352692415    1.5279302660
 H   -0.0210125279   -2.4828158738    2.5780303905
 H   -2.5303568764   -1.8235235274    1.4753772110
 H   -1.8001729784   -1.2804158973   -0.7814666684