18

 C   -0.1143745803    1.6043906402    0.0882757690
 C   -0.0334678587    0.0687959800   -0.0098020548
 C   -1.3791417502   -0.5108161688    0.0517312323
 N   -2.4391531457   -0.9666403274    0.1128777370
 C    0.6919549366   -0.4409272244   -1.2936722949
 O    0.0814087835    0.0530464408   -2.4646306747
 C    2.2060842333   -0.1388371993   -1.2400929835
 C    2.9285815475   -0.6782403498   -2.3839827020
 C    3.5209863411   -1.1261791665   -3.3279555468
 H    0.8845787879    2.0458339352    0.1344601478
 H   -0.6462687322    2.0136844555   -0.7740792042
 H   -0.6552313761    1.9021896121    0.9889929459
 H    0.5169028642   -0.3178605163    0.8578862706
 H    0.5642530354   -1.5271217112   -1.3372475474
 H    0.4244922914    0.9329435072   -2.6521674506
 H    2.3641367594    0.9473106792   -1.1866134444
 H    2.6192558922   -0.5511814279   -0.3106768093
 H    4.0428905309   -1.5238263786   -4.1629557299