21

 C   -0.1480788302    1.6210151698   -0.0914015095
 C    0.0878769849    0.1083208105    0.0653878716
 C    0.7480194827   -0.5180774312   -1.1439310607
 C    2.0303996688   -0.9282866032   -1.1321027279
 C    2.7580110421   -1.3838119262   -2.3756090744
 O    2.3731930327   -2.6524233285   -2.8987047035
 C    0.9716223351   -2.8966794541   -2.8566567852
 C    0.0860475103   -1.7171335165   -3.1905717950
 C   -0.0460031738   -0.6640013535   -2.3689424425
 H    0.7985460688    2.1483079965   -0.2446056595
 H   -0.7961316022    1.8449056904   -0.9446605615
 H   -0.6268811927    2.0314995086    0.8028744168
 H    0.7151421426   -0.0690372638    0.9455281013
 H   -0.8731320749   -0.3851293027    0.2592618283
 H    2.6014522716   -0.8635625835   -0.2089659424
 H    2.6157875948   -0.6205865746   -3.1573499115
 H    3.8306711761   -1.4669260983   -2.1803793824
 H    0.7981463367   -3.7181905067   -3.5570736359
 H    0.6997246459   -3.2496366237   -1.8484968612
 H   -0.5104768728   -1.7702910113   -4.0970349885
 H   -0.7830373766    0.1044312317   -2.5939481065