20

 C   -1.6396744878   -2.2114353241    0.5478320171
 C   -0.2786572202   -1.7659172646    0.0212627429
 O   -0.4588234171   -0.6028353502   -0.8237033816
 C   -0.5004151516   -0.7869721301   -2.1539463577
 O   -0.6940136432    0.1017830278   -2.9282494330
 C    0.6561340238   -1.3622804662    1.1383473591
 C    1.5659274892   -2.3756890335    1.7511418452
 N    2.1033050674   -1.2609380667    0.9878517109
 C    2.7382154874   -1.5386365977   -0.2916558571
 H   -2.1069714584   -1.4064670632    1.1224956308
 H   -2.3079819679   -2.4742237064   -0.2771735216
 H   -1.5289087317   -3.0844869697    1.1972390001
 H    0.1671712408   -2.5667493959   -0.5803841401
 H   -0.3278529398   -1.8418297417   -2.4488234059
 H    0.2358126720   -0.5851249517    1.7755177622
 H    1.7612479260   -2.3732575812    2.8201825559
 H    1.5835012464   -3.3647404382    1.2906555184
 H    2.3373525073   -2.4151659085   -0.8262193467
 H    2.6436645183   -0.6626234520   -0.9396887768
 H    3.8028792790   -1.7205360362   -0.1163885021