16

 C   -0.0784715752    1.3998567643    0.0498989527
 N   -0.0737400646   -0.0338931133   -0.1362879350
 C    0.6143048498   -0.6180453404   -1.1525244783
 N    1.2416681927    0.0910397369   -2.0216267909
 C    0.5583190310   -2.1066345696   -1.1482232402
 N   -0.0557597607   -2.7457827610   -0.1768589570
 O    0.0714527859   -4.0938041040   -0.4574712609
 C    0.7641760414   -4.2317743473   -1.5993857706
 C    1.1075544521   -3.0192936099   -2.0964486124
 H    0.9319749422    1.7868668451    0.2285558657
 H   -0.4683928473    1.9046916742   -0.8399610580
 H   -0.7120188188    1.6421145617    0.9053830908
 H   -0.4883860823   -0.6357885708    0.5539047728
 H    1.6920674590   -0.4979074561   -2.7169051593
 H    0.9305560798   -5.2460163102   -1.9269556185
 H    1.6602477048   -2.8063103397   -2.9953962010