17

 O   -0.0474748244   -0.0854029417   -0.1741758734
 C   -0.0724836424    1.1255910850   -0.0654341827
 N   -1.1950199493    1.8905111592   -0.3235600188
 C   -1.3263732859    3.2144067115    0.2654369611
 C   -0.1155907086    4.0384483475   -0.1774732468
 O    0.2793835503    5.0360801767    0.7826912667
 C    1.4492841241    4.2724351035    1.1613541802
 C    1.2040876508    3.2630817859    0.0132112955
 N    1.0312953878    1.8640413233    0.3404480188
 H   -2.0253696812    1.3277349652   -0.4266736794
 H   -2.2604300046    3.6679488197   -0.0750436539
 H   -1.3456609389    3.1876977464    1.3646678766
 H   -0.2725171353    4.4679890979   -1.1717230890
 H    2.3625357218    4.8739828766    1.1027018257
 H    1.3550822492    3.8342767826    2.1621121494
 H    1.9033589910    3.3965229506   -0.8190039149
 H    1.8607887256    1.2900286703    0.3809642047