20

 C    1.5301174573   -2.2643441957    1.2366265562
 C    0.4266497607   -1.6814510412    0.3513129206
 O   -0.0972469012   -0.4729263963    0.8863163750
 C    0.8914422909   -1.4648435991   -1.0935498986
 C    0.7819461363   -2.5924057383   -2.0814288752
 N   -0.0662458055   -1.4259174923   -2.2125309142
 C   -1.4943564802   -1.5547749175   -1.9508429998
 C    1.9670724783   -0.5032565740   -1.2049002635
 C    2.8541286954    0.3093667810   -1.2360843262
 H    1.8432713506   -3.2506693528    0.8794053029
 H    2.4086553200   -1.6115884257    1.2428322822
 H    1.1624078454   -2.3623492280    2.2613864159
 H   -0.4189537662   -2.3744437445    0.3417451862
 H    0.5918807743    0.1981070795    0.8012509924
 H    1.5457217358   -2.7279985141   -2.8421642495
 H    0.3351280068   -3.5153886523   -1.7082401915
 H   -1.7687978757   -2.4131812883   -1.3194240865
 H   -1.8539224766   -0.6430300971   -1.4676821825
 H   -2.0065077492   -1.6701746640   -2.9110805540
 H    3.6404258028    1.0208527909   -1.2968324498