20

 C    0.0278530310    1.5057974561   -0.0558250088
 C   -0.0371742385   -0.0076426658    0.0910048195
 O    0.3823320050   -0.5587787772   -1.1764328762
 C    0.8037685271   -1.8575584237   -1.2203034790
 C    0.6981564196   -2.4074516056   -2.6105982454
 N    1.2625350129   -2.5412247970   -0.2542953889
 C    1.3951228520   -1.9093980684    1.0217214239
 C    2.2733270531   -0.6763676759    1.1428329804
 C    0.7758780167   -0.5537847179    1.2439854665
 H    1.0619381549    1.8318325037   -0.1984851995
 H   -0.5639678623    1.8334814055   -0.9148574619
 H   -0.3664451581    1.9877497913    0.8440644934
 H   -1.0832278887   -0.3145278075    0.2407204799
 H    1.2521469370   -1.7738610203   -3.3111921108
 H    1.0996610695   -3.4198365691   -2.6358784325
 H   -0.3460228086   -2.4139926785   -2.9406163339
 H    1.4189448700   -2.6145878647    1.8454461881
 H    2.8599267595   -0.5498581468    2.0460049895
 H    2.7590893564   -0.3354103311    0.2345665517
 H    0.3514896215   -0.3379099971    2.2204857241