17

 C    0.2998387605    1.5397485166    0.0944337708
 C   -0.3192653677    0.1900644805   -0.2889437371
 C    0.4778131555   -0.5069973245   -1.3618570948
 O    1.7200426224   -1.0934907979   -0.9778907633
 C    0.6715457093   -1.9769688032   -1.4171051822
 C    0.1023395517   -2.8685332072   -0.4484138681
 C   -0.3844218879   -3.6538733523    0.3347026652
 C   -0.9296875202   -4.5294417375    1.2202047560
 C   -1.4149062848   -5.3074224744    2.0062197840
 H    1.3188170459    1.4026132521    0.4680658427
 H    0.3449304067    2.2171708687   -0.7653364622
 H   -0.2870914999    2.0302961088    0.8759672734
 H   -0.3833326214   -0.4615562437    0.5876504770
 H   -1.3428241521    0.3339407694   -0.6578652688
 H    0.5210419253    0.0114190935   -2.3232650257
 H    0.8547949034   -2.4245925182   -2.3942227748
 H   -1.8404256465   -5.9909712509    2.6984097880