20

 C   -0.0071617382    1.1861722226    0.3929889731
 O   -0.2310459210    0.1574448473   -0.5580160665
 C   -1.3966667154   -0.5475559816   -0.3060805381
 C   -1.4253150460   -2.0147648387   -0.7155960026
 N   -0.2450385206   -2.6220162700   -1.2708923601
 C    0.5127485820   -3.3817158652   -0.2827618179
 C    0.9054530234   -2.4279196441    0.8362337099
 O   -0.2323583498   -1.8879331934    1.5130852202
 C   -1.3765555474   -1.6397228060    0.7507842465
 H    0.9273649981    1.6789623374    0.1134389189
 H   -0.8179918424    1.9303788105    0.3772153650
 H    0.0812026203    0.7792546267    1.4075954956
 H   -2.3194964014    0.0266315488   -0.4217570887
 H   -2.3782311013   -2.3833677327   -1.0910301887
 H   -0.4674852414   -3.1707815255   -2.0885741852
 H   -0.0434977005   -4.2353691860    0.1454606498
 H    1.4218287915   -3.7722046271   -0.7522717714
 H    1.4861899981   -2.9462280540    1.6053892187
 H    1.5084589250   -1.6161682130    0.4119986880
 H   -2.2669004330   -1.7894161761    1.3551530836