18

 O   -0.0705048700   -0.0105760409    0.0223560216
 C   -0.0606604148    1.1955530823    0.0471298560
 C   -1.3038965584    2.0538478296    0.1518812716
 C   -1.8212831285    2.4678860143   -1.2457989895
 C   -0.7049786347    2.9571226322   -2.1896463707
 N    0.3076123956    3.7488560581   -1.4834612567
 C    1.5063780543    3.0086488759   -1.1062401140
 C    1.2984692052    1.9442923854   -0.0286594534
 O    2.1818422686    1.6342611635    0.7318799809
 H   -2.0701528801    1.4842055149    0.6836960700
 H   -1.0664329346    2.9576261185    0.7217487772
 H   -2.3331392822    1.6186844803   -1.7107238277
 H   -2.5636874842    3.2600416837   -1.1073026900
 H   -0.2428916892    2.0912217251   -2.6943469423
 H   -1.1510376086    3.5689898169   -2.9793934248
 H    0.5836517926    4.5455125983   -2.0414496532
 H    1.9651049042    2.4654746968   -1.9586570372
 H    2.2627466248    3.6991020053   -0.7237865078