10

 O    0.0175637617    0.0115664183   -0.0721239219
 C   -0.0449198818    1.2020601162   -0.0378292309
 C   -1.2636417861    2.1056495208    0.1188552559
 O   -0.7826151083    3.4016207591   -0.1807813181
 C    0.6048986350    3.3715592216    0.0482255267
 O    1.0363076082    2.0249515170   -0.1343596990
 H   -2.0555057845    1.8309510373   -0.5809458313
 H   -1.6517210272    2.0262125624    1.1459602851
 H    1.1055372399    4.0120251604   -0.6819350236
 H    0.8578349832    3.6825245369    1.0737078272