14

 O    0.2924653968    1.3211630915   -0.0580475120
 C    0.1625938192   -0.0662424200   -0.0786101698
 C   -1.2845812431   -0.4986990436   -0.0026274560
 N   -2.2057471624    0.4222297013    0.0721473789
 C   -3.4906569273   -0.0516510488    0.1383444712
 N   -3.8935181655   -1.2855235817    0.1354034538
 C   -2.9361722532   -2.2867332530    0.0566641528
 O   -3.1449765753   -3.4724902553    0.0433035537
 N   -1.5925443250   -1.8065390085   -0.0128159512
 H   -0.6100374573    1.6743553605    0.0038736534
 H    0.5990145673   -0.4912552518   -0.9979482360
 H    0.7016001087   -0.5267711830    0.7661926969
 H   -4.2564797882    0.7197495043    0.2007411948
 H   -0.8754072248   -2.5192299219   -0.0710586705