13

 C   -0.1818271210    1.3843787215   -0.1457896695
 C    0.1521376265   -0.0680588063   -0.0201716208
 N    1.3092255883   -0.5450627332   -0.0180699848
 O   -1.0751669257   -0.7772311721    0.0936131216
 C   -1.1398898564   -2.0916741267    0.2229540425
 N   -0.1746584578   -2.9690163352    0.2681303563
 O   -0.8296317288   -4.1570575303    0.4090044480
 N   -2.1933178515   -3.9199120235    0.4413565068
 N   -2.3868139028   -2.6840358957    0.3306314207
 H    0.7405621098    1.9548225720   -0.2396677259
 H   -0.8157070442    1.5542699606   -1.0213060419
 H   -0.7408258699    1.7227786803    0.7319050216
 H    1.3538128335   -1.5577546214    0.0768330152