23

 C   -0.0446378180    1.5496969942   -0.0210113917
 C   -0.0478222961    0.0265089402   -0.0216051750
 C   -1.2903727452   -0.6958868849    0.5538095022
 O   -0.4550057208   -1.5959062606    1.3108967686
 C    0.6631842295   -0.6836011447    1.1714233870
 C    2.0120545459   -1.3571871929    0.9880639713
 C    2.2130196988   -1.9530700497   -0.4101325261
 C    1.8547383291   -0.9214684091   -1.4867525169
 C    0.3664207921   -0.5578677405   -1.3946757278
 H    0.9382641983    1.9442031993   -0.3035985564
 H   -0.7724765380    1.9434089221   -0.7397555553
 H   -0.2951889648    1.9527970573    0.9657775779
 H   -1.9019742033   -0.0631365096    1.2148598414
 H   -1.9454926501   -1.2260307018   -0.1464292096
 H    0.7007480984   -0.0199448610    2.0507407980
 H    2.7875731156   -0.6013171815    1.1729425649
 H    2.1272111122   -2.1193384504    1.7680515460
 H    3.2484779349   -2.2915676828   -0.5223110612
 H    1.5740464898   -2.8365289387   -0.5312295813
 H    2.4791240097   -0.0251576963   -1.3633259986
 H    2.0725391731   -1.3156754576   -2.4854156169
 H   -0.2068932444   -1.4721501642   -1.5882140593
 H    0.0922738831    0.1505777730   -2.1850686011