22

 C    0.3432473777    1.4057353314   -0.2192525520
 C    0.1005305937   -0.0788476474    0.0709625235
 C    0.6245998047   -0.5413495266    1.4323749784
 C   -0.0637127371    0.1418039157    2.6102817184
 C    0.7952642772   -2.0742286033    1.5930202090
 C    2.2914186946   -1.7576181330    1.7984428489
 C    3.3035976769   -2.3901778055    0.8638969103
 O    2.0721144334   -0.3552236115    1.5149924708
 H    1.4023533674    1.6461731573   -0.0896017677
 H    0.0608435476    1.6500880466   -1.2476826406
 H   -0.2365224076    2.0547637552    0.4438751928
 H   -0.9708725896   -0.3129477886    0.0108647057
 H    0.5960127388   -0.6792490424   -0.7007539185
 H   -1.1448981884   -0.0353628843    2.5862377384
 H    0.3254977465   -0.2425793674    3.5575891321
 H    0.1094643077    1.2212462523    2.5916034929
 H    0.2747408503   -2.5285110809    2.4380633520
 H    0.5797175450   -2.6454584496    0.6865197373
 H    2.6184801759   -1.8862754626    2.8404427659
 H    2.9823248529   -2.3007626468   -0.1785496353
 H    4.2763044673   -1.8982398274    0.9656239392
 H    3.4319172550   -3.4525873513    1.1000341283