19

 C   -0.0412297655    1.5592974634   -0.2174187440
 C   -0.0015759101    0.0595648815   -0.0367232113
 O   -1.1517131663   -0.5999275867   -0.5022942907
 C    1.2983308950   -0.7077469368   -0.1250146524
 C    0.5562780170   -0.5860126685    1.1986067269
 C    1.1253026014    0.2262622854    2.3476396459
 O    0.1169820966    0.8105383404    3.1259064672
 C    2.0093047846   -0.6571286942    3.2098173992
 O    1.8188857088   -0.7833817676    4.3953677854
 H    0.8608338472    2.0442264635    0.1639613498
 H   -0.1215372640    1.8116449764   -1.2819471906
 H   -0.9059452463    1.9798610587    0.3033561519
 H   -1.1903804678   -0.4832266478   -1.4584082015
 H    1.2805363780   -1.6720113524   -0.6194961700
 H    2.2200553421   -0.1467094633   -0.2488549351
 H    0.0010040679   -1.4661221448    1.5103874881
 H    1.7926234826    1.0041527992    1.9320553666
 H    0.2752949985    0.5036794054    4.0330409289
 H    2.8332605001   -1.1837783618    2.6884446256