11

 O    0.0734997261    1.3378552406    0.0229169793
 C    0.0664441488   -0.0045960046    0.0712192333
 N    0.0913262672   -0.7484299792   -1.0310020645
 N    0.0742451057   -2.0157574794   -0.5798826845
 C    0.0394357497   -2.0850780348    0.7789130711
 C    0.0330649770   -0.7797872857    1.2463092869
 C    0.0165371888   -3.3201995337    1.4688429249
 N   -0.0018435918   -4.3399217652    2.0172599438
 H    0.0983617759    1.5966255315   -0.9072203279
 H    0.0875970428   -2.7805465748   -1.2333828669
 H    0.0083606398   -0.4486389947    2.2696935844