15

 C   -0.0611823058    1.5189448509    0.0122163654
 C    1.4363340545    1.8927221904   -0.0367325602
 N    2.1994724521    1.4760733050    1.1522911774
 C    2.2978184157    0.6605059066   -0.0903068396
 C    1.3320909375   -0.4574441595   -0.0603793350
 N    1.3304290432   -1.7832136601   -0.0641312205
 N    0.0220344937   -2.0518681826    0.0316739747
 N   -0.8179864617   -1.0094619766    0.0951385122
 C    0.0169937703    0.0181106878    0.0308077371
 H   -0.5440908079    1.9369992810    0.9006558656
 H   -0.5910589120    1.8987775613   -0.8683752199
 H    1.7306433078    2.8015774000   -0.5505375102
 H    3.0329044914    2.0558281794    1.2311846667
 H    3.2332878578    0.6186691861   -0.6346958601
 H   -0.3190848865   -2.9989654995    0.0284188363