19

 O    0.2640479421    1.3276972029    0.2286469555
 C    0.0338742400   -0.0594807365    0.0033577131
 C   -1.4662441365   -0.4058178088    0.0424241465
 O   -2.2947800232    0.2462231017   -0.9128470829
 C   -2.1439091374   -0.1749677149   -2.2572883619
 C   -0.8777753087    0.4426124433   -2.8785931101
 O   -0.8124139095    1.8231178971   -2.4886357113
 C    0.3889675736   -0.2988727845   -2.4895308789
 C    0.7725384060   -0.5349827092   -1.2350825522
 H    0.2421683892    1.7562386498   -0.6384129829
 H    0.4583314753   -0.5760758600    0.8743429367
 H   -1.5827731485   -1.4978379356   -0.0441810090
 H   -1.8578102966   -0.0886444014    1.0132733444
 H   -2.1244709909   -1.2703476781   -2.3377509726
 H   -3.0293276091    0.2023339648   -2.7795415450
 H   -0.9803702533    0.4133746601   -3.9699770023
 H   -1.4634287566    1.9174681580   -1.7765490222
 H    1.0260599596   -0.6274495089   -3.3067702806
 H    1.7229114746   -1.0330150800   -1.0621693943