19

 C    0.1590509495    1.5277946396   -0.0037125638
 C   -0.0527548731    0.0348751463    0.2335001596
 C   -1.4581644589   -0.4401741017   -0.1110237880
 O   -2.3634120722    0.3183154466   -0.3676020021
 C   -1.6331406135   -1.9523766687   -0.1571931194
 O   -2.9978139808   -2.4168543246   -0.1074811511
 C   -2.8241158821   -3.1195884031   -1.3426648606
 C   -2.5403670477   -2.1748487502   -2.4626670619
 C   -1.4172054389   -2.6063592419   -1.5356222164
 H    1.1659629680    1.8296058706    0.2971362777
 H    0.0246260415    1.7785403536   -1.0594499771
 H   -0.5668075554    2.1145354235    0.5638328791
 H    0.6684789610   -0.5711295832   -0.3324385540
 H    0.1244673232   -0.2248969426    1.2874917785
 H   -1.0372823793   -2.4371177902    0.6269483561
 H   -3.2620223450   -4.1067256333   -1.4271832414
 H   -2.4895278820   -2.6232827599   -3.4500564141
 H   -2.9362450673   -1.1653413348   -2.4197351166
 H   -0.5155012473   -3.1025636859   -1.8659876344