19

 C   -0.1925476991    1.5252131558   -0.1099582223
 C    0.0440807652    0.0170587836    0.0059691073
 C    0.7462733820   -0.5762466679   -1.2192778809
 C    0.9866581710   -2.0879052847   -1.1106567311
 C    1.6657515665   -2.6534614375   -2.3332891142
 C    1.3626473539   -3.9868978883   -2.8660736157
 O    0.8519141367   -2.8133646001   -3.5009978372
 H    0.7531158746    2.0664203334   -0.2264260677
 H   -0.8162894873    1.7617436934   -0.9790872730
 H   -0.6950315232    1.9209777411    0.7782042350
 H    0.6407038576   -0.1930746232    0.9040028767
 H   -0.9160313768   -0.4946084799    0.1549313240
 H    0.1499290796   -0.3789235539   -2.1190738427
 H    1.7073637264   -0.0650727784   -1.3710173759
 H    1.6062199935   -2.3048842636   -0.2293716706
 H    0.0316470430   -2.6072799735   -0.9646803168
 H    2.6547248362   -2.2416451682   -2.5483306112
 H    2.1174007770   -4.5343918211   -3.4294541423
 H    0.6202410031   -4.6073051969   -2.3647664414