12

 C   -0.0977649852    1.4491726843    0.0456198436
 N    0.0104305285    0.0037381798   -0.0007060021
 C    0.0532302782   -0.7143211245    1.2526489052
 C    0.0672871579   -0.6406722467   -1.2006077779
 O    0.0363643221   -0.1100651522   -2.2910922799
 H    0.7565066013    1.8874710910    0.5764742123
 H   -0.1164857683    1.8163210336   -0.9804917213
 H   -1.0164110588    1.7552154788    0.5615141529
 H   -0.8545355567   -0.5365767497    1.8439016843
 H    0.1329772232   -1.7869633573    1.0585135140
 H    0.9163734795   -0.4073784559    1.8576134454
 H    0.1476223984   -1.7380133914   -1.0680513864