23

 C    0.2129365069    0.7665036506    0.6397262961
 O    0.0422852759   -0.4597883688   -0.0322327015
 C    0.5375796148   -0.4599089935   -1.3644825571
 C    2.0797535160   -0.6129592200   -1.4360048394
 O    2.3640961963   -1.9092650120   -1.9410178621
 C    1.1861297350   -2.7360854606   -1.8929717752
 C    1.3010731276   -3.7314779421   -3.0441514009
 C    1.1093741812   -3.4620283954   -0.5408140303
 C    0.0384189597   -1.7220698171   -2.0758439114
 H    1.2723823978    1.0314474367    0.7756224497
 H   -0.2800875515    1.5920391854    0.1019345140
 H   -0.2468163941    0.6621755794    1.6254966557
 H    0.2004559877    0.4582452304   -1.8666159643
 H    2.5417174567    0.1205387665   -2.1074486024
 H    2.5112884363   -0.4769254871   -0.4341471359
 H    2.1753121457   -4.3750054250   -2.9076662667
 H    0.4125039466   -4.3685262440   -3.0956518964
 H    1.4106188827   -3.2041001352   -3.9959810985
 H    0.9904234109   -2.7495076225    0.2784184982
 H    0.2565424393   -4.1489058012   -0.5168874187
 H    2.0231386080   -4.0412900403   -0.3784164259
 H   -0.9144094090   -2.0524888660   -1.6579288398
 H   -0.1007404106   -1.5138357782   -3.1411202473