18

 N   -0.0214844772   -1.0966359340   -0.4027300189
 C    0.0201665321    0.0200528445   -0.1096787100
 C    0.0977343189    1.4314849927    0.2525421393
 C    1.4776761128    2.0277241515   -0.0502040938
 O    1.4276480363    3.3810902226    0.3417410937
 C    2.6391750480    4.0674764584    0.1614194291
 C    2.9627316700    4.6062647745   -1.2544838445
 O    3.0121137299    5.9590733225   -0.7580241204
 C    2.5531337970    5.5510141721    0.5472844555
 H   -0.6669856753    1.9910562019   -0.2959602066
 H   -0.1206315382    1.5471823520    1.3191885119
 H    2.2571904723    1.4845089773    0.5057839124
 H    1.7031185898    1.9278133880   -1.1223433427
 H    3.4674382411    3.5181955881    0.6288830515
 H    3.9124871097    4.2993623333   -1.7064636171
 H    2.1450035664    4.4544003708   -1.9719430988
 H    1.5241557628    5.8723378865    0.7511238164
 H    3.2154412935    5.8987470971    1.3470578330