21

 C    0.5898167860   -0.4600336784   -1.8621801981
 C    0.0760960234    0.0715897482   -0.5185892660
 C   -1.3371447331   -0.3424364904   -0.2296733518
 N   -2.5163084437   -0.0191497590   -1.1036373840
 C   -2.8933266548    1.3904382903   -1.1591215502
 C   -3.1175989848   -0.7977936226    0.0164270851
 C   -1.9001256789   -1.7672665539    0.0692530274
 N   -1.6405176692   -1.6292019272    1.5377721767
 C   -2.1350854590   -0.2738216091    1.1315380049
 H    1.6051193132   -0.1045706969   -2.0610855727
 H    0.6089705043   -1.5544738812   -1.8691736457
 H   -0.0555477265   -0.1363617610   -2.6838846749
 H    0.7017837617   -0.2911992646    0.3053071828
 H    0.1390687959    1.1675437931   -0.4995148847
 H   -2.2089851377    1.9253399821   -1.8257396150
 H   -3.8999805410    1.4766635666   -1.5815565226
 H   -2.8887847352    1.9034598686   -0.1818363927
 H   -4.1837146009   -1.0271249991    0.0853135956
 H   -1.7415616493   -2.6841938161   -0.4982483735
 H   -2.3633663873   -2.1211744688    2.0697597664
 H   -2.2398271928    0.5447623495    1.8445306531