18

 O    0.1536297426    1.3842602897    0.1778768039
 C    0.0665029777   -0.0231607190    0.0099517416
 C   -1.3802768113   -0.4436238264   -0.1837698533
 C   -1.7460749262   -0.3398053582   -1.6133436424
 C   -0.4240048145   -0.6679615609   -2.3325064144
 C    0.7455225955   -0.5485384618   -1.2596599953
 C    0.8111709972   -2.1003713696   -1.1835742920
 C   -0.5819575753   -2.1168969404   -1.8203886857
 N   -1.7398749400   -1.6887501202   -0.9262165696
 H   -0.3604559710    1.7910954207   -0.5293151484
 H    0.5263287413   -0.4464978034    0.9083921683
 H   -2.1008001083   -0.2084829455    0.5928711927
 H   -2.6509659057    0.0964657381   -2.0217349226
 H   -0.2390664864   -0.3944063216   -3.3681493193
 H    1.6507611216    0.0046624818   -1.5097234672
 H    1.5552439472   -2.5211089592   -1.8667035198
 H    0.9355849831   -2.5527516333   -0.1945050238
 H   -0.9080580275   -2.9525513707   -2.4402087027