18

 C    0.0222873472    1.3188985033   -0.0181318559
 N   -0.2738352472   -0.0803141905   -0.2890960941
 C   -0.4941384030   -0.8956057472    0.8960136149
 C    0.3070976976   -0.6421069607   -1.4047617449
 N    1.0627573421    0.0357984579   -2.1855761778
 C   -0.0986253248   -2.0731786179   -1.7612398135
 C   -1.5780442020   -2.3156069714   -2.0009332479
 O    0.7408340127   -2.9201699746   -1.9585492856
 H    1.0272826614    1.4550840737    0.4062663000
 H   -0.0268243509    1.8848056845   -0.9479193874
 H   -0.7153229012    1.7035488645    0.6925603973
 H   -0.6918343972   -1.9345481297    0.6255774712
 H    0.3786306013   -0.8880910680    1.5664303234
 H   -1.3562107102   -0.5167308072    1.4550409513
 H    1.3457278273   -0.5352701873   -2.9808085275
 H   -1.8785657532   -1.7552997547   -2.8949772742
 H   -1.7557149684   -3.3791658278   -2.1666476138
 H   -2.1935577716   -1.9421409868   -1.1792197154