22

 C    0.1258898058    1.5456745293   -0.1605446712
 C   -0.0940162933    0.0431552786    0.0911830206
 C    0.6410164839   -0.4797532583    1.2909474397
 C    0.1022067362   -0.9746482082    2.4082593006
 C    1.1385879992   -1.4600641131    3.3907264019
 C    2.4591951014   -0.8560084532    2.8404270481
 C    3.7013780839   -1.7120414597    3.0811418674
 C    2.1554919238   -0.5625322749    1.3480180923
 H    1.1825387574    1.7744396112   -0.3311532122
 H   -0.4320083148    1.8782599668   -1.0414504444
 H   -0.2090503825    2.1368871420    0.6975146595
 H   -1.1659895208   -0.1515617919    0.2103208893
 H    0.2255074158   -0.5125435196   -0.8022462823
 H   -0.9648609012   -1.0679976290    2.5859879609
 H    0.9389691695   -1.1508331191    4.4236758420
 H    1.1785558497   -2.5605560943    3.4048153734
 H    2.6028617384    0.1118611608    3.3371099509
 H    3.6012246280   -2.6917823737    2.5993291783
 H    4.6010488391   -1.2341292980    2.6782060972
 H    3.8676402007   -1.8831703236    4.1503564634
 H    2.5119025206   -1.3779196270    0.6985132341
 H    2.6568820095    0.3459363550    0.9946646107