13

 O   -0.1681037171   -0.0273059719   -0.1123809968
 C   -0.0668932483    1.1665015524   -0.0556761967
 N    1.1390015817    1.8567523788    0.0051548556
 C    1.4178749028    3.3043678319    0.0706732073
 C    2.9409987923    2.9601880412    0.0470994715
 C    3.7337876811    3.3904706247    1.1805710849
 N    4.3527085821    3.7353127203    2.0934326583
 C    2.4860753192    1.4577216794    0.0312755783
 O    3.0333870232    0.4054650948    0.0256861896
 H   -0.9256097818    1.8664953962   -0.0460040012
 H    1.0655533430    3.8640241278   -0.7978948194
 H    1.0776615206    3.7755615767    0.9944759339
 H    3.4335832113    3.2319223077   -0.8897427952