18

 C   -0.0880386823    1.5579143941    0.0533917795
 C    0.0639724444    0.0599703489    0.0104330903
 N   -0.7572420162   -0.8086388794    0.9019870385
 C    0.7099873368   -0.7612275586    1.0774499000
 C    1.4304894046   -1.9388910047    0.4296342193
 C    1.0925529995   -1.7745939684   -1.0313209948
 C    0.3669056764   -0.6688143522   -1.2725048725
 C   -0.0870977741   -0.2786720682   -2.6080056367
 O   -0.7529995818    0.7019568639   -2.8622154744
 H    0.7796942069    2.0539931232   -0.3938178873
 H   -0.9700986524    1.8770518458   -0.5062410947
 H   -0.1775550465    1.9026499563    1.0892392382
 H   -1.1853085010   -0.2199676956    1.6155578163
 H    1.1154952547   -0.3053576816    1.9746290280
 H    2.5158966294   -1.9005366063    0.5927036882
 H    1.0831772851   -2.9032413374    0.8199709070
 H    1.3884618594   -2.4922944860   -1.7901232948
 H    0.2378506272   -0.9731123840   -3.4156438800