18

 O   -0.2814791052    0.2855327115    0.6009133585
 C    0.3392120350    0.6795654510   -0.3560081380
 C    1.3816527274    1.7492123553   -0.2404943398
 N    2.3208504926    1.8824280004   -1.3736563591
 C    1.4286364967    2.9943422320   -1.0830520634
 C    0.4044156653    3.3767530808   -2.1239707519
 C    0.9648855339    3.7468444888   -3.5212291920
 C    0.2046318922    2.4946142172   -3.9970383811
 O   -0.3195310972    2.2572636284   -2.6697717152
 H    0.2049056654    0.2677943272   -1.3710423496
 H    1.7603314549    1.8585239352    0.7740579832
 H    3.2623286096    2.0606737357   -1.0367148920
 H    1.8477835357    3.8633209883   -0.5726718523
 H   -0.2831143407    4.1149989909   -1.6895002632
 H    0.6065752287    4.6938162277   -3.9260656763
 H    2.0507811568    3.6942385543   -3.6062733907
 H   -0.5997704166    2.6649611829   -4.7210240207
 H    0.8319925152    1.6633555325   -4.3355678366