20

 C   -0.0519131630    1.6212438523   -0.7031888148
 C   -0.0565589566    0.2117545655   -0.1663457160
 C    1.1609801965   -0.6591463827   -0.2455986223
 C    0.6622833849   -0.1579064313    1.0961007316
 O   -1.2642259762   -0.5040386644   -0.4406740096
 C   -2.3681137616   -0.1700605979    0.2641152289
 O   -2.4157608174    0.6879180187    1.1082052797
 C   -3.5518071503   -1.0376240218   -0.1607933170
 N   -4.8026551432   -0.7521379311    0.5185232680
 H    0.9291779644    2.0789104024   -0.5480314324
 H   -0.2610993943    1.6234102213   -1.7781499596
 H   -0.8013995519    2.2315243752   -0.1941601908
 H    1.0026230246   -1.7059832060   -0.4775163144
 H    2.0658711682   -0.2315510141   -0.6629066370
 H    1.2189922513    0.6192746868    1.6076825111
 H    0.1848385908   -0.8750496216    1.7529010858
 H   -3.6794964529   -0.9265110245   -1.2438446801
 H   -3.2721881185   -2.0864471415   -0.0050674202
 H   -4.6573690759   -0.8294596032    1.5216765173
 H   -5.0427728688    0.2244092678    0.3701951820