20

 C   -0.1265487474    1.5442269148    0.0075767559
 C   -0.0673605888    0.0294002032    0.0893113967
 C   -1.3109902415   -0.6397877932   -0.4851432365
 O   -1.4997738994   -0.2975587124   -1.8535588499
 N    1.2488471904   -0.5683688313   -0.1722045116
 C    0.7298468794   -0.6309228980    1.2048708235
 C    1.4391815029    0.1719887132    2.2790991501
 C    0.2956800466   -1.9826736393    1.6759825863
 O    0.2054294935   -2.9607554374    0.9692429381
 H    0.8581524502    1.9946612531    0.1323291391
 H   -0.5091374079    1.8233631238   -0.9778228999
 H   -0.8068003763    1.9532921413    0.7624894554
 H   -1.2726939688   -1.7249907700   -0.3523697652
 H   -2.2008169698   -0.2633730923    0.0317496227
 H   -0.7750762558   -0.6836874477   -2.3567037562
 H    1.1375706649   -1.5056773410   -0.5666578010
 H    1.7245505754    1.1597509805    1.9204844186
 H    0.7959532752    0.2978118186    3.1572096900
 H    2.3517207462   -0.3414093715    2.6005609685
 H    0.0831075310   -2.0472410644    2.7649671455