22

 C    0.1787758442    1.5953274834    0.1622203507
 C   -0.0305449800    0.0859194206   -0.0228532099
 C    0.6355869884   -0.4861576500   -1.2530702236
 C    1.6799639544   -1.5345491872   -1.2158918836
 N    2.0790395329   -0.1839623871   -1.6496946222
 C    1.6256943487   -0.0953339294   -3.0816631584
 C    0.1301997964   -0.3082798049   -2.6971169408
 C   -0.6564266256   -1.4424755936   -3.3432270039
 O   -0.6203580004    0.8978186282   -2.7610431667
 H    1.2472724380    1.8256712507    0.2008149049
 H   -0.2581926469    2.1535589435   -0.6671913144
 H   -0.2818566425    1.9350004935    1.0953124181
 H    0.3428734719   -0.4436443546    0.8612663779
 H   -1.1030180539   -0.1386021914   -0.0841444109
 H    2.0705754148   -1.8000661949   -0.2375284632
 H    1.6996148362   -2.3483164994   -1.9385581157
 H    1.8008750151    0.9098776023   -3.4700449628
 H    2.0956304094   -0.8369857770   -3.7384407457
 H   -0.1292110303   -2.3978985937   -3.2859497955
 H   -1.6307342311   -1.5509033671   -2.8565478938
 H   -0.8301257567   -1.2290258899   -4.4060866087
 H   -0.8706758130    1.0429740181   -3.6797235719