22

 C    0.0959519095    1.6470336092   -0.0595839386
 C    0.0401617480    0.1184792281    0.0413532710
 C    0.6646447144   -0.6083306348   -1.1650085128
 C    2.1315438459   -0.8108264253   -0.7517467965
 C    2.0305037232   -1.1274063145    0.7472498026
 N    0.8378119127   -0.3923595296    1.1738030898
 C    0.3639661749   -0.3034429393    2.4508497776
 C    1.2244330484   -0.9376757251    3.5337964767
 O   -0.6905479417    0.2592596350    2.7080776471
 H    1.1166805503    2.0000974103   -0.2421028181
 H   -0.5383446894    1.9936766747   -0.8822603054
 H   -0.2684448645    2.0911601239    0.8685440517
 H   -1.0014952945   -0.1756719175    0.1987840497
 H    0.1798761039   -1.5799601609   -1.3100990521
 H    0.5548882661   -0.0402094639   -2.0917806045
 H    2.6346959911   -1.6039387777   -1.3094179471
 H    2.7005704191    0.1123074593   -0.9014726399
 H    1.9095343593   -2.2084182159    0.9103738879
 H    2.9205098058   -0.8110197560    1.3005472778
 H    2.2046782584   -0.4531398294    3.5962576795
 H    0.7076209525   -0.8226979483    4.4859344041
 H    1.3984254766   -2.0014675521    3.3407768095