15

 N   -0.0211432235   -1.1360069791   -0.0565516160
 C   -0.0129302296    0.0188194650   -0.0323498972
 C    0.0428486386    1.4642021940    0.0508623486
 C   -0.2616176347    2.2623687803    1.3500346651
 C    0.4117917303    3.3899165640    0.5050854374
 C    1.3632015354    2.2798674186   -0.0439042088
 C   -0.5845120985    3.4897350481   -0.6549897851
 O   -0.8053693608    2.0818199457   -0.9300889026
 H   -1.3145865664    2.3631132198    1.6191990929
 H    0.3409875623    1.9447409847    2.2008116235
 H    0.7803617082    4.3134870525    0.9462981726
 H    2.1163742268    1.9638468988    0.6776960930
 H    1.7880164066    2.3965274740   -1.0425363263
 H   -1.5320800080    3.9655266638   -0.3811812466
 H   -0.1757742567    3.9801234096   -1.5447576106