19

 C   -0.0161844597    1.4021985138   -0.0147855589
 O    0.0394653597   -0.0046984269    0.0195154885
 C    0.6236477160   -0.5576031811   -1.1310944978
 C    0.5832429806   -2.1061065900   -1.0166346962
 C    1.3197489780   -2.5609847900    0.2714528554
 C   -0.8127214393   -2.5680326230   -0.9843454620
 C   -1.9495946851   -2.9527813368   -0.9469779872
 C    1.2588690024   -2.6551670296   -2.2015322681
 C    1.8414415262   -3.0782047753   -3.1630463494
 H    0.9878732596    1.8490174009   -0.0876751353
 H   -0.6164063665    1.7645984629   -0.8636174638
 H   -0.4835834730    1.7315295310    0.9159601239
 H    0.0852495199   -0.2470811858   -2.0390777715
 H    1.6748349876   -0.2426065216   -1.2345638187
 H    0.8381417581   -2.1129289425    1.1412094269
 H    1.2896001168   -3.6485412383    0.3581817195
 H    2.3643598004   -2.2397534312    0.2317903421
 H   -2.9555927923   -3.2915539082   -0.9185260901
 H    2.3422795906   -3.4656040482   -4.0156924373