20

 C   -0.0515783661    1.5484751111    0.0209926917
 C   -0.0562328693    0.0263846298   -0.0712702413
 N    0.8088973906   -0.4325462010   -1.1475963485
 C    0.8642835965   -1.8087763945   -1.3892475913
 C    0.4220765899   -2.8516997215   -0.5965468887
 N    0.7711705797   -3.9942039500   -1.2555605167
 N    1.3973148490   -3.7634462362   -2.4189373210
 C    1.4652259881   -2.4365209936   -2.5159969668
 C    2.1079404102   -1.7692152174   -3.6885316472
 H    0.9641541587    1.9243655224    0.1740163602
 H   -0.4466235273    2.0006807344   -0.8963567157
 H   -0.6774360854    1.8869518356    0.8513953565
 H    0.3221260080   -0.4003423202    0.8667489831
 H   -1.0916210189   -0.3426276107   -0.1857874335
 H    0.6679482879    0.0973024314   -1.9987877104
 H   -0.0893847635   -2.8735455441    0.3510911723
 H    0.6188239317   -4.9424789556   -0.9619963980
 H    1.3895111942   -1.1741101432   -4.2677178217
 H    2.9082635590   -1.0897237826   -3.3727453062
 H    2.5340270471   -2.5215468040   -4.3555012368