25

 C    0.0652208292    1.4157188520   -0.1230620664
 C    0.0299204337   -0.0914138637    0.0742738941
 O   -1.3099753143   -0.5233099327   -0.0455627246
 C   -1.5049490911   -1.9333893577    0.0029857013
 C   -1.4531015203   -2.4609622227    1.4396326164
 C   -2.8568870629   -2.2105248228   -0.6615963433
 C   -2.9054505401   -1.7993597266   -2.1170543094
 C   -2.4303385227   -2.7468358214   -3.1916829904
 C   -3.9005224113   -2.4291716450   -3.0556146592
 H    1.0906776740    1.7882874313   -0.0394558431
 H   -0.3236565104    1.6828947880   -1.1098591970
 H   -0.5482484294    1.9153676766    0.6321831086
 H    0.6582640162   -0.5942172817   -0.6802668876
 H    0.4449062809   -0.3504590708    1.0613751869
 H   -0.7142435268   -2.4225535394   -0.5912561769
 H   -1.6001380312   -3.5457648862    1.4567863336
 H   -0.4894546977   -2.2503693672    1.9120515691
 H   -2.2388660979   -1.9952014894    2.0431307004
 H   -3.0788975971   -3.2814764993   -0.5723227069
 H   -3.6314516109   -1.6780243037   -0.0937995411
 H   -2.6885178987   -0.7488425979   -2.2800338439
 H   -1.8913790358   -2.3427675132   -4.0416172989
 H   -2.0977992645   -3.7344427816   -2.8870037515
 H   -4.5499386603   -3.2044775326   -2.6612197901
 H   -4.3661820403   -1.8068602423   -3.8120391501