13

 C    0.0081798176    1.4755767776    0.0706639161
 C    0.0129968062   -0.0138395896   -0.0250516092
 C   -0.1395479479   -0.7981642566   -1.1317835408
 N   -0.0558462730   -2.1133797880   -0.6749065315
 C    0.1394186368   -2.0348822799    0.6626016934
 O    0.2600301321   -3.1608039404    1.3879512235
 N    0.1888342207   -0.8085850773    1.1048865506
 H    0.9536992494    1.8488437435    0.4796472246
 H   -0.1419879146    1.9306459895   -0.9121807257
 H   -0.7887401243    1.8267183355    0.7356543464
 H   -0.2947577454   -0.5685961727   -2.1723079394
 H   -0.1245914037   -2.9579753499   -1.2153094177
 H    0.3902149761   -2.8760947218    2.3011829197