19

 C   -0.2947477707    1.3167368991    0.0324199703
 O    0.1594559159   -0.0236415567   -0.0798606526
 C    0.7874723781   -0.4806123191    1.0411530510
 C    0.2858905081   -0.8397018935    2.4259619681
 C    0.9687799809   -1.8913107878    1.5046688971
 C    2.4428551421   -1.6999895239    1.9256408204
 C    2.4589800526   -1.4834062388    3.4586812073
 C    1.5285294040   -0.2822488636    3.1525371045
 C    2.1706560001   -0.1583454608    1.7151137743
 H    0.5406166856    2.0124894568    0.1919712652
 H   -0.7899607905    1.5651707869   -0.9085910548
 H   -1.0064292528    1.4265187987    0.8615683845
 H   -0.7229365714   -0.9831576438    2.7896360339
 H    0.4495573264   -2.7850136215    1.1856716503
 H    3.2161126467   -2.2574004314    1.3988933696
 H    2.0893554754   -2.2827122285    4.1084952703
 H    3.4430248447   -1.1496084370    3.8038157438
 H    1.4046385669    0.5565214442    3.8366240683
 H    2.9249051478    0.5704610406    1.4300672886