18

 C   -0.1646592964    1.4021167408   -0.0027757044
 O   -0.1288962621   -0.0119695695    0.0984420216
 C    0.6039725843   -0.5635222542    1.0920644890
 C    1.3389094138    0.1480765932    2.0404157817
 C    2.0380460043   -0.5874557925    2.9962638312
 N    2.0576964412   -1.9146831943    3.0727963910
 C    1.3457734185   -2.5937086142    2.1537502310
 C    1.3845243100   -4.0959257134    2.2622808090
 C    0.6132909763   -1.9606058616    1.1575396995
 H    0.8350751622    1.8182910741   -0.1771505274
 H   -0.8028306011    1.6273071627   -0.8583103289
 H   -0.5919856923    1.8591644003    0.8980994742
 H    1.3792317541    1.2287138243    2.0528533166
 H    2.6197323224   -0.0572732196    3.7481191548
 H    0.7852256746   -4.5763142390    1.4852344132
 H    2.4157946474   -4.4545850367    2.1832640594
 H    1.0119310393   -4.4143708881    3.2411396428
 H    0.0464392632   -2.5252923525    0.4266855056