20

 C   -0.0010585998    1.4705681367   -0.4935018238
 C   -0.0150594969    0.0205696885   -0.0530493293
 C    1.1678941158   -0.8286715137   -0.3367977769
 N    0.8677800725   -0.4021975870    1.0446007619
 C   -1.3952556825   -0.6099446534   -0.0254163977
 O   -1.8890973282   -0.5307215067   -1.3484396973
 C   -1.5663202690   -1.9844207628    0.6712135455
 O   -2.5132710383   -1.4386692295    1.6138310312
 C   -2.3607197437   -0.1103074634    1.0845085378
 H    1.0232136745    1.8540042602   -0.5391841847
 H   -0.4561103165    1.5762488484   -1.4810220947
 H   -0.5650228553    2.0992886122    0.2057581505
 H    1.0517850081   -1.8932312013   -0.5214537055
 H    2.0072414069   -0.3717960211   -0.8539496372
 H    1.4774198453    0.3656827809    1.3143912210
 H   -2.7879853962   -0.8760450057   -1.3572444885
 H   -2.0128492344   -2.7551882076    0.0289902409
 H   -0.6765919570   -2.3772234556    1.1714664307
 H   -1.9223684188    0.5771670365    1.8185229993
 H   -3.3063561966    0.3096534743    0.7148496967