18

 C   -0.2267369721    1.4325790762    0.2700088549
 C    0.0131416021   -0.0439883298   -0.0093659811
 C    1.4196102276   -0.4837153947   -0.3964075356
 C    0.8851462469   -0.8270340444    0.9635556751
 C   -1.0888509593   -0.7436881367   -0.6148789310
 C   -2.0284779250   -1.3087148216   -1.1156429388
 C   -3.1505883267   -1.9900948866   -1.7445569528
 O   -3.9528840487   -2.6245705924   -0.7528480663
 H    0.6563207943    1.8861417187    0.7309566724
 H   -0.4449529535    1.9754093674   -0.6551050363
 H   -1.0742795911    1.5683218560    0.9489623281
 H    1.5133823968   -1.2790330238   -1.1259296843
 H    2.1708602644    0.2949646130   -0.4749871578
 H    1.2680526767   -0.2843270274    1.8212370555
 H    0.6121002799   -1.8560607280    1.1630320670
 H   -3.7395975878   -1.2566505520   -2.3197726332
 H   -2.7658834673   -2.7251869483   -2.4708809608
 H   -4.6807508574   -3.0583837155   -1.2100146850