25

 C   -0.2848533830    1.7175679896   -0.2650198442
 C   -0.0316672303    0.2200225484   -0.0107153489
 C    0.6857464502   -0.4659109058   -1.1394640220
 C    1.9428407392   -0.9348973160   -1.1614701056
 C    2.9676877856   -0.8967136244   -0.0637444687
 C    3.3503334775   -2.2898399541    0.4689279343
 C    2.2590486188   -1.6059731796   -2.4868699182
 C    1.1075849807   -1.1485545641   -3.4097806435
 C   -0.0329156665   -0.7532793696   -2.4459806271
 H    0.6599097599    2.2576303928   -0.3820173113
 H   -0.8730175501    1.8766494565   -1.1742431793
 H   -0.8331801254    2.1677396934    0.5686738261
 H    0.5271700100    0.1058230584    0.9239210404
 H   -0.9990206525   -0.2768434269    0.1504961756
 H    3.8770602861   -0.4075115906   -0.4420121627
 H    2.6137148259   -0.2780005066    0.7672320977
 H    2.4773198550   -2.8023349059    0.8857355246
 H    3.7605224793   -2.9230136399   -0.3239652763
 H    4.1063197048   -2.2117169237    1.2566243081
 H    3.2473966893   -1.3281247220   -2.8744553602
 H    2.2752151930   -2.6999542800   -2.3739018780
 H    1.4250987890   -0.2667834496   -3.9761581842
 H    0.8111626572   -1.9097116275   -4.1364599075
 H   -0.7529592007   -1.5742927736   -2.3061480649
 H   -0.6164021729    0.0984276507   -2.8146993341