15

 C   -0.0256505918    1.5031712722    0.0016821245
 C   -0.0105099140    0.0086843444    0.0316535041
 N   -0.0316045115   -0.6768153180   -1.0878342761
 O   -0.0095224572   -2.0167476299   -0.7168593863
 C    0.0242975671   -2.0938449913    0.6224282707
 C    0.0262317929   -0.8539337828    1.1721077888
 C    0.0587900210   -0.4867634883    2.6188552693
 O    0.0862909628   -1.6840967789    3.3772055493
 H    0.8657761521    1.9164894170    0.4863349975
 H   -0.0555790632    1.8562073652   -1.0306417287
 H   -0.8987574902    1.8995149634    0.5317307657
 H    0.0442491417   -3.0831478530    1.0489627991
 H    0.9430709158    0.1394050946    2.8270103567
 H   -0.8235882809    0.1261657480    2.8700457684
 H    0.1091001955   -1.4501017324    4.3092915570