16

 C   -0.0394040553    1.4955142298   -0.2143736629
 C    1.4177793031    1.8919269186    0.0662742217
 C    2.1689615010    0.9279929997    0.6304765485
 C    1.3202203964   -0.2712708798    0.8216899675
 O    0.5858175720   -0.5433928119    2.0779828904
 C   -0.2632498765   -1.1104840362    1.0489084024
 C    0.9181370672   -1.6410845176    0.1625676801
 N    0.3582393698   -1.0179320552   -1.0794631668
 C    0.0489092664   -0.0055685647   -0.0100021508
 H   -0.7159713243    1.9873829201    0.4944825529
 H   -0.3708941114    1.7727132231   -1.2206590409
 H    1.7839323181    2.8900876489   -0.1579063205
 H    3.2045852433    1.0389292740    0.9279061036
 H   -1.1927738166   -1.5979471761    1.3419808880
 H    1.4073012098   -2.6159106146    0.1862189375
 H    1.1312168070   -0.6743557181   -1.6577766506