23

 C    0.0945907719    1.5148914939    0.0366618518
 C    0.0069530903    0.0146201317   -0.0455800061
 C   -0.1213562221   -0.6394030795   -1.2045743941
 C   -0.1672012854   -2.1438672242   -1.3202870838
 C    0.5452631922   -2.8150771850   -0.1363493363
 C    0.0131356924   -2.2888275734    1.1980626348
 C    1.0405506306   -2.3145526475    2.3653485178
 C    1.3683373170   -0.8212537819    2.0844103886
 C    0.0429485101   -0.7327152868    1.2560066187
 H    1.0233648741    1.8312758227    0.5289617874
 H    0.0625062217    1.9774292583   -0.9537769389
 H   -0.7280506471    1.9292454542    0.6343923029
 H   -0.1834224311   -0.0703235915   -2.1304772262
 H   -1.2101174383   -2.4908260267   -1.3801825020
 H    0.2988684625   -2.4555303307   -2.2628716654
 H    0.4432691441   -3.9054311479   -0.1840009643
 H    1.6177594943   -2.5959283333   -0.2149320134
 H   -0.9619324084   -2.7385789455    1.4110749461
 H    0.5574190637   -2.4499723218    3.3370618705
 H    1.8613249765   -3.0328833108    2.2852596207
 H    1.4682197169   -0.1584196441    2.9471680595
 H    2.2511515397   -0.7005973117    1.4505134798
 H   -0.7578328454   -0.3612532385    1.9087130221