17

 C   -0.0150430134    1.4688453771    0.0300407774
 C    0.0434894894   -0.0318015002    0.0239073784
 C   -0.3557205501   -0.9308357156   -1.1230050524
 O    0.5009753750   -2.0488091077   -1.2086296528
 C    0.7915563254   -2.2284447634    0.1406650688
 C   -0.4905128526   -2.0587912693    1.0327999029
 O    0.3117060641   -1.3380580909    2.0073876457
 C    1.0502978528   -0.8594525669    0.8537574056
 C   -1.1550022221   -0.9832096573    0.1613541599
 H    0.9031330531    1.9050447720   -0.3795153937
 H   -0.8519626278    1.8357548288   -0.5729996241
 H   -0.1467227283    1.8523550035    1.0475211721
 H   -0.7365694651   -0.5840920792   -2.0750830520
 H    1.4617040682   -3.0628952761    0.3229182592
 H   -1.0868017380   -2.8663707292    1.4524741397
 H    2.0244952437   -0.4331158858    1.0888967974
 H   -2.1837136144   -0.6644524098    0.2545649779