22

 C   -0.0466304297    1.5517280398   -0.0465897359
 C   -0.0079893401    0.0280543565   -0.0001684775
 C   -1.3867503599   -0.5896661106   -0.2298906563
 C    1.0589877898   -0.6502457842   -0.8960682870
 N    2.3928126109   -0.1685493137   -0.4663584342
 C    1.7253006899   -1.2726483787    0.2777673986
 C    0.7430307939   -0.6137490438    1.2194527170
 C    1.0356170156   -0.0303391792    2.5663831526
 C    0.1327672000   -1.2382741153    2.4384262718
 H    0.9604397064    1.9615983302    0.0552026362
 H   -0.4712879757    1.9031158956   -0.9943234233
 H   -0.6697668991    1.9542367863    0.7607007202
 H   -1.7910671021   -0.2818784276   -1.2013863212
 H   -1.3428261826   -1.6833683029   -0.2112744630
 H   -2.0974510189   -0.2685655404    0.5392258675
 H    0.9016723267   -1.0424886602   -1.8945925717
 H    3.0755589260   -0.6002621470   -1.0898121423
 H    2.1988295269   -2.2422014095    0.3810469336
 H    2.0305135594   -0.1643667539    2.9782947755
 H    0.5739228093    0.9187734165    2.8197269842
 H   -0.9299004407   -1.1038819307    2.6134215564
 H    0.5133651841   -2.2020982472    2.7632233587