22

 O   -0.2005823516    1.3713327993    0.3445007844
 C   -0.0460759801   -0.0142631393    0.0810772583
 C   -1.4269177323   -0.6535757890    0.1434924558
 C   -1.3931807062   -2.1508341277   -0.1274438674
 O   -2.7104162212   -2.6507109892   -0.0398774086
 C   -2.7986651085   -4.0377213371   -0.2845333610
 C   -4.2429144822   -4.4535424704   -0.2306749439
 C   -4.5918207670   -5.8098595729    0.2605101931
 N   -4.9195246123   -4.6210396195    1.0625526713
 H    0.6673997404    1.7832171687    0.3066005893
 H    0.4014312428   -0.1830958682   -0.9126516847
 H    0.6206738795   -0.4882972305    0.8206586405
 H   -1.8618526692   -0.4742006386    1.1322891927
 H   -2.0815458893   -0.1676366278   -0.5874806934
 H   -0.9729468059   -2.3560874055   -1.1280613505
 H   -0.7408042008   -2.6629271968    0.6024148748
 H   -2.3707789361   -4.2813975683   -1.2730920727
 H   -2.2166416619   -4.6022077150    0.4671270228
 H   -4.8697547794   -3.9932518478   -0.9911804960
 H   -5.4471536242   -6.3350568814   -0.1543421695
 H   -3.7809076153   -6.4574506213    0.5861730841
 H   -4.2470396292   -4.5092527816    1.8181185907