14

 N   -0.1557461774    1.2769059761    0.0971001181
 C    0.0356322750   -0.0728789026    0.1412315909
 O    1.1231973299   -0.6067375776    0.1919742600
 C   -1.2315865408   -0.8606540326    0.1138863692
 N   -1.3610713975   -2.1522464157    0.1427984664
 C   -2.7225093996   -2.3754962570    0.0960451113
 N   -3.2183368782   -3.6664543682    0.1736658291
 C   -3.3675872964   -1.1728237006    0.0382320898
 O   -2.4064869365   -0.1921227080    0.0487171806
 H    0.6554173506    1.8696474439    0.1437181937
 H   -1.0742415597    1.6839697948    0.0945768025
 H   -2.5257871108   -4.3518714704   -0.0952326752
 H   -4.0962375344   -3.8147024298   -0.3022912549
 H   -4.3926044942   -0.8516013922   -0.0062741714