18

 O   -0.7612437135    0.9119417127    0.4873339914
 C    0.2121219912    0.8904039810   -0.2195392905
 C    1.4556787266    1.7270411835    0.0107032397
 N    2.7131240980    1.1376554068   -0.5611114049
 C    3.0850914534    2.4629161601   -1.1734536547
 C    3.3183037179    2.6582863768   -2.6827350452
 C    2.2366106223    3.7284086207   -3.0604062800
 C    1.1254683380    3.4766209822   -2.0395593329
 C    1.6516428017    2.8576063673   -0.9899602920
 H    0.2753845711    0.2652816887   -1.1371057805
 H    1.5126629778    2.0261301155    1.0647547701
 H    3.3619107002    0.8076523207    0.1473823494
 H    3.8064047219    3.0183931295   -0.5571396500
 H    4.3339301387    2.9646956870   -2.9485532792
 H    3.0946120946    1.7186667192   -3.1973543617
 H    2.6389058842    4.7485071964   -2.9930420826
 H    1.8746522505    3.6075008973   -4.0866044441
 H    0.0827529653    3.7061860447   -2.2231704421