18

 C    0.1270113465    1.3610535915    0.0287772166
 O   -0.0520979743   -0.0291563759   -0.2584160719
 C   -1.2711321354   -0.5208901788    0.0658231599
 O   -2.1706418494    0.1280315721    0.5514558790
 N   -1.3241872401   -1.8539327817   -0.2280786511
 C   -2.5514824805   -2.6201597078   -0.1158365016
 C   -3.0746059658   -3.1359362794   -1.4556040585
 C   -2.3562705992   -3.7371998099    0.9086954546
 O   -2.7959541682   -4.8509811539    0.7987394335
 H    1.1420886961    1.5985378838   -0.2903996423
 H   -0.5968307979    1.9679873459   -0.5207393621
 H    0.0093612437    1.5553484943    1.0978674094
 H   -0.5343396847   -2.2507953943   -0.7122507784
 H   -3.2754897723   -1.9250361291    0.3315887554
 H   -3.3139778949   -2.3012383548   -2.1184366007
 H   -2.3313962688   -3.7725279756   -1.9467541144
 H   -3.9699728976   -3.7409212176   -1.2992712543
 H   -1.7539054273   -3.4249884091    1.7916234366