19

 C    0.1664160678    1.4418389539    0.2089760428
 N   -0.1859271994    0.0573875612   -0.1096050402
 C    0.5027063431   -0.4684033919   -1.2293122779
 C    1.9989978398   -0.8945424489   -1.2853014342
 C    0.9157357376   -1.8652569386   -1.6259742512
 C    0.6493905167   -3.2287125555   -1.0860565634
 O    0.5238746405   -1.6092980537   -3.0141486643
 C    0.0478583399   -0.3497459809   -2.6519904766
 N   -0.5747310430    0.5088308011   -3.3180819879
 H    1.2365758582    1.5893967297    0.4298692906
 H   -0.0963227992    2.0756007385   -0.6422513986
 H   -0.4188560709    1.7708067373    1.0718023846
 H   -0.0656374152   -0.5413061957    0.6991918417
 H    2.6688395174   -0.5373871274   -2.0615998277
 H    2.4428567727   -1.0079697703   -0.2993764407
 H    0.8857418651   -3.2682818335   -0.0185832730
 H   -0.3997438192   -3.5052132343   -1.2248364119
 H    1.2732333301   -3.9713918949   -1.5947651444
 H   -0.7280924520    0.1940923639   -4.2777197075