15

 O   -0.1634594088    1.3267235114    0.1923303935
 C    0.0157762275   -0.0652832883   -0.0020535688
 C   -1.3442861281   -0.6392635084   -0.0956048293
 N   -2.3936053492   -1.1169455558   -0.1403277794
 C    0.7230398815   -0.3112602201   -1.2892944287
 N    1.3297293194   -0.4672515966   -2.2594680386
 C    0.8154051020   -0.7160586885    1.1276676054
 C    0.1746581711   -1.0208839199    2.4550916808
 C    0.6039623922   -2.1469981875    1.5517562279
 H    0.7016905127    1.7109409553    0.3801886474
 H    1.8401858743   -0.3545094576    1.1344588505
 H    0.7546724502   -0.8115141856    3.3462194793
 H   -0.8892037850   -0.8386745561    2.5568421539
 H   -0.1759408893   -2.7146873039    1.0572012973
 H    1.4861537196   -2.7215768584    1.8075001888