13

 C   -0.0646042198    1.4992646413    0.0108354497
 C    1.4083780094    1.9016714559   -0.0011191285
 C    2.2173552918    0.8223810029   -0.0148983555
 C    1.3838189936   -0.3812214973   -0.0134500416
 C    0.0792755953    0.0130491540    0.0012824542
 O   -0.7565995717   -1.0175575288    0.0037193330
 N    0.0284379250   -2.1943039788   -0.0104788914
 C    1.2844373246   -1.7946697909   -0.0201981595
 H   -0.5897391491    1.8727420479    0.8985704444
 H   -0.6066961650    1.8824364138   -0.8624592299
 H    1.7238856234    2.9362613718    0.0015612288
 H    3.2988105659    0.8404499035   -0.0252246777
 H    2.0550711765   -2.5526820152   -0.0317905062