20

 C   -0.2499901825    1.1466382333    0.1996666861
 N    0.0680422527   -0.2579404493   -0.0412243811
 C    0.8162324228   -0.4830388407   -1.2866094987
 C    1.5136223104   -0.5380654448    0.0397291736
 C    1.7233280343   -2.0620141306   -0.1175681119
 O    1.0768141405   -2.9595505628    0.7425523125
 C   -0.2617076340   -3.1806060394    0.2785344086
 C   -0.2708342797   -2.9100787182   -1.2479633010
 C    0.9492573874   -2.0057992974   -1.4759949324
 H    0.5163890758    1.8478392785   -0.1724499219
 H   -1.1995233125    1.3879626750   -0.2883748829
 H   -0.3664171747    1.3077386452    1.2758405441
 H    0.8518752449    0.2856711353   -2.0493873277
 H    2.1750624544    0.1814205793    0.5088341965
 H    2.7831459703   -2.3248819197   -0.1778138797
 H   -0.5210373195   -4.2151016148    0.5275818870
 H   -0.9511306808   -2.5038321758    0.7901840367
 H   -0.1512859609   -3.8436140875   -1.8054132337
 H   -1.2084038418   -2.4446687579   -1.5609915046
 H    1.5435438829   -2.2776158677   -2.3490352293