17

 C   -0.0600257340    1.4202573304    0.2269131385
 N   -0.1937302910    0.0534254382   -0.2877309016
 C   -1.4755810107   -0.5400897080    0.0123182221
 C   -1.5601933050   -2.0724746551   -0.3332971126
 N   -1.9317537238   -2.3014931267    1.0663546491
 C   -1.6592412551   -0.9962869894    1.4692255753
 N   -1.5678506679   -0.3752938334    2.5632237131
 C   -2.5505717429   -2.4962777720   -1.3222074547
 N   -3.3189368442   -2.8279119787   -2.1190033825
 H    0.9300103369    1.8015262733   -0.0366876192
 H   -0.8193681759    2.1166401988   -0.1674044728
 H   -0.1515598727    1.4006358653    1.3145598572
 H   -0.0681741137    0.0621046774   -1.2959481234
 H   -2.3511521124    0.0166476341   -0.3595053731
 H   -0.5724893680   -2.4577255347   -0.6086524068
 H   -1.7994630747   -3.1563744616    1.5881705457
 H   -1.6980119149   -0.9883451179    3.3697548856