21

 O   -0.0743193599    1.5661364586    0.2448758422
 C    0.0774666802    0.1430889483    0.2214842668
 C   -1.2784982326   -0.5019682696   -0.0623704681
 C   -2.2965254349   -0.1290196820    1.0425248168
 O   -2.7085766789    1.2210941343    1.0275522439
 C   -1.8499182105   -0.1157672930   -1.4614385009
 C   -2.3533845392   -1.4226003833   -2.0186111904
 C   -1.9740140212   -2.4670544543   -1.2860603372
 C   -1.1401816136   -2.0554260473   -0.0976187378
 H    0.7598606018    1.9626310431    0.5120438383
 H    0.7985127910   -0.1485953935   -0.5571999376
 H    0.4632435934   -0.2169807824    1.1881906820
 H   -3.2018380282   -0.7317683597    0.9061455061
 H   -1.8644318955   -0.4076097923    2.0205391658
 H   -1.9004347700    1.7475218972    0.9598908167
 H   -2.6299583957    0.6457861470   -1.3649074310
 H   -1.0776889758    0.3200688235   -2.1101731583
 H   -2.9416551113   -1.4786472230   -2.9283288240
 H   -2.2009436094   -3.5051919438   -1.5025252642
 H   -0.0937812012   -2.3714590380   -0.2225026150
 H   -1.4801419584   -2.5124633897    0.8411039758