18

 C   -0.0704986777    1.4551399156    0.0778272936
 C    0.0357792036   -0.0399893550   -0.0209347220
 C    0.7379610715   -0.6785407822   -1.2436200930
 C    1.0562389426   -2.0959980027   -0.6852165402
 C    0.4211514016   -1.9865950413    0.7247381086
 O    0.7020704462   -0.6208578594    1.0803899592
 C   -1.0817624399   -1.9095790018    0.5293574902
 N   -1.9391048858   -2.8100116164    0.7308309204
 O   -1.2965774349   -0.6458359786    0.0467110125
 H    0.9292807632    1.8956386807    0.0943137268
 H   -0.6170051500    1.8515166340   -0.7812495625
 H   -0.5983274768    1.7312149910    0.9929850046
 H    0.0799721363   -0.6890682099   -2.1140674658
 H    1.6435754553   -0.1225381259   -1.4958669964
 H    0.6244768259   -2.9082579953   -1.2724856798
 H    2.1314436626   -2.2621194010   -0.5955701523
 H    0.7625040244   -2.6799243030    1.4875215669
 H   -2.8745456480   -2.4855466287    0.4789561292