20

 N    0.9067141358   -0.1150829773    1.0365530894
 C    0.1644554532   -0.0225377700   -0.1084340094
 O    0.5139028605    0.6594294082   -1.0537919092
 C   -1.1348757338   -0.7919431623   -0.0473201766
 C   -1.7794768815   -1.4568505545   -1.2327639650
 C   -0.9440492441   -1.7430600688   -2.4747784670
 C    0.3216517373   -2.4765459096   -1.9663707028
 C   -0.0755160948   -3.1272056128   -0.6166090861
 C   -1.2488323388   -2.3075242253   -0.0942906274
 H    1.7913871048    0.3641223890    1.0767048419
 H    0.6631125103   -0.7549974820    1.7716926580
 H   -1.8321249634   -0.3254632077    0.6458956684
 H   -2.8455850984   -1.3038081879   -1.3621802456
 H   -1.5273092649   -2.3912703283   -3.1391599740
 H   -0.6888028965   -0.8367532781   -3.0284127616
 H    0.6830960816   -3.2184046243   -2.6833945411
 H    1.1296782494   -1.7577269585   -1.8210973705
 H   -0.4166095321   -4.1582621892   -0.7667029103
 H    0.7689394022   -3.1715304193    0.0805575957
 H   -1.9198874966   -2.7760105113    0.6185637432