21

 C   -0.0908010610    1.5749979185   -0.2903086562
 C    0.0513387208    0.1098339988    0.1386929220
 C   -1.2904431054   -0.5930041411    0.1607127539
 C   -1.8679445729   -1.2708371468   -1.0514061485
 O   -0.9513179981   -1.5619162788   -2.0800295621
 C   -0.3405305790   -2.8203186255   -1.8031587977
 C   -0.4202876216   -3.0577581713   -0.2737100650
 O    0.7891193554   -2.7843089034    0.4243802100
 C   -1.5240730221   -2.1025397260    0.1571294904
 H    0.8787647733    2.0829983480   -0.2831287155
 H   -0.5015448632    1.6470445811   -1.3026720521
 H   -0.7593916397    2.1268063630    0.3806843460
 H    0.7305270647   -0.4096225428   -0.5387431509
 H    0.5069547210    0.0506100444    1.1333763595
 H   -2.0357059629   -0.0764186032    0.7649663163
 H   -2.8824967127   -1.0913358840   -1.3956131083
 H   -0.8735592600   -3.6201849622   -2.3406319036
 H    0.6948377858   -2.7887508850   -2.1593414608
 H   -0.7336449836   -4.0928503107   -0.0746793712
 H    1.4396288030   -3.4440053792    0.1633797113
 H   -2.2925648317   -2.4895545338    0.8151140424