20

 O   -0.1586828890    1.3723148236    0.0764919658
 C    0.0140825368   -0.0085391439    0.0696884382
 C    0.8678170240   -0.7836516495   -0.9835524491
 C    0.7044208371   -1.9289707331    0.0595853151
 C    0.7808797850   -0.8244716404    1.1573596454
 C   -0.8124128334   -2.2181123431   -0.0087953333
 C   -1.3096122315   -0.7623787368   -0.0022263117
 C   -2.5557952474   -0.2410272601    0.5896661555
 N   -2.3885260037   -0.3195914271   -0.8830818075
 H    0.7042856023    1.7946948138    0.0345290662
 H    0.4508366367   -0.9240896951   -1.9843134237
 H    1.8957400747   -0.4138656608   -1.0406678157
 H    1.3820423062   -2.7806348648    0.0702286279
 H    1.7998011131   -0.4588255365    1.3136253457
 H    0.2842333948   -1.0023267232    2.1150727683
 H   -1.1086602608   -2.7383228463   -0.9236394843
 H   -1.1679478506   -2.7938349522    0.8511551352
 H   -3.2914363240   -0.9278276720    1.0006104234
 H   -2.5274895431    0.7396483653    1.0561728744
 H   -2.1631913872    0.6121850022   -1.2295404760