22

 C   -0.0520983404    1.2970598484   -1.6236187959
 C   -0.0930365409    0.0734531100   -0.7368937349
 C    1.1293384017   -0.5930275444   -0.1834151745
 C    2.5410565915   -0.1300138094   -0.4674807583
 N    0.2084443615    0.1360254988    0.7003438169
 C    0.6019330301    1.3649845183    1.3348747435
 C   -0.5150822446    2.2150346232    1.9156339645
 C    0.3413217691    1.3676891784    2.8252969954
 O   -0.1821253842    0.2133387055    3.3945059289
 H    0.8038931705    1.9437034240   -1.4227055348
 H   -0.0086836035    0.9963914099   -2.6759824673
 H   -0.9577654530    1.8970792366   -1.4874857954
 H   -0.9416545200   -0.5760131970   -0.9523415764
 H    1.0676214359   -1.6711807177   -0.0359296338
 H    2.6073966319    0.9207151975   -0.7552281266
 H    3.1803810366   -0.2792713787    0.4095747606
 H    2.9611569877   -0.7229548450   -1.2864982757
 H    1.4837655474    1.8841634200    0.9678418518
 H   -0.3889959392    3.2925562702    1.9122488969
 H   -1.5295163113    1.8677761869    1.7516325147
 H    1.0539513566    1.8627092684    3.4781629160
 H   -0.3415406536   -0.3788563139    2.6403108646