20

 C    0.0197079495    1.6382305240    0.0333758348
 C    0.1963820140    0.1242040747   -0.1271889820
 C    0.6898074492   -0.5400433898    1.1544792061
 C   -0.2340492463   -0.6515281737    2.4226358197
 C    0.1131268464   -2.1433947643    2.5136085707
 C   -0.3627420561   -2.8763223320    1.2779314186
 C   -1.5950650710   -2.5575967374    0.6055871717
 N   -2.5997513410   -2.3187273530    0.0828652538
 C    0.9171433679   -2.0586316308    1.2219183975
 H    0.9628065513    2.1225391689    0.3116956292
 H   -0.3290991044    2.0965224434   -0.8966523627
 H   -0.7148333215    1.8713966778    0.8119330047
 H   -0.7490305131   -0.3231130539   -0.4472481573
 H    0.9215868602   -0.0786115034   -0.9265669435
 H    1.6237873342   -0.0562499024    1.4634976265
 H    0.1285035160   -0.0678955093    3.2699572865
 H   -1.2952317872   -0.4323023467    2.2717132128
 H    0.3240425622   -2.6965076519    3.4205144524
 H   -0.1700544037   -3.9452964212    1.3059773402
 H    1.8375812232   -2.5655431390    0.9548344804