14

 C   -0.0091708439    1.5094887905    0.0158938759
 C    1.3113670171    0.7827077500   -0.0003111661
 C    1.9419985213    0.5254119160    1.3564617577
 O    0.8847422872    0.0519753916    2.1873367303
 C   -0.0362078026   -0.6669675231    1.3704780705
 C    0.0166615546    0.0023137555    0.0088623842
 H   -0.3061353509    2.0129222383    0.9310215813
 H   -0.3153555520    2.0067232363   -0.8976075757
 H    1.9477875059    0.8277898437   -0.8759175173
 H    2.7446298974   -0.2249944822    1.2638609162
 H    2.3571861769    1.4155605883    1.8412147134
 H    0.2515602853   -1.7277119346    1.2815250761
 H   -1.0121304158   -0.6153219406    1.8650876921
 H   -0.3294822904   -0.5448525098   -0.8597822086