17

 O    0.0583882694    1.3851254139    0.0880887099
 C    0.0118389590   -0.0112940843    0.0152709165
 C   -1.3622465013   -0.6250718101   -0.3984219609
 C   -1.4930752477   -0.0339487170   -1.8129553064
 O   -0.1265191811   -0.0153329476   -2.2855845474
 C    0.6781717367   -0.6134649484   -1.2322615669
 C    0.2886633852   -2.0779733985   -1.1313322475
 N    0.9793446415   -3.0562638877   -1.5530345338
 N   -0.9607888501   -2.0311000448   -0.4997709065
 H    0.1397808176    1.7138458244   -0.8164619271
 H    0.3677059883   -0.4273352051    0.9590649698
 H   -2.2018254369   -0.4615976098    0.2750870279
 H   -2.1081838729   -0.6567591942   -2.4713379967
 H   -1.8923875022    0.9870156576   -1.8066703344
 H    1.7265370699   -0.4126141500   -1.4345334925
 H    0.4965229625   -3.9461591024   -1.4065765609
 H   -1.6484999480   -2.7413461261   -0.7071786832