18

 O    0.7150340776    0.5366384137   -0.9202156904
 C   -0.0081178883   -0.2631003739   -0.0237261917
 C    0.1823556550   -0.0990107603    1.5084429638
 C   -1.3284895431   -0.3926883117    1.6759291433
 C   -1.7906484355   -1.7670556502    2.2081295925
 O   -2.5742811345   -1.1520939054    3.2495286004
 C   -2.1912602190    0.1693846138    2.8170584635
 C   -1.5301939535   -0.0364539884    0.1828237016
 H    0.5666705043    1.4588649682   -0.6850794486
 H    0.1902972934   -1.2950856190   -0.3287554205
 H    0.8981798219   -0.7473157555    2.0206807839
 H    0.4089357584    0.9444648697    1.7608619566
 H   -2.4117814884   -2.3581726521    1.5215622037
 H   -0.9984965119   -2.4098055842    2.6155210136
 H   -1.6442891422    0.7160702054    3.5973068093
 H   -3.0575505151    0.7676863550    2.5033606339
 H   -1.7832762095    1.0245431764    0.0639542038
 H   -2.2339330896   -0.6329046213   -0.4037674788