17

 C    0.0772695607    1.5260164532    0.0191819315
 C   -0.0523060490    0.0046953920    0.0091752289
 C   -1.4568235801   -0.5223828126    0.0271128225
 N   -2.4501238738    0.3163746135    0.0487647939
 N   -3.6913256742   -0.1905779662    0.0642293797
 N   -4.0482806855   -1.4712293135    0.0601060641
 C   -3.0793446761   -2.3355383280    0.0386714825
 C   -1.6683774577   -1.9788500219    0.0196336897
 N   -0.6613040420   -2.7824178114   -0.0017416425
 H    1.1326844632    1.8120461905    0.0047561999
 H   -0.4112280446    1.9742651235   -0.8504035851
 H   -0.3833441522    1.9602865389    0.9108052460
 H    0.4478937230   -0.4319110208   -0.8653033450
 H    0.4750750486   -0.4456501893    0.8603839240
 H   -4.4402718359    0.4809000011    0.0808251440
 H   -3.3748734771   -3.3816709598    0.0353226905
 H   -0.9814006571   -3.7540493192   -0.0039773346