20

 C   -0.1235455204    1.3571096604    0.0743194495
 O    0.0257886364   -0.0512370843    0.0642700340
 C    0.6345812528   -0.5557707782   -1.0652133638
 C    0.0186341029   -0.4852541418   -2.4788961954
 N    0.6924658475   -1.7890571888   -2.7977502998
 C    2.0202514830   -1.7459341360   -2.0700356202
 C    0.7833596061   -2.0961196148   -1.3427195439
 C    2.1822182311   -0.4182070306   -1.3305453319
 C    2.8121121358    0.7840392178   -2.0249784182
 H    0.8457755766    1.8717769413    0.1168987745
 H   -0.6708125479    1.7135786580   -0.8098759703
 H   -0.6958538647    1.6094679416    0.9693983958
 H   -1.0611219225   -0.6558734068   -2.4666180646
 H    0.2596337162    0.3492798555   -3.1452303779
 H    2.7896573634   -2.3969060777   -2.4655873073
 H    0.4074011420   -2.9927124155   -0.8693679973
 H    2.6878424786   -0.6175023310   -0.3787865667
 H    2.3156611083    1.0291250482   -2.9678621083
 H    2.7909732515    1.6749252011   -1.3887414133
 H    3.8625955435    0.5755738316   -2.2579211551