17

 C    0.2555173408    1.5532073746   -0.1589002560
 C   -0.1010483908    0.0784881349    0.0676928361
 N    0.3429044292   -0.7667062972   -1.0893797841
 C    1.5719473201   -1.5215183199   -0.7241773052
 C    1.5947252572   -1.4555147179    0.7784030000
 N    2.2825744289   -2.0148246247    1.7338066517
 O    1.7543291443   -1.4474079671    2.9058620598
 C    0.7765754080   -0.5701194795    2.5816241058
 C    0.6233806837   -0.5323986354    1.2379972600
 H    1.3360375140    1.6752280684   -0.2802860821
 H   -0.2351789207    1.9227400854   -1.0630124047
 H   -0.0629155260    2.1645472150    0.6919270027
 H   -1.1892488125   -0.0078836035    0.1607020764
 H   -0.3894145863   -1.4364924881   -1.2900688216
 H    1.5363554496   -2.5396500813   -1.1205058119
 H    2.4631031728   -1.0404946353   -1.1465232224
 H    0.3029630176   -0.0834639984    3.4200080055