19

 C    0.0372722876    1.4434168721   -0.0108531080
 C    0.0064201119   -0.0431996441   -0.0545974758
 C   -0.0483558000   -0.9302314624   -1.0580539917
 C   -0.0187999194   -2.2895813990   -0.3440536474
 C    1.0862695147   -2.0237779191    0.7354047767
 C    0.0564699465   -0.9523279300    1.1984902970
 O    0.1674893424   -0.3623782148    2.4555767362
 C   -1.0392775883   -2.0200762215    0.8233280729
 O   -2.3552514285   -1.6381841596    0.5759360729
 H    0.9327773393    1.7996735806    0.5120563305
 H    0.0249698145    1.8765031007   -1.0148323332
 H   -0.8190200848    1.8475533945    0.5446399816
 H   -0.0835184424   -0.7604921258   -2.1258802312
 H   -0.0446118750   -3.2005629969   -0.9377962140
 H    1.2136854299   -2.8376057891    1.4556706038
 H    2.0480231200   -1.6596581308    0.3719047093
 H   -0.7136269057   -0.0895148750    2.7343235936
 H   -1.0769185735   -2.8354987299    1.5510252192
 H   -2.3162818890   -0.9753914600   -0.1282691223