19

 C   -0.1039596493    1.5060992907   -0.0137993966
 C   -0.0161460424    0.0110216693    0.0192017764
 C   -0.0150217974   -0.9499322019   -1.1281188853
 O    1.1054046330   -1.8112066234   -1.1417391461
 C    1.8278278266   -1.5575999304    0.0720747114
 C    0.8019468229   -0.8967235869    0.9910910065
 C   -0.4515054728   -1.8210443784    1.1584433177
 C   -1.0662008825   -1.1006903465   -0.0373944824
 O   -2.4191368159   -0.9345273612   -0.2756811660
 H    0.8575778401    1.9592576925   -0.2821659186
 H   -0.8443837414    1.8330960120   -0.7503874868
 H   -0.4052889043    1.9118505307    0.9586621985
 H   -0.3497642645   -0.6432623215   -2.1129852550
 H    2.2038555223   -2.5128197567    0.4532470790
 H    2.6841312966   -0.8939770999   -0.1242212452
 H    1.2097364647   -0.4483709402    1.8969021334
 H   -0.2869680885   -2.9022965936    1.0845694540
 H   -1.0007187227   -1.5931379650    2.0754060040
 H   -2.7329917847   -1.6880127895   -0.7884292389