12

 N   -0.0035386201    1.1216960530    0.0406436115
 C   -0.2785369138   -0.2063587884    0.1441432707
 O    0.4790878787   -1.0190143661    0.6297702978
 C   -1.6820784811   -0.6114456490   -0.3337188665
 O   -1.6951950656   -1.9493505102   -0.7884529479
 C   -1.6368180399   -2.9207905774    0.1587908470
 O   -1.5617114034   -4.0746435526   -0.1285179468
 H    0.9044343578    1.4425347294    0.3370862092
 H   -0.5808328576    1.7504971738   -0.4901545061
 H   -2.3811550920   -0.4640647084    0.5018359111
 H   -2.0258186531    0.0016947720   -1.1703329759
 H   -1.7006353298   -2.5246584860    1.1868417859