18

 N   -0.6027426368    1.1066208112   -0.1202849661
 C   -0.7398695118   -0.1025892113   -0.4536431442
 O   -0.4168895408   -1.0767997663    0.4249885733
 C   -0.6721089571   -2.4186684398    0.0315061219
 C   -2.1099314853   -2.8451637570    0.3428054625
 O   -3.0232495000   -2.1382279926   -0.5016690471
 C   -3.8236066248   -3.0529647287   -1.2500676166
 C   -3.3369875611   -4.4158103715   -0.8475481422
 C   -2.3758011803   -4.3002425920    0.0610065377
 H   -0.8676570832    1.7081603820   -0.8974967320
 H   -1.0982116881   -0.4839458660   -1.4164587875
 H   -0.4711362448   -2.5613940788   -1.0383067844
 H    0.0297062560   -3.0343402224    0.6024966457
 H   -2.3148103600   -2.5796244268    1.3922782816
 H   -4.8872774065   -2.9004977564   -1.0092941509
 H   -3.7058972979   -2.8611392941   -2.3276698366
 H   -3.7459145491   -5.3337711620   -1.2500667831
 H   -1.8407729785   -5.1036451274    0.5509024781