13

 N    0.0485346506    1.4398958331    0.1614767701
 C   -0.0988586714    0.0704248296    0.0446694869
 C   -1.1462632306   -0.7977472388    0.0312491690
 N   -2.5141476287   -1.0359854626    0.0322849444
 C   -2.6349689692   -2.4115380937   -0.0020235139
 N   -1.5124379996   -3.0788737433   -0.0586065933
 C   -0.5475081528   -2.0829302602   -0.0383408155
 N    0.7702191299   -2.0563920146   -0.0547070114
 O    1.0383621401   -0.6609789242   -0.0075085294
 H    1.0085554435    1.7288013402    0.0215911468
 H   -0.5768033873    1.9728066019   -0.4285911015
 H   -3.2602502446   -0.3874888657    0.2106882167
 H   -3.6155901699   -2.8693270118    0.0088595611