19

 C   -0.2282280866    1.6686762610    0.0928763655
 N   -0.1176714152    0.2133402103    0.0598223899
 C    0.6939239344   -0.3932280189   -0.9880104509
 C    0.0845486648   -0.1586010869   -2.3900199613
 C   -1.2854426662   -0.6499045766   -2.5084133851
 N   -2.3652301466   -1.0453387939   -2.6192117808
 C    2.1558823393    0.0347320174   -1.0076265432
 C    3.1907706929   -0.7515816126   -0.3261060044
 O    3.0410279352   -0.8117896230   -1.7467147600
 H    0.7239044744    2.2158519398    0.1882997869
 H   -0.7356829698    2.0291862918   -0.8072728084
 H   -0.8576305733    1.9458229909    0.9427822307
 H    0.1829037273   -0.1342929622    0.9622424800
 H    0.6800790775   -1.4747584905   -0.8104706230
 H    0.1003378226    0.9068500355   -2.6456333093
 H    0.7128861337   -0.6685347130   -3.1272694596
 H    2.3402437144    1.0994776405   -1.1568613146
 H    4.0984693314   -0.2653279675    0.0273578463
 H    2.9098510198   -1.6576163521    0.2101084211