19

 C    0.0499155792    1.4809842813    0.1139061605
 C    0.1475650362   -0.0550886988    0.0705496963
 C    0.8682110557   -0.5586872840    1.3094116577
 O    1.8428269606   -1.2643111575    1.3048044354
 C   -1.2471471052   -0.6854405932    0.0382283185
 C   -2.1585400944   -0.6942398107   -1.2272875609
 C   -1.2766073514   -1.7820413560   -1.8852970463
 C   -1.5254773403   -2.1529541100   -0.4034630888
 O   -2.9468235800   -1.7711458342   -0.5879828916
 H    1.0422153103    1.9412794969    0.1260184924
 H   -0.4879822270    1.8564545754   -0.7613163331
 H   -0.4907113508    1.8164472171    1.0059320476
 H    0.7460135304   -0.3691445550   -0.7881935681
 H    0.4068057411   -0.2219028191    2.2691549604
 H   -1.8227460693   -0.4254832733    0.9325093685
 H   -2.7116076216    0.1257731181   -1.6865941676
 H   -1.8003347983   -2.4139446360   -2.6028257370
 H   -0.2660279953   -1.5278109234   -2.2086911626
 H   -1.3199723398   -3.0850808579    0.1229681286