21

 C   -0.0668998624    1.5190225124   -0.1563095315
 C   -0.0078689712    0.0342326548    0.0992980158
 O    1.2664706163   -0.6129149078   -0.0235330911
 C    0.6139024498   -0.6182424970    1.2635493622
 C    1.3459688089    0.1302877081    2.3586971330
 C    2.5524939857   -0.6947253181    2.8390744463
 C    2.1787694048   -2.1312168736    3.0968311051
 C    1.0800393242   -2.6988791108    2.6018903064
 C    0.1007485679   -1.9800407005    1.7082076347
 H    0.7454480321    2.0543904037    0.3380756706
 H    0.0059579627    1.7158453772   -1.2312107538
 H   -1.0210498313    1.9286050584    0.1933200726
 H   -0.8178316261   -0.5233070210   -0.3801851255
 H    1.6729886055    1.1133538608    2.0141345402
 H    0.6560063973    0.2853864994    3.1982195103
 H    3.3485988557   -0.6498983771    2.0825228606
 H    2.9742894414   -0.2455555516    3.7461217982
 H    2.8563471769   -2.7166859518    3.7136034761
 H    0.8553281927   -3.7380429935    2.8300140967
 H   -0.8622109556   -1.8627384463    2.2284462865
 H   -0.1079336552   -2.5805950559    0.8147856165