15

 C    0.0470756892    1.5015510668   -0.0062360485
 C   -0.0508103791    0.0154441555   -0.0051462425
 C   -1.1376485424   -0.7893727799   -0.1592919431
 N   -0.6806519305   -2.1081614602   -0.0772871142
 C   -0.9926497469   -3.4479841299   -0.1083451665
 N    0.0982991346   -4.1592078037    0.0633965336
 N    1.1845569073   -3.3112628718    0.2164771838
 C    0.6751883267   -2.1061638074    0.1260941164
 N    1.0722348335   -0.7946440351    0.1706686323
 H    0.7041888151    1.8618141739   -0.8063194039
 H   -0.9402506263    1.9421527708   -0.1580083068
 H    0.4434423072    1.8803179241    0.9430681670
 H   -2.1699630694   -0.5328593813   -0.3173948033
 H   -1.9872544770   -3.8345308492   -0.2534207906
 H    2.0153140080   -0.4816508024    0.3136038563