21

 C   -0.1678740711    1.5480804595    0.0458201611
 C    0.0672231684    0.0361709013   -0.0095108456
 C    0.6708183560   -0.5191708751    1.2839827717
 C    0.9081844692   -2.0313267034    1.2180723346
 N    1.5170272629   -2.5588785209    2.4270912340
 C    0.9208032749   -3.2439848315    3.4342241950
 C    1.8875400327   -3.4753044662    4.3915749919
 C    3.0485441027   -2.8788402896    3.8613552233
 N    2.8212195498   -2.3228187308    2.6729279742
 H    0.7693308266    2.0865618119    0.2232096431
 H   -0.5942636773    1.9193369153   -0.8911034749
 H   -0.8583057687    1.8119047130    0.8544532552
 H   -0.8822026962   -0.4745470963   -0.2203335846
 H    0.7318748639   -0.2005776174   -0.8508839758
 H    1.6286448538   -0.0310037821    1.4954460852
 H    0.0104275370   -0.2974496922    2.1322073990
 H   -0.0343377454   -2.5666032191    1.0653728982
 H    1.5698776040   -2.2741294325    0.3808177603
 H   -0.1231700668   -3.5120324848    3.3876573337
 H    1.7701827695   -4.0022689079    5.3243511192
 H    4.0395178843   -2.8363664512    4.2894558111