13

 O    0.0829413301    1.2989106714    0.1226690714
 C    0.0697847368   -0.0348999391    0.0156540458
 N    0.0935894713   -0.7158939650   -1.1097456552
 C    0.0647264858   -2.0123201449   -0.6507042840
 C    0.0241767805   -2.1124780415    0.7298545554
 N    0.0280811122   -0.7841005649    1.1605310314
 C   -0.0007699015   -3.4864964445    1.0218528796
 N    0.0231288449   -4.1884535728   -0.1167391512
 N    0.0631276605   -3.2779479873   -1.1292528029
 H    0.1128710254    1.6459104523   -0.7782357932
 H    0.0060439054   -0.4146877985    2.0943830839
 H   -0.0339703453   -4.0077226403    1.9658012070
 H    0.0859377240   -3.6039026950   -2.0790788180