14

 C    0.0566561727    1.3657002119    0.3531127317
 C    0.1016618455   -0.1434132102    0.3017354250
 O    1.1231921916   -0.7819022019    0.3429681014
 C   -1.2413315105   -0.8664807056    0.1913809509
 N   -2.3449841716   -0.1140003939    0.1490958521
 C   -3.4840609662   -0.8007849231    0.0529431463
 N   -3.5907233641   -2.1268098591   -0.0013654804
 C   -2.4191657552   -2.7678772546    0.0490669707
 N   -1.2200399796   -2.2009420523    0.1446932324
 H    1.0744458120    1.7481371589    0.4307388302
 H   -0.4337685310    1.7646009171   -0.5402198829
 H   -0.5433566333    1.7019884690    1.2043167869
 H   -4.4066420585   -0.2257883731    0.0156478276
 H   -2.4505349219   -3.8543931329    0.0079846081