19

 C    0.0360086179    1.4392267187   -0.3056607696
 C    0.0388440166   -0.0004771381    0.2099538890
 O    0.5755908014   -0.0922507407    1.5268114921
 C   -1.3480936238   -0.6101798745    0.1361872450
 C   -1.8824263951   -1.1778244768   -1.1483273731
 O   -1.0759947070   -1.1839774500   -2.2827427230
 C   -1.5563231612   -2.1233871758    0.0065441465
 C   -0.4497525367   -3.0110086772   -0.1797480211
 C    0.4624788988   -3.7566471000   -0.4318518617
 H    1.0345086608    1.8741264240   -0.2087275899
 H   -0.2639245854    1.4669854490   -1.3570756949
 H   -0.6656180340    2.0605687164    0.2657822451
 H    0.7186381643   -0.5954510248   -0.4045935247
 H    0.0447459097    0.4722721795    2.0995084914
 H   -2.0817938301   -0.1175896684    0.7726479939
 H   -2.9348860303   -1.0309408242   -1.3801454238
 H   -0.5803794097   -2.0142265773   -2.2955346121
 H   -2.3994558428   -2.5435860527    0.5461788484
 H    1.2805367164   -4.4145080473   -0.5930665075