14

 C    0.2894570016    1.4409273060    0.2293418207
 N    1.1542903670    0.3339771624   -0.2196219255
 C   -0.2732687299    0.0818177876    0.0187360301
 C   -0.5927270767   -0.8307333538    1.1661963404
 C    0.0486680312   -2.1662782606    1.2456709808
 N    0.4283477542   -1.0964091517    2.1859757144
 H    0.4894300453    1.7878099903    1.2390913206
 H    0.0329906435    2.2228522407   -0.4800455495
 H    1.3473047845    0.4093734453   -1.2135242193
 H   -0.9144747467   -0.0433443333   -0.8529449448
 H   -1.5992188569   -0.7121727933    1.5640788511
 H   -0.4832699120   -3.0046093278    1.6865750401
 H    0.7542571556   -2.4270724212    0.4610447799
 H    1.3031466793   -0.6898724107    1.8523835911