25

 C   -0.0892795479    1.6337250497   -0.0817324710
 C    0.0143747561    0.1079496812    0.0064748700
 C   -1.3617904315   -0.5715008594    0.0394440326
 C   -1.3571254255   -2.1109720784    0.0628599005
 C   -0.6557299732   -2.6715080065    1.3126537011
 C   -2.8037706699   -2.6878970135   -0.0280206478
 C   -2.6954419871   -3.8533248698   -1.0426596001
 O   -1.3109520194   -4.0158714265   -1.3287020693
 C   -0.7268707268   -2.7313512615   -1.2050677931
 H    0.9001283527    2.1012012137   -0.1001082054
 H   -0.6213108050    1.9433840421   -0.9882210416
 H   -0.6352222852    2.0430294073    0.7757950929
 H    0.5911933691   -0.2651563451   -0.8497125502
 H    0.5876874701   -0.1616836506    0.9009139625
 H   -1.9179191551   -0.2053371697    0.9137446118
 H   -1.9341161246   -0.2419502024   -0.8392284064
 H   -1.1558014195   -2.3350799309    2.2277029441
 H   -0.6750544976   -3.7653795170    1.2976289872
 H    0.3920319287   -2.3604868355    1.3681589319
 H   -3.1547529730   -3.0273822537    0.9500227085
 H   -3.5085202417   -1.9292603228   -0.3803170503
 H   -3.0695955562   -4.8069461293   -0.6602210859
 H   -3.2480258722   -3.6177675876   -1.9657259086
 H   -0.9526263154   -2.1103622019   -2.0905385664
 H    0.3566097801   -2.8640387719   -1.1438592470