18

 C   -0.3427691377    1.4809396459   -0.3143622260
 C   -0.0249859576    0.0286390570   -0.0474894270
 O    1.1769655095   -0.4204058885   -0.8241846589
 C    1.8545918827   -0.5162766000    0.3569052575
 N    3.0421768580   -0.2790636619    0.7302916754
 C    2.8797265153    0.1235631420    2.1266719139
 C    2.2738451378    1.4909592475    2.2651451579
 C    1.3568257380    0.2999200964    2.4478562585
 C    0.6952682185   -0.4066222884    1.2867456776
 H    0.5056651044    2.1295640960   -0.0890837114
 H   -0.6152063355    1.6224424394   -1.3641794442
 H   -1.1903350353    1.7903843513    0.3057458623
 H   -0.8640738213   -0.6221812851   -0.3048816626
 H    3.6000526834   -0.2455594797    2.8466776426
 H    2.4855764581    2.0461638993    3.1734246222
 H    2.2270468061    2.1030930555    1.3714756829
 H    0.9861559901    0.1138625176    3.4478483421
 H    0.2910799556   -1.3703764845    1.6082609972