22

 C   -0.0991462328    1.6600179351   -0.0959608008
 C   -0.1273559075    0.1283852232   -0.0595506524
 C    0.6954744240   -0.5193409821   -1.1756906740
 C    2.2163411391   -0.2382958001   -1.1325725418
 C    2.9046334135   -1.4346152789   -1.8503002897
 C    1.7699901738   -2.4164076357   -2.2266080539
 C    0.6163852170   -2.0715274010   -1.2532409547
 C    0.8208087461   -2.7016313618    0.0540872412
 N    0.9942299940   -3.1986462959    1.0838785628
 H    0.9162635162    2.0465974744    0.0367986483
 H   -0.4780295337    2.0422867349   -1.0506907112
 H   -0.7199395489    2.0812396453    0.7002698363
 H    0.2424000197   -0.2261877624    0.9102194385
 H   -1.1671437407   -0.2154260137   -0.1348788587
 H    0.3057457275   -0.1677956970   -2.1411536846
 H    2.4590558310    0.7202691333   -1.5971490231
 H    2.5485475892   -0.1784444293   -0.0905513635
 H    3.4636119788   -1.1219592552   -2.7358031980
 H    3.6199733333   -1.9191813780   -1.1807156253
 H    1.4141117099   -2.2253665347   -3.2442082563
 H    2.0699464405   -3.4650281288   -2.1742165600
 H   -0.3550030700   -2.4051677615   -1.6322070691