15

 C   -0.0533648395    1.4620667729    0.0090242836
 N   -0.0161984595    0.0013386074    0.0008211098
 C   -1.2319532013   -0.6918867230    0.0042329695
 N   -2.3268166043   -0.0285717090    0.0145679995
 C   -1.0936695496   -2.1502953715   -0.0048117392
 N    0.0280158155   -2.7775067451   -0.0149091281
 N    1.1400189712   -2.0188151284   -0.0171231138
 C    1.2175536289   -0.6309561789   -0.0096281689
 O    2.2882812374   -0.0622730219   -0.0129007753
 H    0.9736283391    1.8192098443    0.0030255828
 H   -0.5973903107    1.8206483678   -0.8678391192
 H   -0.5835455670    1.8113298701    0.8980875888
 H   -3.1234719712   -0.6639873226    0.0156684238
 H   -1.9945966428   -2.7542129061   -0.0029535205
 H    2.0182269340   -2.5132483058   -0.0250094427