19

 C   -0.0646369125    1.5423336784   -0.0459991837
 C    0.0388334349    0.0186724227   -0.0089525829
 C    0.6813759097   -0.5611634328   -1.2743224775
 O    0.7600612178   -1.9787159929   -1.1942867818
 C    1.4903780266   -2.3777231157   -0.0674326979
 O    0.9075732982   -1.9433671830    1.1405641706
 C    0.8160496370   -0.5177821124    1.2202694850
 C    2.1389963507    0.1014807435    1.3870842305
 C    3.2203042504    0.6069564315    1.5329445084
 H    0.9223058366    2.0063111530   -0.1315402291
 H   -0.6705506520    1.8662418544   -0.8983629651
 H   -0.5370964391    1.9286378225    0.8632481718
 H   -0.9637070882   -0.4172872993    0.0719440200
 H    0.0813390799   -0.3303722759   -2.1589133987
 H    1.6866608637   -0.1315071298   -1.4187084697
 H    1.4756965993   -3.4686326703   -0.0406995667
 H    2.5278751702   -2.0067562447   -0.1352356776
 H    0.2310217982   -0.3245366557    2.1262990493
 H    4.1756993587    1.0502132766    1.6722283651