19

 C    0.2243253070    1.5526042310    0.0450304547
 C    0.1078189543    0.0573305231    0.0383999068
 C   -0.9265053676   -0.7277233597    0.8248438707
 C    0.5338797298   -1.0116930456    1.0352087545
 O    1.0082037980   -1.8870934088    0.0076315843
 C    0.7212754827   -0.8784650668   -0.9998375722
 C    1.2602993187   -0.9837893413    2.3212267007
 C    2.2223610222   -2.0391535269    2.6708808986
 O    2.6719634024   -0.7465214987    2.2652172789
 H    1.2466660777    1.8730068900   -0.1822540375
 H   -0.4441294957    2.0061263331   -0.6969089069
 H   -0.0450864879    1.9657499393    1.0221006715
 H   -1.4168436954   -0.1582691737    1.6096024996
 H   -1.5447001999   -1.4853352215    0.3497457624
 H    0.0713605204   -1.2622231124   -1.7953095092
 H    1.6527480055   -0.4935027176   -1.4308715442
 H    0.7472497423   -0.4567880377    3.1257859124
 H    2.3860222604   -2.2898478025    3.7182045166
 H    2.4032771247   -2.8365498235    1.9540879985