21

 C   -0.0406066539    1.6191698934   -0.0631795618
 C    0.0249214808    0.0896086979    0.0087490890
 C    0.7768341642   -0.5663830715   -1.1825879783
 C    1.5226874047   -1.7858382243   -0.5913257481
 C    1.6001142962   -1.4585346380    0.8880797400
 C    2.4462424429   -2.2655105569    1.8329489461
 C    1.8465085242   -3.6477402426    2.0550928226
 O    2.3942847278   -4.6873971255    1.8000046940
 C    0.7818874311   -0.4514287866    1.2012390051
 H    0.9658318772    2.0515053577   -0.0874311381
 H   -0.5703671467    1.9474008742   -0.9637615406
 H   -0.5657080539    2.0374320535    0.8022609807
 H   -1.0093147850   -0.2877791391    0.0469367365
 H    0.1114183668   -0.8304472712   -2.0085885903
 H    1.5082015727    0.1501109113   -1.5738512183
 H    0.9701965725   -2.7232621372   -0.7500508751
 H    2.5108751714   -1.9397108037   -1.0404343524
 H    3.4665130032   -2.3982149489    1.4580607199
 H    2.4886550715   -1.7666123350    2.8099248208
 H    0.8149110411   -3.6235514705    2.4767898484
 H    0.6400971612   -0.0592535172    2.2042927901