20

 C    0.0616345142    1.3112212072   -0.4238838206
 C    0.0466742272   -0.1157131554    0.1579139283
 C    0.6619459598   -0.1376966182    1.5630361004
 C   -1.3425819456   -0.6966712768    0.1283762151
 C   -2.1236618587   -1.0541339876    1.1784519710
 O   -3.3382145417   -1.5351321863    0.7355514772
 C   -3.3097499099   -1.4803045337   -0.6149134157
 N   -4.4860849549   -1.8605603070   -1.2476843022
 C   -2.1219399266   -0.9798820034   -1.0549996569
 H    1.0836879247    1.7028187509   -0.4663382341
 H   -0.3538467761    1.3353894049   -1.4354647114
 H   -0.5371880771    1.9855656106    0.1977544730
 H    0.6774045915   -0.7383650438   -0.4933786234
 H    0.0853584852    0.4891484364    2.2527702080
 H    0.6896767803   -1.1526658771    1.9708506238
 H    1.6855196152    0.2489394419    1.5424394647
 H   -1.9961108554   -1.0492154582    2.2463865902
 H   -4.9760270536   -2.5911648644   -0.7465391974
 H   -4.3404642857   -2.1263062354   -2.2117093205
 H   -1.8258432329   -0.8337447046   -2.0819390393