16

 O   -0.0845207889    1.4110403586   -0.0718199364
 C    0.0202011405    0.0256931724    0.0073164222
 C   -1.3395040842   -0.7133039212   -0.0285638618
 C   -0.9047829161   -1.5109969698    1.2199816882
 O   -1.4353210370   -2.3418229532    1.8947345350
 C    0.4448840887   -0.7562770538    1.3159064406
 C    1.6204990864   -1.3662356430    0.5134299526
 N    1.0370436931   -2.1029749597   -0.6333734545
 C    1.2260114490   -0.6357171221   -0.7227654113
 H    0.7820674391    1.7962517973    0.1006814573
 H   -2.1608235906   -0.0263633034    0.2008931436
 H   -1.5828277697   -1.3065985203   -0.9106667868
 H    0.6983499372   -0.2516141783    2.2487871289
 H    2.5967532910   -1.6294851054    0.9003061753
 H    1.8032965410   -2.5458506071   -1.1392215079
 H    1.8197271206   -0.1932017011   -1.5154216051