16

 C   -0.1122983333    1.4919009252    0.0137942330
 C    0.0186299405    0.0081613652   -0.0099019816
 C    0.9118583664   -0.9819045032   -0.8076980964
 C   -0.1584907573   -2.0095021284   -0.8100603171
 N    0.8523481074   -1.9988646964    0.3018669257
 C   -0.0500152599   -1.0365737954    1.0654246176
 C   -1.1146865410   -1.0656313433   -0.0279236404
 C   -2.5104125663   -0.8859536337    0.0183052558
 C   -3.7054296937   -0.7310045580    0.0504960834
 H    0.8145794159    1.9681036761    0.3534012833
 H   -0.3531743884    1.8865159289   -0.9794696337
 H   -0.9157829896    1.7919786259    0.6940598671
 H    1.7886716565   -0.8510752538   -1.4308498342
 H   -0.3358470193   -2.8764843902   -1.4347292421
 H   -0.1476792707   -0.9899692403    2.1431986634
 H   -4.7581033871   -0.5977871186    0.0830035261