16

 C    0.0264176541    1.3725596431    0.1047056185
 O    0.0598746230   -0.0476336851   -0.0062420772
 C   -1.1313566299   -0.6641665862    0.0296981430
 N   -1.2087366028   -1.9179222740   -0.0700118850
 C   -2.5274548187   -2.5086389591   -0.0187510844
 C   -2.7498379354   -3.3587229085   -1.2887790237
 C   -4.0386326281   -4.0444009451   -1.2778013177
 N   -5.0650390042   -4.5746717323   -1.2501821775
 H    1.0642025040    1.7051887394    0.0760795454
 H   -0.5199762138    1.8261894013   -0.7305482339
 H   -0.4268384379    1.6890752747    1.0513846411
 H   -1.9951217023    0.0083749301    0.1554450740
 H   -2.5896613791   -3.1690958512    0.8538673440
 H   -3.3386182676   -1.7677716373    0.0725412768
 H   -2.6923474360   -2.7196201753   -2.1764542563
 H   -1.9439793753   -4.0946237544   -1.3736065672