16

 C    0.0397869233    1.3715119520   -0.1988135473
 C    1.4609369895    1.8717972494    0.1708112297
 C    2.1092869791    0.5962511542    0.6550302223
 C    3.3967480171    0.2694914006    1.0393254979
 N    3.7368395818   -0.9530607339    1.4768028163
 C    2.7700723669   -1.8726477997    1.5398343519
 C    1.4370535160   -1.6627485075    1.1812337131
 C    1.1262945699   -0.3902245647    0.7281358191
 O   -0.0961394135    0.0268266898    0.3325812175
 H   -0.7613814246    1.9762993673    0.2306000111
 H   -0.1051268379    1.3148061417   -1.2826729339
 H    1.9682743718    2.3169104953   -0.6896003009
 H    1.4286907672    2.6326970276    0.9585682506
 H    4.1970637582    1.0056170756    0.9998461938
 H    3.0732412249   -2.8535539355    1.8991528645
 H    0.6949477103   -2.4482504121    1.2490069242