17

 C   -0.3943215279    1.3120345968    0.0207414045
 N    0.1105990257   -0.0574306950    0.0166239571
 C    1.4922416373   -0.2724370229   -0.3692619370
 C    1.0727739594   -0.4824083077    1.0519375170
 C    1.5511818787    0.3953720039    2.1313691597
 C    1.5242838806    0.2487580739    3.4875223165
 C    2.1435636046    1.4313556622    3.9655159963
 N    2.5131556892    2.2288525464    2.9943683135
 O    2.1410512700    1.5686912806    1.8222837809
 H    0.3560518583    2.0724274007    0.2734402461
 H   -0.7879827136    1.5285767149   -0.9769387712
 H   -1.2201437077    1.3850794830    0.7349354030
 H    1.6875254261   -1.1349312840   -1.0014206735
 H    2.1144131026    0.5982839582   -0.5685317718
 H    0.8948064714   -1.4961537112    1.4012695275
 H    1.1212668712   -0.5743360283    4.0531334016
 H    2.3323449843    1.7311953585    4.9868741399