23

 C   -0.0664687092    1.5645377523    0.0110337998
 C    0.0111547083    0.0354031503    0.0021182128
 C    0.7016505970   -0.4914660021   -1.2660169333
 C    0.8013837403   -2.0229931816   -1.2841656889
 C    1.5142508145   -2.5632826906   -0.0260738502
 C    0.8255019396   -2.0365500118    1.2510447012
 C    0.7255981305   -0.5049265701    1.2511803464
 C    1.5016845001   -4.0750496701   -0.0340948131
 O    2.4750132425   -4.7837029958   -0.0474573771
 H    0.9360519564    2.0087581569    0.0038693198
 H   -0.6021108085    1.9410963595   -0.8669316258
 H   -0.5852683666    1.9316318347    0.9030097990
 H   -1.0171069416   -0.3581822963    0.0097964769
 H    0.1643271232   -0.1464857945   -2.1573350289
 H    1.7117102557   -0.0617307291   -1.3270964092
 H   -0.2089461709   -2.4535503742   -1.3357155913
 H    1.3299954660   -2.3579007089   -2.1835240502
 H    2.5645688213   -2.2491414388   -0.0344017612
 H   -0.1837099829   -2.4677333088    1.3171932601
 H    1.3710798980   -2.3809990412    2.1365621700
 H    1.7366799148   -0.0757635344    1.2976244132
 H    0.2053643555   -0.1695518279    2.1561974230
 H    0.4743599461   -4.5161434975   -0.0264568529