18

 C   -0.4344307152    1.3318698344    0.5672185898
 C    0.0726351901   -0.0916898382    0.4900429919
 O    0.4900329122   -0.4924091731   -0.8590150941
 C    1.7304631003   -0.9778291123   -0.3419236538
 C    2.2071280672   -2.2820730777   -0.9303609576
 C    3.4043570863   -2.7930879685   -0.2693182108
 N    4.3486459200   -3.1827798719    0.2701873078
 C    2.5478281598    0.1417627136    0.2129827487
 C    1.4419377642   -0.4809583154    1.0526158091
 H    0.3366207944    2.0507871177    0.2791444520
 H   -1.2932736309    1.4632827658   -0.0983758392
 H   -0.7580131550    1.5579872103    1.5887749737
 H   -0.6995473117   -0.7920993640    0.8327710740
 H    1.4098627991   -3.0310641696   -0.8615494977
 H    2.4209360324   -2.1432240756   -1.9979938648
 H    3.5465858973   -0.1231164735    0.5452171557
 H    2.4486288182    1.1369719301   -0.2097892048
 H    1.6275855312   -0.9356919620    2.0161091601