17

 N   -0.0272167215   -1.1855400562    0.0604520538
 C   -0.0214368699   -0.0293197468    0.0418114206
 C    0.0222812568    1.4278184811    0.0001199148
 C   -0.7271754118    2.0649131508   -1.1721335797
 C    0.0190555942    3.4083179256   -1.3590663068
 N    1.4331036836    3.1480329847   -1.0316799049
 C    1.4366448497    2.1418753341    0.0092615006
 C    0.9975459636    2.6324107514    1.4041717350
 O   -0.3111412564    2.0241492117    1.2707718100
 H   -0.6233272897    1.4323698596   -2.0602351587
 H   -1.7901034250    2.1784034703   -0.9469223107
 H   -0.0710913665    3.8160522227   -2.3676547719
 H   -0.3805123925    4.1543084614   -0.6641105235
 H    1.9135023843    2.7891057399   -1.8497571088
 H    2.3306385502    1.5212728670   -0.0224605966
 H    1.5558947252    2.2019886821    2.2425663604
 H    0.9382203556    3.7195841506    1.5155805864