17

 O    0.1261789828    1.4133928486   -0.2180310360
 C    0.0502968108    0.0227169062    0.0374794257
 C   -1.4005075459   -0.4950421993    0.0341855409
 C   -2.0818057261   -0.0596301948   -1.2523145780
 O   -3.0515876425    0.6473530213   -1.3104677153
 C   -1.4218507821   -2.0429265381    0.1725834049
 O   -0.6799713770   -2.4767594572    1.3081696997
 C   -2.7904298473   -2.5603605358    0.1879441007
 C   -3.9223842605   -2.9609209083    0.2395153182
 H   -0.3463308245    1.8773231846    0.4810195136
 H    0.6145408318   -0.4569699841   -0.7712160685
 H    0.5324941706   -0.2594827475    0.9809014467
 H   -1.9634468472   -0.0565022995    0.8672064514
 H   -1.5930911881   -0.4490361506   -2.1765440026
 H   -0.8880873077   -2.4685380174   -0.6874811242
 H   -1.2428974672   -2.3662788697    2.0827534230
 H   -4.9218314798   -3.3203173583    0.2686519798