23

 C   -0.2017809894    1.5206198185    0.1334228531
 C   -0.0283027061    0.0051404510   -0.0305269934
 C   -1.3932570025   -0.6882983607    0.0829340873
 C    0.6827061865   -0.2790028254   -1.3696997065
 C    0.7629172050   -1.7398050023   -1.8249814187
 C    1.3255195641   -2.7542506066   -0.8651950190
 C    1.3998766642   -2.7284869276    0.4657896535
 C    0.9634433070   -1.6860267689    1.4616464550
 O    0.8560007779   -0.3452442864    1.0464596468
 H    0.7693276686    2.0203358623    0.0736432668
 H   -0.8524349203    1.9288426900   -0.6455444502
 H   -0.6395647676    1.7455898841    1.1097819306
 H   -2.0581011561   -0.3316520682   -0.7099426899
 H   -1.3201336029   -1.7745928170   -0.0094876125
 H   -1.8600533344   -0.4549801643    1.0448789171
 H    0.1863762892    0.2944178606   -2.1626665362
 H    1.6960543171    0.1260993946   -1.2715223637
 H   -0.2361199226   -2.0856361903   -2.1322792679
 H    1.3577911118   -1.7728272459   -2.7469741732
 H    1.6792130639   -3.6633965734   -1.3502210417
 H    1.7993370053   -3.6164801634    0.9564424112
 H    0.0230229121   -2.0327244088    1.9279038072
 H    1.6998839092   -1.6584009817    2.2743661044