22

 C   -0.3438424330    1.5189190080   -0.0833467292
 C   -0.0464674298    0.0316927999    0.0188746958
 N    1.1985869894   -0.5319860977   -0.7114367603
 C    2.0050869093    0.0449637201    0.4609809137
 C    0.7887686171   -0.6224745171    1.1577535971
 O    0.4971807643   -0.7813565928    2.5057881237
 C    1.0234730133   -1.8101483076    0.1859946262
 C   -0.1097370562   -2.7602117136   -0.2126995394
 C    2.2849800668   -2.6724540249    0.3476924845
 H   -0.5096140349    1.7901728605   -1.1314734714
 H   -1.2695115702    1.7375622495    0.4605387885
 H    0.4325684991    2.1774882548    0.3108673449
 H   -0.9503694634   -0.5015388930   -0.2663044041
 H    2.9972043569   -0.3821323949    0.5787534555
 H    2.0698052425    1.1313438882    0.4512698427
 H    0.4118818372    0.0889450430    2.9106234372
 H   -1.0402397914   -2.2874565367   -0.5219303787
 H    0.2259272807   -3.3925037066   -1.0412596731
 H   -0.3381953801   -3.4183366236    0.6321082287
 H    3.0322141172   -2.2632799906    1.0273353587
 H    2.0075867783   -3.6558760882    0.7365958410
 H    2.7551130068   -2.8258410065   -0.6298609420