17

 C   -0.0328548524    1.4512388552    0.0278911408
 N    0.0206372368    0.0133235433   -0.1634592383
 C   -1.2384442836   -0.7174452628   -0.0618063560
 C   -1.1787027213   -2.0634784267   -0.7843265055
 C    0.0915650645   -2.7903248373   -0.4443440608
 C    1.1770451896   -2.1187652585   -0.0590570591
 C    1.2248013800   -0.6341305985    0.0135455343
 O    2.2811192852   -0.0418134315    0.1802049524
 H    0.9808871518    1.8421013502   -0.0459447194
 H   -0.6656067443    1.9113365760   -0.7389533695
 H   -0.4415145530    1.7137425947    1.0145391369
 H   -1.5017287924   -0.8797280991    0.9967892991
 H   -2.0275518258   -0.0933347644   -0.4930135912
 H   -2.0564640050   -2.6593516383   -0.5124675836
 H   -1.2309648459   -1.9159990382   -1.8729664246
 H    0.1163626810   -3.8712405368   -0.5556418858
 H    2.1198651148   -2.6034174772    0.1662282703