20

 C    0.0167305331    1.4649483278    0.0242985589
 N    0.0202040049    0.0228179911    0.0119352192
 C   -0.0168789054   -0.8090892374   -1.1038947594
 N   -0.0053487489   -2.0630281696   -0.8823167228
 C    0.0474830993   -2.2218642160    0.5911870825
 C   -1.1995137593   -2.9727615780    1.0762387208
 C    1.3310565320   -2.9642592305    0.9859591197
 C    0.0626922623   -0.7893630214    1.1436989815
 N    0.1054765180   -0.4683084362    2.3734548884
 H    0.9218892538    1.8597036675    0.5014892508
 H   -0.0200011305    1.8337683029   -1.0027657958
 H   -0.8551420570    1.8550212202    0.5633162994
 H   -0.0533211282   -0.3556936476   -2.0908754642
 H   -1.2117050248   -3.9842143354    0.6614579702
 H   -1.1963096163   -3.0247501349    2.1682241444
 H   -2.1117076051   -2.4605735147    0.7570855100
 H    2.2147409041   -2.4451040431    0.6040321583
 H    1.4052787478   -3.0173491380    2.0753627730
 H    1.3210861046   -3.9751237787    0.5697133701
 H    0.1074883656    0.5434175321    2.5107650248