14

 N    0.0962763488    1.3852548555    0.1759403487
 C   -0.0298928212    0.0164168778    0.0585285387
 C   -1.1752615652   -0.6960125045    0.0286333649
 O   -2.3912313578   -0.0939065975    0.0273529992
 C   -1.1314514251   -2.1415313173   -0.0013601386
 N   -2.2490452574   -2.7717329016   -0.0287642092
 N    0.1410192809   -2.7420195570   -0.0134705656
 C    1.1604491795   -1.9829410239    0.0024578824
 O    1.1797460019   -0.6307638382    0.0426706367
 H    0.8620962351    1.7757659218   -0.3581100253
 H   -0.7775238184    1.8638780312    0.0023201054
 H   -3.0175908968   -0.8423165022   -0.0053238966
 H   -2.1007419829   -3.7788196139   -0.0600019040
 H    2.1732338887   -2.3725587900   -0.0134522368