17

 C    0.1742627895    1.5548518743   -0.1919022407
 C    0.1162831113    0.0663059194    0.0039698836
 N   -1.1677602829   -0.5066362670   -0.5750020853
 H   -1.2506044727   -0.3220867409   -1.5801446644
 H   -1.2020457958   -1.5170768652   -0.4188729343
 H   -1.9769713169   -0.0877763323   -0.1070251134
 C    1.2808410888   -0.8666734107   -0.1069870173
 C    0.5867095035   -0.6734282753    1.2265368531
 C    1.3204686704    0.1545798534    2.3563997799
 O    2.1723800337    0.9532549277    1.9093798654
 O    0.9247337316   -0.1052121321    3.4944441534
 H    1.0638817042    1.8876376812    0.3543919699
 H    0.2506781097    1.8307275783   -1.2513587533
 H   -0.6984967820    2.0565038766    0.2462583812
 H    1.1725464322   -1.7947120284   -0.6640641703
 H    2.2501272242   -0.3814453776   -0.1667883267
 H   -0.0551394188   -1.4725718715    1.5944840893