17

 C   -0.3299537736    1.4874019590    0.0266790402
 C    0.0402572820   -0.0181860643   -0.0287405266
 C    0.8147782816   -0.3546028373   -1.2797931903
 C    2.1344724090   -0.5424394266   -1.3046520237
 C    2.9566016324   -0.3877270219   -0.0785640378
 O    2.8309211627    0.8659427542    0.6115204576
 C    2.2772681908   -0.2943693343    1.2389686868
 C    0.7805047138   -0.4181194695    1.2482662000
 O    0.2017664615   -0.8490425468    2.2199988383
 H    0.5731357139    2.0995026302    0.0652433745
 H   -0.9044501261    1.7669607163   -0.8614679760
 H   -0.9411588302    1.6909238699    0.9104023559
 H   -0.8946319159   -0.5896137286   -0.0150160719
 H    0.2379992954   -0.4199591138   -2.1989969671
 H    2.6506352388   -0.7835302397   -2.2282819385
 H    3.9721345284   -0.7777508269   -0.0950378736
 H    2.7734917353   -0.6272291899    2.1481674922