16

 O   -0.4946380223    0.4929309575    0.6896694648
 C    0.0533515372    1.1630710542   -0.1536199067
 C    1.3001541841    1.9637731253    0.0137666164
 C    1.5831038912    2.8602955558    1.1765290345
 C    1.0519207876    2.3204508589    2.5100672706
 C    1.9177249631    1.0610084325    2.1916991859
 N    2.4475631016    1.6639277683    0.9131720572
 C    1.5660711844    3.0896322788    3.7003278731
 O    0.8868720158    3.4635502215    4.6199534163
 H   -0.3710338903    1.2397080491   -1.1792192637
 H    1.6717950332    2.3543511726   -0.9307172435
 H    1.9280513571    3.8754544788    1.0008643815
 H   -0.0249743071    2.1774195461    2.5943810705
 H    2.7595428971    0.9280825402    2.8749799733
 H    1.3746569352    0.1261881660    2.0736260622
 H    2.6644906621    3.2860712544    3.6764552876