22

 C   -0.2010019808    1.3345321856   -0.1975519290
 C   -0.1728279320   -0.1752324180    0.0216380064
 O    0.3963359560   -0.7668926080   -1.1324686387
 C    0.6256262207   -0.5391872206    1.2886351033
 C    0.8560062948   -2.0466120343    1.4849370344
 C    1.7486140626   -2.3406364756    2.6921995817
 N   -0.3983138395   -2.7980139292    1.6247134011
 C   -1.0576585825   -3.3791744462    0.6009272913
 O   -0.7464527371   -3.3100710428   -0.5781081792
 H    0.8135194689    1.7085035316   -0.3708019269
 H   -0.8045706505    1.5758007499   -1.0762845696
 H   -0.6196863604    1.8551718180    0.6697384981
 H   -1.2094262979   -0.5254598155    0.1526105378
 H    0.0943818453   -1.6898354076   -1.1591828421
 H    1.6112327496   -0.0609744866    1.2252022672
 H    0.1221177186   -0.1248673457    2.1731057340
 H    1.3338264737   -2.4319460424    0.5799027896
 H    1.9387201904   -3.4134375735    2.7904487114
 H    2.7093223798   -1.8299470506    2.5872359853
 H    1.2876037385   -1.9854731064    3.6223043381
 H   -0.7771983044   -2.9201988269    2.5516724384
 H   -1.9401089238   -3.9535285553    0.9394755376