18

 N   -0.0381924080    1.0564965099    0.9985094082
 C    0.0196607694    0.1331354874    0.1331496130
 C   -1.2506064284   -0.4980851567   -0.4067397774
 C   -1.0918042405   -1.9528801085   -0.8389935341
 C   -0.4892933237   -2.3501029371   -2.1640424171
 C    0.5132246287   -1.2876336041   -2.6145715565
 C    1.2304487780   -1.4359294765   -1.2298981295
 O    1.2171960108   -0.3088996966   -0.3516242167
 C    0.2784625451   -2.5701764205   -0.8581025919
 H    0.9055611300    1.3724770704    1.2328907393
 H   -1.9979457651   -0.4034891299    0.3821687452
 H   -1.6115165535    0.1161757312   -1.2413350483
 H   -1.8760391457   -2.6222412501   -0.5006088227
 H   -0.9535479799   -3.0937543145   -2.7991338441
 H    1.1590385684   -1.6237548913   -3.4287336497
 H    0.1255910039   -0.2944809347   -2.8615368074
 H    2.2810915145   -1.7103564478   -1.3148747394
 H    0.5378873162   -3.4791796705   -0.3311327309