22

 C   -0.0520085519    0.8261055953    1.7176594171
 C   -0.0474680548    0.3056029555    0.2744911480
 C   -1.3298636859   -0.4201541608   -0.0640875721
 O   -1.4309358879   -1.0634704971   -1.3472932628
 C   -1.4798890274   -1.8834633957   -0.1767335485
 C   -0.3583038313   -2.8743851912    0.0018552528
 C   -0.1214556728   -3.3157264748    1.4303925334
 C   -0.1184147930   -3.8195034813   -1.1212642528
 N    0.8373910947   -2.7297663257   -0.8405725557
 H    0.8672844250    1.3772619899    1.9337952972
 H   -0.8954365047    1.5025199790    1.8950821378
 H   -0.1279119907    0.0062043016    2.4393734887
 H    0.0582404630    1.1502384463   -0.4183498585
 H    0.8130880523   -0.3482385406    0.1122734810
 H   -2.2339969441    0.1370115940    0.1950967647
 H   -2.4702235153   -2.2948760617    0.0344065094
 H   -1.0254135381   -3.7641921393    1.8583784031
 H    0.6815109163   -4.0556317949    1.4687588074
 H    0.1677559242   -2.4700420238    2.0633871617
 H    0.2483218829   -4.8213956855   -0.9144513139
 H   -0.7446684285   -3.7318298126   -2.0051024969
 H    0.6574333178   -1.9832554769   -1.5107033610