19

 C   -0.0107127781    1.5369306888   -0.0716070603
 C    0.0269717865    0.0823725153   -0.0456107703
 C    0.0779766596   -1.1208933820   -0.0361579192
 C    0.0780311481   -2.5821244166   -0.0279909491
 C   -1.3622520446   -3.0118600988    0.2664735700
 O   -2.0606641715   -3.6506138641   -0.4818392142
 C    0.6558777718   -3.2119571573   -1.3293777259
 C    0.9125039630   -4.7149241051   -1.1711626884
 O   -0.1532104252   -2.9208680639   -2.4496944448
 H    0.7118973203    1.9685757330    0.6294292384
 H    0.2240089069    1.9179694995   -1.0713080487
 H   -1.0034622996    1.9115297992    0.2007365243
 H    0.6806838059   -2.9282251157    0.8268473409
 H   -1.7492195977   -2.6560433320    1.2444389703
 H    1.6104818177   -2.7108000492   -1.5229786154
 H   -0.0125145658   -5.2550636417   -0.9501364639
 H    1.3233386441   -5.1091302242   -2.1040698758
 H    1.6305539219   -4.9140338366   -0.3679517129
 H   -1.0133894135   -3.3243293386   -2.2731648349