13

 O   -0.8249500969    0.8677719019    0.2544131996
 C    0.2969983253    0.7050452629   -0.1398817781
 C    1.3943980751    1.7471861648    0.0715427491
 O    2.6798450800    1.1209575973   -0.0439875986
 C    3.5187482645    1.8046794828   -0.8874849230
 O    4.6782300835    1.5498313566   -0.9943691639
 C    2.7103988385    2.8712662605   -1.5850977360
 O    1.6024259037    2.2896610675   -2.2966812908
 C    1.3697599255    2.8311076117   -0.9988000832
 H    0.6244906549   -0.1946923800   -0.6991453225
 H    1.2887721054    2.1834086769    1.0705563312
 H    3.1927372874    3.7324430039   -2.0311400036
 H    0.6970210431    3.6781178933   -0.9243523301