27

 C   -0.1805159709    1.3118617481    0.1842192362
 C    0.3199423273   -0.0932355824   -0.1873862617
 C    1.3272972225   -0.0147770068   -1.3444132607
 C    0.9219694972   -0.7820980559    1.0282198350
 C    0.0462122637   -1.2866499015    2.1500799870
 C    0.8425419137   -2.2688389314    1.3246895973
 C    0.1486591318   -3.3048068015    0.4529155333
 C    1.1196218280   -3.9236623642   -0.5639016407
 C   -0.4868421277   -4.4008907585    1.3233099279
 H    0.6478786723    1.9412449827    0.5312316778
 H   -0.6357810684    1.8098828109   -0.6785651043
 H   -0.9240676677    1.2705217028    0.9857045286
 H   -0.5474154253   -0.6744042937   -0.5266422474
 H    2.2089070007    0.5678122519   -1.0508421516
 H    1.6735104345   -1.0060325219   -1.6495950193
 H    0.8862338854    0.4733138610   -2.2200555505
 H    1.8521317206   -0.3142505163    1.3492096243
 H    0.3317889223   -1.0967449182    3.1792251032
 H   -1.0276100976   -1.2628723823    1.9812456653
 H    1.7262132291   -2.6708677220    1.8192793819
 H   -0.6604951225   -2.8119485911   -0.1016226869
 H    1.5607719688   -3.1661591229   -1.2174835434
 H    1.9416155163   -4.4372174822   -0.0506630608
 H    0.6132920608   -4.6613335878   -1.1955538274
 H   -1.2063444831   -3.9795256864    2.0316317345
 H   -1.0078685238   -5.1417092488    0.7073464686
 H    0.2787793518   -4.9309391016    1.9026603837