17

 C   -0.0171781248    1.5074881243   -0.0356783169
 C   -0.0271348880    0.0082632901    0.0795632505
 C   -1.2435146587   -0.7902713194   -0.3723422263
 O   -1.0706276221   -2.1044784693    0.1267227708
 C   -0.2555522866   -2.0651190196    1.2926124418
 C    0.5958131664   -0.8221582823    1.1460088722
 O    1.1908529172   -0.6910242045   -0.1581600065
 C    1.3633117444   -0.2565894980    2.2846461371
 O    1.1926728876   -0.5859182362    3.4326283104
 H    0.9187559255    1.9256549366    0.3390418750
 H   -0.1221982386    1.8030753234   -1.0851101157
 H   -0.8496141304    1.9468774925    0.5222797338
 H   -2.1545387692   -0.3132761406    0.0255836139
 H   -1.3289121005   -0.8492276081   -1.4627924784
 H   -0.8463863304   -1.9894090401    2.2167698096
 H    0.3298940050   -2.9884218259    1.3239135552
 H    2.1244377632    0.4961130971    1.9878541137