22

 C   -0.4856070485    1.4011471654    0.4181437555
 N   -0.0677111504    0.0296857572    0.1908168066
 C    0.2635969456   -0.3753440840   -1.1699333978
 C    1.5606474770    0.2379859352   -1.6755568032
 C    1.6123742125   -0.9108592199   -0.7186436815
 O    2.3098796857   -2.0546514393   -1.0546692237
 C    1.2571113530   -0.4813287507    0.7211789410
 C    2.1878974779    0.5212818560    1.3987527802
 C    1.0022340797   -1.6831989858    1.6336872722
 H    0.1862956157    2.1696946685   -0.0007140482
 H   -1.4732329057    1.5459764288   -0.0333330037
 H   -0.5851745862    1.5863164170    1.4922285538
 H   -0.4893681916   -0.7848651806   -1.8353064948
 H    1.8187794351   -0.0447083693   -2.6916477808
 H    1.8652038009    1.2422750116   -1.3960030833
 H    1.8598108017   -2.8098679846   -0.6598585788
 H    2.4019096820    1.3881358372    0.7695840238
 H    1.7620992542    0.8835265543    2.3411259641
 H    3.1410303842    0.0358940692    1.6325024468
 H    1.9366151264   -2.2019150430    1.8767172850
 H    0.5415112430   -1.3563334719    2.5708965697
 H    0.3127717879   -2.3903072311    1.1614239171