16

 O   -0.1917419624    0.0707331779    0.6278328475
 C   -0.1453860775    1.2328113373    0.3522696949
 C   -1.2094063041    2.0940300999   -0.3263553291
 C   -0.7354611403    3.5057200533   -0.0482924491
 C   -1.3291309168    4.7416973598   -0.6540019245
 C   -1.5300028783    4.4506489883    0.8160806766
 C    0.7655547608    3.3468032013    0.1488448956
 O    0.9500630416    2.0006667051    0.6169302559
 H   -1.2057484841    1.8526046174   -1.3971378705
 H   -2.1985760129    1.8507441063    0.0647528989
 H   -0.6577649878    5.5505464017   -0.9259334567
 H   -2.1765822681    4.6274642238   -1.3216683745
 H   -2.5143898211    4.1339094933    1.1445914864
 H   -0.9943594366    5.0619827211    1.5351676154
 H    1.3223736624    3.4667638526   -0.7896446804
 H    1.1846266453    4.0266978011    0.8951292637