19

 O   -0.6829027683    0.7147699662    0.6194530349
 C    0.0495857439    0.9941972462   -0.2934150857
 C    1.3214144028    1.8023891235   -0.1715399170
 C    1.3026660021    3.0424567064   -1.0831606536
 C    2.6170389450    3.8149085864   -1.0643791191
 C    3.8581476751    3.1424605794   -1.7392898702
 C    4.0825617745    4.4530133216   -2.5125649761
 O    4.9848261788    4.8824573546   -3.1688915470
 C    2.7380265963    5.0291183095   -2.0407681512
 H   -0.1819054767    0.6636098919   -1.3343362342
 H    1.4618173699    2.0772680133    0.8780138821
 H    2.1565628950    1.1512461866   -0.4690297144
 H    1.0793744066    2.7359659848   -2.1149906381
 H    0.4853647811    3.7062174675   -0.7744871752
 H    2.8542879755    4.1186722464   -0.0402922439
 H    4.6838719052    2.8139406950   -1.1033834855
 H    3.5926479828    2.3196280571   -2.4142997493
 H    1.9893650780    5.0171173732   -2.8417557685
 H    2.7694799623    6.0345428503   -1.6136152079