15

 C   -0.0340247787   -1.2126655713   -0.0930740979
 C    0.0090080717   -0.0127122491   -0.0258433214
 C    0.0402674098    1.4093840194    0.0410378761
 C    0.2795370685    2.2989719902   -1.1601199277
 C    1.2100744573    2.4063308849    0.0124488047
 C    0.4972815892    3.1678282050    1.1400000021
 N   -0.5831569264    2.1378027865    1.1603531997
 C    1.2287459091    3.2402602694    2.4068997348
 N    1.8285024424    3.3191700952    3.3910070880
 H   -0.0647521374   -2.2732041203   -0.1389652540
 H    0.6945343250    1.7983413689   -2.0282386176
 H   -0.4236522315    3.0986503332   -1.3833241599
 H    2.2707765557    2.2057964454   -0.0343844088
 H    0.1766247587    4.1810442517    0.8677384679
 H   -1.5116214636    2.5022013609    0.9598649840