18

 C    0.0341938789    1.5420985534   -0.1734856449
 C   -0.0162602505    0.0285342039    0.0328698337
 O    0.4955637423   -0.6660683075   -1.1006208355
 C    0.6989783745   -0.4417002019    1.3186836111
 C   -0.0147253882    0.0125181324    2.6050126144
 O    0.5072144369   -0.6086044906    3.7659073354
 C    0.7937106689   -1.9602372618    1.3120663234
 O    1.8254046295   -2.5767879183    1.3476255452
 H    1.0717013969    1.8964034004   -0.2025577209
 H   -0.4407925459    1.7972664330   -1.1243660423
 H   -0.4834018609    2.0814781993    0.6255679096
 H   -1.0653977457   -0.2897764026    0.0860845434
 H    1.4399014104   -0.4825500298   -1.1663231735
 H    1.7303541935   -0.0599594867    1.3189723124
 H    0.0158656858    1.1086813354    2.6845456655
 H   -1.0704310066   -0.2807559683    2.5666348363
 H    1.4534443423   -0.4332841454    3.8053457551
 H   -0.1921142421   -2.4780692151    1.2788807117