21

 C   -0.3496005011    1.5120608145   -0.1487201679
 C    0.1782221347    0.0922504637   -0.1146808615
 O    1.5120027353   -0.0195788812   -0.6686415971
 C    1.9544447821   -0.8250275028    0.4392269403
 C    0.6439609332   -0.5682417021    1.2168554536
 C    0.7666142493    0.3214236023    2.4512764521
 C    1.3933981355   -0.4243688474    3.6444070480
 C    1.6068333821    0.4902466469    4.8285556654
 O    1.1544354544    0.3136136358    5.9297710228
 H    0.3007784090    2.2002915780    0.3968648824
 H   -0.4081043819    1.8542829973   -1.1867438770
 H   -1.3563304056    1.5617283515    0.2799917554
 H   -0.5120304053   -0.5653833267   -0.6642186718
 H    2.1246886845   -1.8698685254    0.1474100090
 H    2.8755767764   -0.4309829689    0.8887937932
 H    0.0856895738   -1.4734670608    1.4718006927
 H    1.3754527710    1.2032090925    2.2149985702
 H   -0.2238103097    0.6934371071    2.7409537692
 H    0.7743039611   -1.2687310709    3.9617108908
 H    2.3784857885   -0.8147418737    3.3485062718
 H    2.2333985527    1.3865624201    4.6046092684