18

 C   -0.3578706630    1.4270802268   -0.1570044274
 N   -0.0036431871    0.0207200486    0.0375410022
 C    1.3137300700   -0.5019868102   -0.3563573454
 C    2.4236574701    0.3449789529   -0.8622344292
 O    2.6217718951    1.5097759945   -0.5901533995
 C    0.8686455146   -0.3997616873    1.0997742343
 C    1.5161635779    0.5335829682    2.0744278320
 C    1.0291391294    0.5845133629    3.4619070382
 O    2.2227275879   -0.1228397625    3.1340855572
 H    0.4743278573    2.1311725812   -0.0720697450
 H   -0.7961749683    1.5291313727   -1.1539210175
 H   -1.1281857171    1.6798093414    0.5776256149
 H    1.2735319056   -1.4840207994   -0.8237223762
 H    3.1027287672   -0.1934756084   -1.5591740490
 H    0.5881490202   -1.3456340419    1.5639441150
 H    2.0211015716    1.4027817868    1.6643998692
 H    1.1648766990    1.4952917061    4.0430275081
 H    0.1844202995   -0.0364219823    3.7585241280