25

 C    0.1626634359    1.5458070751   -0.1211455829
 C   -0.0171770535    0.0390330214   -0.0141235756
 O    0.6893082047   -0.5534597861   -1.0874919368
 C    0.7058191156   -1.9829364872   -1.1884320301
 C    1.4609203877   -2.6186410859   -0.0107230483
 C   -0.7131919665   -2.5598035391   -1.2952849395
 C    1.4430350528   -2.2275767163   -2.5399313434
 C    2.8273274495   -1.5896794649   -2.6239837488
 O    1.4928624045   -3.6182947986   -2.8509967894
 H    1.2217828363    1.8116339673   -0.0574051183
 H   -0.2235197357    1.9100232964   -1.0774739066
 H   -0.3731711175    2.0532297553    0.6868765275
 H    0.3632155707   -0.3166247776    0.9552803694
 H   -1.0862902060   -0.2159014056   -0.0576043310
 H    0.8918900558   -2.5382537397    0.9194482383
 H    1.6188631276   -3.6852899718   -0.1970070081
 H    2.4312672510   -2.1389640904    0.1429978751
 H   -1.2914717276   -2.0026698235   -2.0393034614
 H   -0.6574745387   -3.6027060817   -1.6138827715
 H   -1.2461016476   -2.5196777759   -0.3410109370
 H    0.8066080103   -1.7830867914   -3.3141042132
 H    3.5236584544   -2.0551385127   -1.9152922907
 H    3.2343382516   -1.7214424134   -3.6304942445
 H    2.7749441486   -0.5244862977   -2.3942322925
 H    2.2745171063   -3.9861659261   -2.4266716405