20

 C    0.6841409548    0.2709421056   -0.3482901373
 O    0.0502517194   -0.8254410580    0.2743726343
 C   -1.3543800810   -0.9186866713    0.0790495531
 C   -1.7672657914   -1.0912019246   -1.3847757257
 C   -1.8163483029   -2.0785303764    0.9615189713
 O   -1.4511130604   -3.3713124093    0.4950230559
 C   -0.1066857977   -3.7495799865    0.6885888299
 C    0.7139987964   -3.6059938431   -0.5291744026
 N    1.3563754560   -3.5446300195   -1.4876096484
 H    1.7082315349    0.3024468817    0.0309040509
 H    0.7213577246    0.1691672680   -1.4401561694
 H    0.1831524458    1.2189425948   -0.0974352590
 H   -1.8326216747   -0.0061620651    0.4811278317
 H   -2.8528846514   -1.2150545204   -1.4504461071
 H   -1.4994326403   -0.2151991678   -1.9805007275
 H   -1.2915380276   -1.9705882410   -1.8235977265
 H   -1.4329760367   -1.9211535810    1.9798198617
 H   -2.9096819618   -2.0896010119    1.0000130719
 H    0.3679207404   -3.1777301006    1.4944205519
 H   -0.1005103664   -4.8100764336    0.9680563009