25

 C   -0.4627342010    1.4143626659    2.2231534142
 C   -0.2418099869   -0.1008772916    2.2034995119
 C    0.9565348683   -0.5266113349    1.3419169664
 O    2.1468926320    0.1329981055    1.7728281655
 C    1.1355568156   -2.0506959101    1.2651623374
 C   -0.0323849242   -2.8388864834    0.6798510542
 C   -0.3893003938   -2.4657386265   -0.7654009844
 C    2.5185277176   -2.5729798602    0.9611026532
 C    1.9395556319   -2.7328335202    2.3474860247
 H   -0.6911285367    1.7902509716    1.2196268551
 H   -1.2973400906    1.6828478927    2.8778577992
 H    0.4314277503    1.9372006355    2.5720471947
 H   -0.0855469096   -0.4752734073    3.2259866895
 H   -1.1466084797   -0.5978949154    1.8370678254
 H    0.8048189352   -0.1495994921    0.3223841621
 H    2.2332258042   -0.0095218032    2.7217221005
 H    0.2279830812   -3.9036473613    0.7154973136
 H   -0.9196918680   -2.7310896452    1.3161768704
 H    0.4830781714   -2.5553108639   -1.4211513452
 H   -1.1714893442   -3.1254543516   -1.1536671199
 H   -0.7601254394   -1.4388895327   -0.8451648912
 H    2.6035251437   -3.4556766015    0.3355775710
 H    3.3107113596   -1.8445991860    0.8406824424
 H    2.3773530494   -2.1367702553    3.1420384726
 H    1.6221633135   -3.7186451390    2.6709292267