15

 O   -0.1470545184    1.4546351726    0.0604213477
 C    0.0093969564    0.0504166584    0.0213175758
 C    0.7236665336   -0.4010840404   -1.2598570360
 C    0.0348717633    0.1542335422   -2.4930423090
 O    0.6003733165    0.7386242417   -3.3779397355
 C    0.7337242169   -0.4855927133    1.2777086825
 C    0.0515773246   -0.1205178645    2.5166368495
 N   -0.4919102998    0.1553763963    3.4976940671
 H    0.7187493554    1.8694441700   -0.0331713037
 H   -1.0140889731   -0.3417345668    0.0229595023
 H    1.7708034537   -0.0770457332   -1.2710834375
 H    0.7089783692   -1.4981155380   -1.3245960711
 H   -1.0626737219   -0.0300571778   -2.5289249047
 H    0.8142932146   -1.5774033483    1.2269500492
 H    1.7581263290   -0.0936317189    1.3071435334