15

 O    0.0032682045    0.0918067495   -0.2771968219
 C    0.0472535155    1.2869691337   -0.0832990531
 N    1.1920941727    1.9664293875    0.1962435760
 C    2.5820641002    1.5115787826    0.0764447764
 C    3.0142929842    3.0055121924   -0.0058885604
 N    2.9638582446    3.6067815661   -1.3351624200
 C    1.6187314535    3.9369378452   -1.3036141675
 O    0.8693688888    4.3953178161   -2.1175984579
 C    1.5094053908    3.3990654894    0.1567982847
 H   -0.8399442793    1.9501967049   -0.0873749826
 H    2.9350593245    0.9870736016    0.9697063943
 H    2.7837931663    0.9022540921   -0.8090979495
 H    3.8110421816    3.3584807025    0.6454856715
 H    3.5631414751    3.4554240567   -2.1354932509
 H    1.0885326571    4.0274315197    0.9409918909