19

 O    0.1295725865    1.3891465642    0.1898356727
 C    0.0526869558   -0.0055374426   -0.0731587123
 C   -1.3575524330   -0.5134565921   -0.0636655893
 C   -2.0728578234   -0.9542943522    1.1850129309
 C   -1.9151681225   -1.9455140682    0.0636666991
 C   -2.8994905039   -1.6933826603   -1.1024781298
 C   -4.2684789975   -1.0560283826   -0.7923112793
 O   -3.6845795813    0.2751877871   -0.7792748057
 C   -2.3933056694   -0.2429636244   -1.1839725555
 H   -0.3757872240    1.5574008283    0.9924320756
 H    0.5075908495   -0.1370475980   -1.0620133416
 H    0.6573627578   -0.5894749853    0.6411111243
 H   -1.4266837997   -1.1419495388    2.0378826915
 H   -3.0364671640   -0.5269535828    1.4384069538
 H   -1.3665358134   -2.8687199360    0.2083896283
 H   -2.8250024749   -2.3871715567   -1.9378376445
 H   -5.0026651377   -1.1541382573   -1.6014025507
 H   -4.7453302331   -1.3133115241    0.1606527324
 H   -2.0060853918    0.2327689419   -2.0881793297