13

 N   -0.0113739684    1.3437490471    0.1375747457
 C   -0.0432235283   -0.0175952277    0.0455380285
 N   -1.1541333380   -0.6761208012    0.0196363968
 N   -1.0633947503   -2.0426445742   -0.0069987989
 C    0.0687750564   -2.8132881691   -0.0174240558
 O    0.0804282308   -4.0242410231   -0.0369614717
 N    1.2343760556   -2.0373602201   -0.0085255003
 C    1.3014026287   -0.6627691215    0.0076605671
 O    2.3408780344   -0.0354103628   -0.0201626221
 H    0.8731486299    1.7628806254   -0.1060367103
 H   -0.8507322906    1.8466894090   -0.0995073986
 H   -1.9455530311   -2.5282542159   -0.0169869923
 H    2.1054492309   -2.5513321660   -0.0351163980