20

 C    0.0051631452    1.5555644863    0.0315738738
 C    0.0060798204    0.0268490603    0.1008065833
 C   -1.4014574992   -0.5596834021   -0.0680766114
 N   -1.4340053834   -2.0095370839   -0.0131402243
 C   -1.5779200144   -2.8600810340   -1.0584485597
 N   -1.5229389144   -4.1253679214   -0.6920344199
 C   -1.3238815887   -4.0977936680    0.6649552414
 N   -1.1582666062   -5.2921049270    1.3738088122
 C   -1.2615909118   -2.7995526929    1.1171625836
 H    1.0154940138    1.9550125800    0.1563012025
 H   -0.3758940804    1.9111305322   -0.9322780725
 H   -0.6235585374    1.9904199293    0.8165477537
 H    0.6553569373   -0.3898533553   -0.6777631263
 H    0.4193522153   -0.3067813169    1.0594047542
 H   -2.0697538657   -0.1619093314    0.7054901610
 H   -1.8193121497   -0.2595457132   -1.0348275084
 H   -1.7295393622   -2.5026362413   -2.0666504317
 H   -1.5308872090   -6.0691618826    0.8430094923
 H   -1.5682568190   -5.2729105051    2.2979703533
 H   -1.1182169506   -2.3705702828    2.0943124928