15

 N   -0.1146654050    1.2960349300    0.2172745576
 C    0.0221852007   -0.0687083134    0.0247214958
 O    1.0502920979   -0.6742904868    0.2649312619
 N   -1.1246572619   -0.6799122886   -0.4497033956
 C   -1.1938373155   -2.1187788505   -0.4433157391
 C   -2.5647289195   -2.5825429184    0.0170968685
 O   -3.4485160861   -1.8040207968    0.3113781721
 C   -2.7504652704   -4.0176043581    0.0604094377
 C   -2.8781208761   -5.2136501890    0.0952895172
 H    0.7679940179    1.7676378642    0.3396620034
 H   -0.7781489553    1.7909439917   -0.3589743373
 H   -2.0139190601   -0.2385540153   -0.2512037170
 H   -1.0125644022   -2.5558396336   -1.4372755372
 H   -0.4168974425   -2.5316029925    0.2120902935
 H   -3.0052111918   -6.2687683429    0.1312096285