15

 C   -0.0739937999    1.4594349606    0.0439951618
 C    0.0303176083   -0.0250496847   -0.0220145369
 C    0.0653632785   -0.8415343766   -1.0985047057
 O    0.1752044622   -2.1466690056   -0.6441125198
 C    0.1877478469   -2.0077211112    0.6972047083
 O    0.3249699978   -3.1029340770    1.4535791683
 C   -0.0082261364   -4.3310997742    0.9363020446
 N    0.2713363535   -5.3491838616    1.6151002757
 N    0.1074432638   -0.8027301457    1.1406825673
 H    0.7930079153    1.8857925985    0.5590563696
 H   -0.1313193197    1.8944244610   -0.9568430106
 H   -0.9640982323    1.7607405096    0.6058268020
 H    0.0280876583   -0.7124020127   -2.1655394227
 H   -0.5039705980   -4.2726706317   -0.0338851001
 H   -0.0487245481   -6.1877949287    1.1344851783