16

 O   -0.1745785057    0.0837828279    0.3521344473
 C   -0.0000590894    1.2115253221   -0.0435806301
 C    1.3103421772    1.8864158250   -0.0556754939
 C    2.5087151267    1.5137530561    0.7936239314
 C    2.8816259105    3.0344174113    0.7470365365
 C    3.7769487121    3.2557582964   -0.4457075722
 C    3.0355302287    3.1220512953   -1.5466461717
 C    1.6196043906    2.9397663248   -1.1270220060
 N    1.4590199271    3.3719617974    0.2601936748
 H   -0.8362490281    1.8300222033   -0.4421169076
 H    2.1727370170    1.2100107584    1.7863057404
 H    3.2363413744    0.7947520330    0.4106051138
 H    3.1507185692    3.5218851730    1.6818803257
 H    4.8538248739    3.3432496281   -0.3840138518
 H    3.3650162445    3.1141577048   -2.5765416038
 H    0.7994624510    3.1910652231   -1.7928896227