16

 O    0.1390165670    1.3462742707    0.5074843418
 C   -0.0158511435    0.0608752216   -0.0718984134
 C   -1.4348596366   -0.4218307633   -0.0143371583
 C   -2.1136593536   -1.0163703428    1.2147564278
 N   -3.5678601335   -0.7380943521    1.0872671104
 C   -3.4107748501   -1.2103005727   -0.3372863068
 C   -2.0164520006   -1.8828075880    0.0059112852
 C   -2.5607549515   -0.0722577887   -0.9344489462
 O   -2.6438886537    0.6321462381   -1.9021497655
 H   -0.3751531610    1.9652335206   -0.0222563153
 H    0.3275649529    0.0478968891   -1.1169644880
 H    0.6380509585   -0.6096591368    0.4963076203
 H   -1.5919853015   -1.0545236413    2.1629844063
 H   -4.0520146104   -1.4787952550    1.5951270961
 H   -4.2672053205   -1.6399511514   -0.8484073539
 H   -1.5100958919   -2.7940342479   -0.2814930504