16

 C    0.0194030751    1.5250488532   -0.0286916362
 C    0.0311104312    0.0386175955    0.0561522286
 O    0.5063935348   -0.7152915436   -1.0561356390
 C    1.1974720270   -1.6548559302   -0.1927148848
 C    0.6509471268   -0.9712659185    1.0547391666
 C    1.2788515977   -0.8005945443    2.3135161959
 N    1.7676854208   -0.6728948166    3.3564286423
 C   -0.8738740410   -0.8097438690    0.8844821498
 O   -1.5235037768   -0.1320964884    1.9026105432
 H    1.0243266487    1.9184144764   -0.2023657772
 H   -0.6212513275    1.8351116606   -0.8617376050
 H   -0.3842223700    1.9455026598    0.8940064407
 H    0.8870741252   -2.6906032115   -0.3689138931
 H    2.2820154346   -1.5606179777   -0.3034276281
 H   -1.4217406735   -1.6256053836    0.4075820807
 H   -1.4589687129   -0.6434293821    2.7179775956