19

 O    0.1429307677    1.3964946822   -0.1295192624
 C    0.0086625973   -0.0080111017   -0.0717036885
 C   -1.4366793609   -0.4070168972    0.0326033954
 C   -2.4391549610    0.4792535005   -0.0404782232
 C   -3.8635784737    0.1871006957    0.0680457757
 C   -4.5028310526   -0.9896827038   -0.0189252369
 C   -3.9550228511   -2.3475876179   -0.3513977504
 O   -2.6035363258   -2.4133399330   -0.7392953687
 C   -1.6848376631   -1.8857937967    0.2087696689
 H    1.0711389330    1.6039796134   -0.2665021737
 H    0.4405171020   -0.4909891938   -0.9677700456
 H    0.5593370039   -0.4266215250    0.7916623543
 H   -2.1744016885    1.5252257503   -0.1551461907
 H   -4.4849434931    1.0591812456    0.2630547989
 H   -5.5806729235   -0.9947744404    0.1388146795
 H   -4.1571255393   -3.0329300138    0.4940393235
 H   -4.5125576956   -2.7541301166   -1.2063441279
 H   -0.7518436697   -2.4455089541    0.0710587946
 H   -2.0370714859   -2.0893699538    1.2328858472