14

 C    0.0409622719    1.4075304771    0.0068432997
 O   -0.0400222948   -0.0297224995    0.0037253199
 C   -1.2529480584   -0.5591030817    0.0113114532
 N   -2.3421169049    0.1591097659    0.0212962639
 C   -3.4891427710   -0.5846865165    0.0279255086
 N   -3.6297527204   -1.8777749501    0.0255225180
 C   -2.4826283975   -2.6542171796    0.0149501292
 O   -2.4348036963   -3.8585880292    0.0114512670
 N   -1.2670364028   -1.9062101127    0.0079066669
 H    1.1072497952    1.6300093084   -0.0008287269
 H   -0.4483530977    1.8177242532   -0.8783485025
 H   -0.4345490888    1.8130752134    0.9016538683
 H   -4.4036930091    0.0063685760    0.0361115481
 H   -0.4004692554   -2.4276925347    0.0001154966