17

 O    0.0330150474    1.2433503719    0.0109362268
 C   -0.0198195632   -0.1525295218    0.0200091264
 C   -0.5790546849   -0.8738632177    1.2263707369
 C   -1.3936473174   -0.7308906656   -0.0269980869
 C   -2.6958464527    0.0252787834   -0.2529759371
 O   -3.1538759516   -1.0042313845   -1.1688755552
 C   -1.9714672425   -1.7975473052   -0.9663018160
 C   -1.1913153439   -2.0226883518   -2.2461446354
 O   -0.1714143203   -2.6622926668   -2.2916106811
 H    0.7891458364    1.5189700429    0.5396919396
 H    0.7586137078   -0.6591788282   -0.5497592406
 H   -0.1753821007   -1.8503454436    1.4750203864
 H   -0.8790947949   -0.2654666193    2.0743897408
 H   -3.3547751084    0.1116869283    0.6192223431
 H   -2.5992831726    1.0008856486   -0.7407589469
 H   -2.1863687144   -2.7650330592   -0.4916024010
 H   -1.6269385240   -1.5164685913   -3.1364242799