21

 C    0.0003592623    1.5332059409   -0.0090752834
 C   -0.0153375749    0.0217399823   -0.0288734143
 C    0.2131785490   -0.8013929739   -1.3215542053
 C   -0.4332703988   -1.9534264028   -0.5099801280
 C    0.6512200190   -2.2000816235    0.5562806908
 C    0.7222889682   -0.7474623190    1.1225101297
 C   -0.3156288930   -0.6746298870    2.2478766673
 O   -1.5531409007   -0.9736367543    1.5771833412
 C   -1.2894451957   -0.8363893117    0.1936197811
 H    1.0099637215    1.9186091213   -0.1946021236
 H   -0.6575669266    1.9452349004   -0.7816706091
 H   -0.3335742156    1.9320409111    0.9545630512
 H   -0.4153643492   -0.4414131229   -2.1413172724
 H    1.2367510071   -0.9466621599   -1.6787246796
 H   -0.8828088110   -2.8202354100   -0.9939290193
 H    0.3578293948   -2.9257402593    1.3197990817
 H    1.5909732011   -2.5343565957    0.1073423365
 H    1.7150254965   -0.3848345199    1.3942007911
 H   -0.1455473425   -1.4182771298    3.0340687993
 H   -0.3722062395    0.3178255094    2.7187590227
 H   -2.1976887421   -0.5423274057   -0.3343170875