17

 C    0.0366693945    1.4198941005    0.1921887500
 O    1.4248485272    1.5512458337   -0.2395623406
 C    1.3921160354    0.2307648276   -0.7431404878
 C    2.4133503183   -0.8434586863   -0.6031611121
 C    1.9339950586   -1.8925650200   -1.2950588642
 C    0.7054089886   -1.5002540959   -2.0493624679
 C   -0.4614565521   -0.6657914098   -1.3518830174
 C    0.6665603386   -0.0102611551   -2.1113417497
 C    0.0172221570   -0.1160165373   -0.0406602611
 H   -0.0758992146    1.7310094973    1.2346502983
 H   -0.6381454973    2.0047739925   -0.4436138778
 H    3.2302249460   -0.8352451699    0.1058041844
 H    2.3279106991   -2.9009204168   -1.2794970603
 H    0.3622029207   -2.0875275495   -2.8927464530
 H   -1.4786922856   -0.8618269186   -1.6720512679
 H    0.6852788717    0.6180398590   -2.9939383966
 H   -0.0226830161   -0.7202344113    0.8678949739