14

 C    0.1193105462    1.4787167397    0.1958846639
 C   -0.0388818408   -0.0039600783   -0.1122878462
 C    0.8208179838   -0.5051234467   -1.2849189510
 O    1.9743191842   -1.0451825722   -0.6365832778
 C    1.6733844703   -1.2933868347    0.6729951968
 N    2.3934833816   -1.8889033730    1.5134664796
 O    0.4525083612   -0.7975262153    0.9805056467
 H    1.1769323846    1.7445804775    0.2898542962
 H   -0.3210474565    2.0809746099   -0.6055099619
 H   -0.3846828178    1.7267124414    1.1331388127
 H   -1.0933717604   -0.2602259859   -0.2439393477
 H    0.3236433965   -1.2930243637   -1.8619696663
 H    1.1384971914    0.2931553452   -1.9594203898
 H    3.2486790357   -2.2147303039    1.0695653948