18

 C   -0.0277977871    1.5563642121    0.0010836836
 C    0.0998930444    0.0352909037    0.0146194494
 C    0.7971740893   -0.5245316166   -1.2479195833
 C    1.0734055729   -2.0008742776   -1.1512317008
 C    1.1253149377   -2.6605300189    0.0043574439
 C    0.9543698153   -1.9968120995    1.3464284177
 C    0.8145401790   -0.4800162921    1.2592526489
 O    1.2364102106    0.2497007415    2.1261289123
 H    0.9588908300    2.0287715663   -0.0011311772
 H   -0.5723073440    1.8898762254   -0.8878539548
 H   -0.5562623998    1.9147713877    0.8875141756
 H   -0.9016393931   -0.4217750747    0.0418211237
 H    0.1718430188   -0.3131205745   -2.1238729691
 H    1.7360489217    0.0230992095   -1.4206730384
 H    1.2391626904   -2.5347098471   -2.0835802003
 H    1.3225282221   -3.7296009115    0.0139356502
 H    0.0573796269   -2.3869372656    1.8531166213
 H    1.7906743848   -2.2203762781    2.0183034372