19

 C   -0.2355728503    1.5555352905   -0.0204787182
 C   -0.0254869470    0.0721621886   -0.0066894492
 C   -0.0053266585   -0.7862787035   -1.0869681051
 N    0.2152742080   -2.0288825710   -0.5959021839
 N    0.3428924759   -2.0478066355    0.7444572246
 C    0.1982346599   -0.7748060404    1.1148183694
 C    0.2742208158   -0.3739483500    2.5358604914
 C   -0.2564163682   -1.2910103369    3.6206599526
 C    1.2231007049   -1.0827170417    3.4827751898
 H    0.6215436838    2.0943190463    0.4000706848
 H   -0.3821098316    1.9210510325   -1.0408410718
 H   -1.1164550587    1.8496842013    0.5620345400
 H   -0.1293953595   -0.6047701330   -2.1435215553
 H    0.2895269901   -2.8919182618   -1.1054537797
 H    0.1397793366    0.6897176860    2.7003344900
 H   -0.7697305420   -0.8389964418    4.4624939432
 H   -0.6627752290   -2.2391158640    3.2878899858
 H    1.8061501249   -1.8915431767    3.0577783540
 H    1.7367954150   -0.4861351490    4.2288972874