16

 C    0.9893630512    1.7000450073   -0.2859623060
 C    0.0152750390    0.7302977148    0.3247004957
 O    0.3005792335   -0.6561506682    0.2120160129
 C    0.3040348541   -0.1103702131    1.5230157944
 C    1.6248253580   -0.0293301754    2.2261167584
 O    2.6910433508   -0.1344014525    1.6769917673
 C    1.5616000433    0.1770344709    3.7591530284
 C    0.5310691149    1.1143194437    4.1896231768
 N   -0.2920956448    1.8627348720    4.5024723062
 H    2.0188219187    1.4069704380   -0.0774495131
 H    0.8468124359    1.7241402277   -1.3711756209
 H    0.8093135691    2.7090930354    0.0986144289
 H   -1.0402314057    0.9744525921    0.1898521390
 H   -0.5404270695   -0.3954351695    2.1508852707
 H    1.3695438028   -0.8001899223    4.2215491755
 H    2.5485181689    0.5093535192    4.0895471456