18

 C    0.0106806295    1.4629355498    0.0052812996
 C   -0.0170667397   -0.0537829616    0.0411722324
 C    0.3101782205   -0.7609810572   -1.3302140998
 C   -1.0310594688   -1.4899984215   -1.2584442776
 C   -1.2059698877   -2.1527909060    0.0767029069
 O   -0.1333717087   -2.6797396605    0.8453099920
 C    0.6841593368   -1.7666047367    1.4301275535
 N    0.8061852787   -0.5390475950    1.1507901586
 C   -1.4279690027   -0.6896719206   -0.0008573104
 H    1.0385973691    1.8173908644   -0.1176332125
 H   -0.5978449848    1.8488618496   -0.8187364241
 H   -0.3751244219    1.8728429504    0.9442305378
 H    0.3503288680   -0.0428231359   -2.1528360855
 H    1.2110969137   -1.3799243118   -1.3497379799
 H   -1.6453152435   -1.7809202731   -2.1025347370
 H   -2.0709205693   -2.7964527273    0.1840575569
 H    1.2751239951   -2.2362737942    2.2135012627
 H   -2.3502758042   -0.1968986729    0.2802270863