16

 C    0.0133736079    1.5125537039    0.0032047181
 C   -0.0305389593    0.0267914892    0.0456579752
 C   -1.0471452195   -0.8871614395    0.0419006362
 N   -2.4142537781   -0.6146503179   -0.0068762300
 C   -3.4351926545   -1.5276498251   -0.0843321205
 N   -3.2520889018   -2.7888299063   -0.1165594371
 C   -0.3774728823   -2.1451948671    0.1057562295
 N    0.9224959406   -1.9962204631    0.1473342172
 O    1.1482005462   -0.6261923026    0.1124792914
 H    0.8282886415    1.8515232394   -0.6428840657
 H   -0.9211714482    1.9192712264   -0.3949466179
 H    0.1748202193    1.9468671323    0.9968922147
 H   -2.6818710824    0.3543035008    0.0238289446
 H   -4.4095502777   -1.0256918562   -0.1115771080
 H   -4.1441758344   -3.2725926369   -0.1740444617
 H   -0.8277128873   -3.1234740072    0.1151521439