18

 C   -0.1418867210    1.5179288449   -0.2128360724
 C   -0.0397523468    0.0262561410    0.0276456370
 C    1.2442046285   -0.7355542907   -0.1999275729
 C    0.6834497978   -0.6007389110    1.1977715884
 C    1.3952445958    0.1545334929    2.3178805133
 N    2.0330179536   -0.8238308701    3.2112789799
 C    2.3645848000    1.1613742173    1.8332235349
 N    3.1730906113    1.9205323230    1.5038122465
 H    0.7898230724    2.0411893803    0.0112500785
 H   -0.3847812946    1.7148543805   -1.2625349704
 H   -0.9353666018    1.9644498435    0.3972881049
 H   -0.9437099709   -0.5124458229   -0.2467920756
 H    1.2114991155   -1.7066809906   -0.6813148658
 H    2.1249586788   -0.1472703480   -0.4389353300
 H    0.2145393384   -1.4854858659    1.6173822704
 H    0.6473592651    0.6927701873    2.9145246941
 H    2.7431529211   -1.3353470524    2.6934865580
 H    2.5147715469   -0.3438499789    3.9663520610