19

 C    0.0331853074    1.4733884834    0.1641494101
 C    0.0299704035   -0.0088527764   -0.0078761662
 C    0.0072352514   -0.7258860066   -1.1470219029
 C   -0.0560710545   -0.2709366507   -2.5695406708
 C    0.0364220637   -2.1754651012   -0.8321304581
 O   -0.0687561037   -3.0799923690   -1.6298960298
 C    0.2151355880   -2.3192884784    0.6822026437
 C    0.0359606828   -0.8921182666    1.2276803284
 O    1.0751144726   -0.4465338374    2.0936618435
 H    0.9127782526    1.7767225941    0.7415081766
 H    0.0338450919    2.0054578431   -0.7890181955
 H   -0.8419806807    1.7973419899    0.7420397022
 H    0.8961128071   -0.4578749174   -3.0794836670
 H   -0.8121751921   -0.8482566234   -3.1111561696
 H   -0.2885971163    0.7922834793   -2.6603196015
 H   -0.4784037864   -3.0590425673    1.0900561612
 H    1.2350021084   -2.6612126458    0.8879645517
 H   -0.9364757332   -0.7919218024    1.7386787789
 H    0.9979933377   -0.9271013074    2.9235704651