18

 C   -0.2856642542    1.5629480953    0.0698321767
 C    0.0285835849    0.0842226692    0.0188903615
 C   -1.1488433796   -0.9236881942    0.1530353217
 C   -0.3746980067   -1.7113991481    1.2489959491
 C    0.8043515625   -0.6891114647    1.1696754421
 C    1.8505465872   -1.0976623022    0.1348862544
 O    2.8780350699   -1.7106234183    0.1930693744
 C    1.1101665466   -0.3760934930   -1.0076794858
 H    0.6273990589    2.1656252356    0.1349390576
 H   -0.8278949987    1.8797923141   -0.8294438821
 H   -0.9104379512    1.8082553916    0.9355858618
 H   -2.0643321052   -0.4600306616    0.5302815362
 H   -1.4008789086   -1.4772750330   -0.7558675358
 H   -0.8679766689   -1.7054769398    2.2226180898
 H   -0.1089646458   -2.7443146567    1.0115331423
 H    1.1557799909   -0.2487015559    2.1042665198
 H    0.7837467761   -1.0004375406   -1.8450324884
 H    1.7109766520    0.4479984124   -1.4092304752