21

 C   -0.0200872645    1.3838061783    0.0678585737
 O   -0.0119396608   -0.0223395212    0.0955607819
 C   -1.3026379528   -0.5844391231   -0.0321205366
 C   -1.1785448396   -2.0846332460   -0.0051540840
 C   -0.7342721810   -2.8903937335    1.2692343954
 C   -1.3584202580   -4.0724364918    0.4504285719
 C   -2.4320221345   -3.0300070986   -0.0153036756
 C   -0.4301464882   -4.0759261736   -0.7746880164
 C   -0.3115167463   -2.7803749537   -1.0718276319
 H    1.0144429627    1.7205632986    0.1711162437
 H   -0.4279182587    1.7729011306   -0.8791525394
 H   -0.6152502045    1.8067115143    0.8932348613
 H   -1.9565646957   -0.2361508281    0.7861747950
 H   -1.7708799538   -0.2584233106   -0.9786083642
 H    0.3346732215   -2.9337205315    1.4850109851
 H   -1.3067930844   -2.6278775434    2.1657284709
 H   -1.6306628992   -5.0229146283    0.9076993459
 H   -3.1658553562   -2.7837673938    0.7601027591
 H   -2.9216758079   -3.2046373408   -0.9765424126
 H    0.0079512574   -4.9437811094   -1.2469306479
 H    0.2542167445   -2.2798361442   -1.8441307454