14

 C   -0.0555917069    1.5364283424    0.0108256311
 C    1.4259878953    1.8904420788   -0.0014543596
 C    2.2024271218    0.7860857857   -0.0148824881
 C    1.3114703335   -0.3625930624   -0.0124624724
 C   -0.0143323841    0.0348080032    0.0024170099
 C   -0.7471618062   -1.1631552758    0.0030900893
 N    0.0641040936   -2.2272602817   -0.0104508012
 N    1.3216996033   -1.7126667586   -0.0198223105
 H   -0.5532385794    1.9554841535    0.8954481891
 H   -0.5700837051    1.9648866630   -0.8595418825
 H    1.7840901007    2.9120377029    0.0005994446
 H    3.2837493596    0.7596948137   -0.0254314805
 H   -1.8154276057   -1.3235901514    0.0125150190
 H    2.1008115597   -2.3476902532   -0.0307402382