18

 O    0.6128843612    0.7684178305   -0.9301086156
 C    0.1137601786   -0.2566751623   -0.1099638513
 C    0.1727859579   -0.0931997157    1.4348953261
 C   -1.2847749900   -0.6298501832    1.5457653666
 C   -2.3104551405    0.3219080609    2.1939155258
 C   -2.7312191194    1.2016980610    1.0378060905
 C   -2.2680790312    0.7685942869   -0.1372557327
 C   -1.4310376734   -0.4759681432   -0.0084903944
 H    0.1531442917    1.5798317594   -0.6854339204
 H    0.6186208854   -1.1692453598   -0.4391439218
 H    0.9543429288   -0.6501106926    1.9570396006
 H    0.2473582784    0.9595471930    1.7279068954
 H   -1.3407329377   -1.6510207651    1.9243505788
 H   -3.1748157382   -0.2105716682    2.6144270151
 H   -1.8719350787    0.8950411113    3.0215627111
 H   -3.3649167063    2.0726289012    1.1716457050
 H   -2.4765930179    1.2340568148   -1.0951423642
 H   -1.8258373987   -1.3095005585   -0.5989727645