17

 O    0.0083768328    1.5072875432   -0.0907594752
 C    0.0792796671    0.0958186623    0.0551926509
 C   -1.2991600121   -0.5499202344    0.0849933968
 C   -2.0873503241   -0.5932627676   -1.2469368971
 O   -1.3311358569   -1.4030260405   -2.1580932499
 C   -2.1881105995   -2.0620414873   -1.2117085406
 C   -1.4118130450   -2.0999542023    0.0963675202
 C   -0.5804469065   -3.1524384122    0.6757091502
 O   -1.8651176784   -2.8101893588    1.2289352419
 H   -0.2570001416    1.6947991479   -0.9965093050
 H    0.6801418051   -0.3647935091   -0.7406101895
 H    0.5927522821   -0.0828035065    1.0060551826
 H   -1.9067935717   -0.1332162970    0.8944400662
 H   -2.7639586371    0.1395687251   -1.6701237534
 H   -2.9427017311   -2.7423554374   -1.5881457783
 H   -0.5239019515   -4.1266225717    0.1927914656
 H    0.2733990684   -2.8896142137    1.2978889247