21

 C   -0.2910243221    1.5971639288    0.1157970543
 C    0.0022891369    0.0945268015    0.0574668339
 C   -1.3165438692   -0.6954241650   -0.0704168689
 O   -1.9740535556   -0.5019707618   -1.3131278627
 C    0.9794289784   -0.2772862594   -1.1010801382
 O    2.1378891130   -0.8701883832   -0.5044458994
 C    1.6849388960   -1.4902460496    0.6917299477
 C    0.7825042168   -0.4222075675    1.3117272261
 O    1.5595963581    0.5782586668    1.9487396348
 H    0.6262218787    2.1797899749    0.2194721326
 H   -0.7901677939    1.9308472866   -0.8012940980
 H   -0.9328598989    1.8452796345    0.9677531821
 H   -1.1189091082   -1.7714948613   -0.0141079547
 H   -1.9778867765   -0.4409455496    0.7724932305
 H   -2.3195495156    0.3955540881   -1.3319797146
 H    0.5034418413   -0.9800086984   -1.7977755881
 H    1.3158967754    0.5919323398   -1.6728958202
 H    1.1356410493   -2.4221512665    0.4795772411
 H    2.5518393812   -1.7225016245    1.3147616124
 H    0.1076360278   -0.8136151188    2.0789712273
 H    2.2947158170    0.7747005346    1.3547745318