18

 C   -0.0020572872    1.3950176370    0.0300111607
 O    0.1813689024   -0.0107272839   -0.0441050431
 C    0.6464785053   -0.5830157265    1.1280008134
 O   -0.3679562649   -0.5339820676    2.1669617423
 C   -0.7526420821   -1.8251887698    2.3604042801
 N   -0.1430322794   -2.7531818862    1.7490522341
 C    0.8649707649   -2.0870094318    0.9554118825
 C    1.3101608957   -2.6900533203   -0.3464267300
 C    2.2360954958   -2.7043671074    0.8421630461
 H    0.9281370421    1.9018877397    0.3264182964
 H   -0.2894649134    1.7296373365   -0.9684187598
 H   -0.7909951596    1.6573727921    0.7438153207
 H    1.5110580985   -0.0258069116    1.5157077999
 H   -1.5736153651   -1.9547219703    3.0556185721
 H    0.8322556904   -3.6198045540   -0.6309001983
 H    1.5165509553   -2.0060276217   -1.1605788354
 H    3.0900528632   -2.0341110788    0.8397975243
 H    2.3890248083   -3.6420294553    1.3632672539