22

 C   -0.1433542767    1.3969006730   -0.0465727028
 C    0.1661227763   -0.1018310017   -0.0258461921
 C    0.6419133796   -0.5791106783    1.3404342433
 O    0.8934588339   -1.9682586355    1.2675111117
 C    1.5062909945   -2.5613847867    2.4107367132
 C    0.5406220096   -2.6889143122    3.5907148761
 C    1.9936917165   -3.9240787317    1.9106324587
 O    0.9266761696   -4.7026675318    1.4037913885
 H    0.7417632269    1.9916541945    0.2049309748
 H   -0.4846203797    1.7136127103   -1.0361911302
 H   -0.9292182081    1.6525304649    0.6727597788
 H   -0.7252567461   -0.6767195759   -0.3030082844
 H    0.9365662015   -0.3431664651   -0.7670295549
 H    1.5616158196   -0.0445753873    1.6338897014
 H   -0.1203866456   -0.3524256885    2.1024355838
 H    2.3821193420   -1.9599525009    2.7075546982
 H   -0.2869406605   -3.3503768132    3.3229974148
 H    1.0590862350   -3.1171902602    4.4546813057
 H    0.1378674606   -1.7188930559    3.8937590472
 H    2.7678189642   -3.7608678150    1.1449963450
 H    2.4429077798   -4.4896309153    2.7335936815
 H    0.4676971070   -4.1303812575    0.7769267817