21

 C    0.0044390109    1.4917317562   -0.0076461309
 C   -0.0069861438   -0.0127684071    0.0058441912
 C    0.5877503491   -0.8955126670   -1.0606554931
 C    1.4559077678   -1.9773556564   -0.4155210832
 C    1.5359952987   -1.5577319905    1.0749391669
 C    0.1936753677   -0.8195068596    1.3217191153
 C   -0.9391713762   -1.8330979248    1.3059755997
 C   -1.5189848879   -1.8902197018    0.1043066658
 C   -0.9357830090   -0.8759477200   -0.8190673666
 H    0.9468161157    1.8882610504    0.3902690638
 H   -0.1091809720    1.8753532779   -1.0270943917
 H   -0.8110067349    1.9071793168    0.5961944643
 H    0.9156633151   -0.4562729163   -1.9977878460
 H    1.0094431038   -2.9720977062   -0.5149821294
 H    2.4439145136   -2.0205107600   -0.8823039304
 H    1.6947225464   -2.4037293973    1.7521087814
 H    2.3651945226   -0.8549309039    1.2225354437
 H    0.2189653362   -0.1994544802    2.2235061486
 H   -1.1378296208   -2.4991014136    2.1386170167
 H   -2.2952848501   -2.5864175455   -0.1926573141
 H   -1.5439112429   -0.4429921210   -1.6076855521