19

 O   -0.0458589958    1.4375111769   -0.0346588385
 C    0.0161406015    0.0284547519    0.1230330491
 C   -1.3784218964   -0.5302383362   -0.1401223398
 C   -1.4291267677   -2.0491231238   -0.0715509961
 C   -1.4906231006   -2.7045068473    1.3588920999
 O   -2.9064707918   -2.3312204852    1.4060488499
 C   -2.8581337012   -2.6959831602   -0.0131991227
 C   -2.5145695099   -4.1932181445    0.0598048793
 C   -1.5713116277   -4.1988777090    1.0046530932
 H    0.8239559490    1.8005934133    0.1554094755
 H    0.7375599435   -0.4194241605   -0.5810563875
 H    0.3445525841   -0.2437486439    1.1394432529
 H   -2.0824139270   -0.1015230734    0.5782061043
 H   -1.6905555391   -0.1999409971   -1.1390523808
 H   -0.7292651018   -2.5140928389   -0.7726733258
 H   -0.9042360313   -2.3700453395    2.2141762027
 H   -3.7057996175   -2.3468083768   -0.6021663446
 H   -2.9385674788   -4.9926371925   -0.5293294090
 H   -0.9882573713   -5.0048681135    1.4246854679