22

 C   -0.0330393955    1.5743294257    0.0571949188
 C   -0.0132458020    0.0375914913    0.0199571518
 C    0.8636880259   -0.5279865773    1.1462614548
 C   -1.4281430980   -0.5110244883    0.0170408109
 C   -2.5417785899   -0.2304306441   -0.9932744283
 N   -3.2692931054   -1.1859155252   -0.0604563113
 C   -1.9538407868   -1.9868470306    0.1303593209
 C   -2.1238810060   -1.9548046265    1.6528554657
 C   -2.5212008245   -0.5635790024    1.1488609079
 H    0.9817501409    1.9797318867   -0.0079345977
 H   -0.6136289176    1.9896447593   -0.7723415351
 H   -0.4777547468    1.9368080193    0.9912426423
 H    0.4364122956   -0.2667346891   -0.9373922405
 H    0.9201390126   -1.6201635576    1.1083906042
 H    1.8841382117   -0.1391452126    1.0679030334
 H    0.4782003393   -0.2420831839    2.1312158234
 H   -2.9837586282    0.7718260124   -1.0181879177
 H   -2.4239733351   -0.6198367002   -2.0112907194
 H   -1.7253523079   -2.8251225027   -0.5318913544
 H   -2.9470559607   -2.5610600059    2.0409236096
 H   -1.2304648937   -2.0407967307    2.2715809457
 H   -2.9640711278    0.2763268623    1.6885266952