25

 C    0.2318428604    1.4938594955    0.4316571603
 C    1.6678457516    1.8536062717   -0.0522173491
 C    2.0628650147    0.7472191130   -1.0605605248
 C    1.1476929538   -0.4572281654   -0.7298559086
 C   -0.1755438423    0.2472697991   -0.3824964464
 C    1.0595308497   -1.4983211160   -1.8595829550
 C    2.3469671677   -2.3406951523   -1.7342859799
 C    2.7488073675   -2.2622065349   -0.2316156990
 C    1.7266426487   -1.3053499323    0.4290691375
 H    0.2389022932    1.2617951938    1.5013485960
 H   -0.4723874567    2.3195097319    0.2971287302
 H    1.7102609899    2.8441219876   -0.5137817540
 H    2.3622398456    1.8791464640    0.7930422888
 H    1.8546979127    1.0815017969   -2.0843172782
 H    3.1288711054    0.5032912852   -1.0181258278
 H   -0.8716951319   -0.4059800370    0.1539339960
 H   -0.6729156166    0.5516818893   -1.3124780756
 H    0.1783524019   -2.1315178181   -1.6937555584
 H    0.9425698341   -1.0389817335   -2.8467238909
 H    2.1981157006   -3.3697882937   -2.0727339379
 H    3.1384575333   -1.9181195827   -2.3612765053
 H    2.7397046596   -3.2447728031    0.2484290668
 H    3.7683737531   -1.8790787607   -0.1267534483
 H    2.1727559596   -0.7008082525    1.2247967655
 H    0.9144819545   -1.8829345158    0.8872681681