20

 C    0.1122441345    1.3706574720    0.1624449393
 O   -0.0035553077   -0.0202964554   -0.0298070053
 C    0.6378526854   -0.5233645301   -1.1957501112
 C    2.1542971220   -0.6254543737   -1.0130440983
 C    0.0079855961   -1.8895013696   -1.4819342502
 C   -1.5033748371   -1.8053062780   -1.7483634096
 C   -2.1479763439   -3.1680766781   -1.8007230292
 O   -2.8185746781   -3.5874389807   -2.7089705780
 H    1.1460323032    1.6866778372    0.3631063249
 H   -0.2566104541    1.9331796553   -0.7094873473
 H   -0.5004893478    1.6266274721    1.0304628813
 H    0.4215943107    0.1527186639   -2.0414814980
 H    2.6242037630   -1.0227837353   -1.9181889687
 H    2.6014593675    0.3516838821   -0.8104162660
 H    2.3916829282   -1.2908412784   -0.1768627579
 H    0.5174980489   -2.3427669007   -2.3395347882
 H    0.1964315920   -2.5387607797   -0.6170291473
 H   -1.9579895605   -1.2498133828   -0.9173785815
 H   -1.7239742388   -1.2761650484   -2.6803484156
 H   -1.9536505636   -3.7962472417   -0.8981038332