16

 C    0.1619364360   -1.2016642837    0.3142467252
 C    0.0802573522   -0.0218490577    0.1053869128
 C   -0.0743943983    1.4229985375   -0.0945072940
 C   -0.8811536315    1.9951558679    1.0887972953
 O   -1.2260233646    3.3525947758    0.8823725368
 C   -0.1892254419    4.2343827681    1.1292004448
 O    0.7760027786    4.3453043284    0.0865482040
 C    1.4906335893    3.2582158332   -0.3156715518
 N    1.2212780478    2.0283445709   -0.3744560977
 H    0.2498210168   -2.2471825912    0.4788009910
 H   -0.6931818677    1.5832509729   -0.9909822718
 H   -1.8185393519    1.4422957480    1.1828945717
 H   -0.3072147272    1.8779315962    2.0195003148
 H   -0.6184844149    5.2337132029    1.2107708924
 H    0.3415237346    3.9591925680    2.0546734201
 H    2.4587765527    3.5961404428   -0.6860093736