20

 C   -0.1090936798    1.4448700902   -0.0109336727
 C   -0.0324674802   -0.0688605739   -0.0126346554
 O   -1.3825615272   -0.5768770415    0.0169666127
 C   -1.4918617867   -1.8995101910    0.0185047455
 N   -0.5513789667   -2.7707367437   -0.0029939027
 C   -1.3918540528   -4.0216964200    0.0148037642
 C   -2.5034811403   -3.7011099289   -1.0292024942
 C   -2.8378265302   -2.6062737042    0.0475626084
 C   -2.4564394063   -3.7024504574    1.1071573948
 H    0.9001241536    1.8668109286   -0.0327423236
 H   -0.6542166411    1.8095248723   -0.8861189496
 H   -0.6158482175    1.8094283918    0.8870545778
 H    0.4677995655   -0.4582060668   -0.9055924658
 H    0.5064409597   -0.4581713565    0.8575740502
 H   -0.8030179028   -4.9367060119    0.0012547698
 H   -2.1786170826   -3.3612571339   -2.0153197204
 H   -3.2779086627   -4.4684710833   -1.1109709639
 H   -3.7567441183   -2.0234035161    0.0681639127
 H   -3.2265621074   -4.4699109948    1.2219671969
 H   -2.0884664561   -3.3638330090    2.0784439152