14

 N   -0.0301886790    1.2860512830   -0.0934968211
 C   -0.0500111216    0.0298404778   -0.0496969289
 C   -1.2711964283   -0.8599350277   -0.1074181643
 C   -0.6931170537   -2.2212788203   -0.5116112476
 C    0.7302185572   -2.1446949323    0.0872245970
 O    1.0823354124   -0.7580574279    0.0521700326
 C    0.7853825413   -2.6472762865    1.4723345860
 N    0.8160326293   -3.0569150789    2.5519823147
 H    0.9237825741    1.6423211621   -0.0171515472
 H   -1.7268953324   -0.9028486614    0.8879406008
 H   -2.0132818606   -0.4613971463   -0.7984050153
 H   -1.2557550558   -3.0774080174   -0.1389327329
 H   -0.6095654682   -2.3043691567   -1.5983668292
 H    1.4693509752   -2.6899441075   -0.5054060646