23

 C    0.1894522079    1.4948688541   -0.3852942998
 C    0.1664889079    0.0010475903   -0.1517609198
 C    1.4563831886   -0.7694353744    0.0276861212
 C    0.5193852997   -0.5828115612    1.1877886636
 C    0.8073800986    0.1804306068    2.4945818362
 C    0.0706789773   -0.9416390863    3.2481055405
 C    0.4675253186   -1.5495921970    4.5602565491
 C   -0.8333563531   -0.7874104365    4.4345181434
 C   -0.2366724445   -1.6926123338    1.9403044836
 H    0.9979772006    1.9709042908    0.1791436647
 H    0.3448876881    1.7280138683   -1.4445784820
 H   -0.7511778256    1.9649493621   -0.0757015465
 H   -0.6202318288   -0.5257924011   -0.6888669199
 H    1.5388567434   -1.7585243038   -0.4130025759
 H    2.3850306440   -0.2047110122    0.0305410761
 H    1.8679640918    0.2874290700    2.7460845799
 H    0.3335779847    1.1657150199    2.5665402614
 H    0.4199712373   -2.6298183952    4.6588042835
 H    1.2792720148   -1.0869826701    5.1134301003
 H   -0.9006250925    0.1896551847    4.9033952442
 H   -1.7604271207   -1.3525105039    4.4486307811
 H   -1.3017497687   -1.7697691073    1.6944860148
 H    0.2105180506   -2.6898046043    1.8645706904