18

 C   -0.0686635545    1.4895446631    0.0129824817
 C   -0.0210993833   -0.0142009384   -0.0084124843
 N   -0.0320660992   -0.6253041071   -1.1962210338
 C    0.0073903144   -1.9565087211   -1.1849922048
 C    0.0648113567   -2.7103234145   -0.0142137101
 N    0.1754679041   -4.1012134587   -0.0275756802
 C    0.0736428751   -1.9724724852    1.1858746097
 C    0.1406021591   -2.6649949106    2.5189683734
 N    0.0278296410   -0.6420128200    1.1743314057
 H    0.8037216801    1.8944212131    0.5360945952
 H   -0.0924201271    1.8792812958   -1.0051799639
 H   -0.9539977726    1.8390863176    0.5543915659
 H   -0.0041835814   -2.4553935440   -2.1545441134
 H   -0.1051462761   -4.5309858604   -0.8983676633
 H   -0.2470424991   -4.5706753075    0.7605322143
 H    1.0115569975   -3.3287652469    2.5753543675
 H    0.2021126233   -1.9208732781    3.3134046914
 H   -0.7487565680   -3.2853835071    2.6958722992