18

 O   -0.4116915618    0.0757182788   -0.0922556128
 C   -0.2188072994    1.2481927068    0.0331347265
 C   -1.0797661254    2.4748802652    0.3636162713
 N    0.1795940074    3.2583605534    0.4784836281
 C    1.0244014904    2.1476449422   -0.0645423258
 C    2.2624966312    1.7940338641    0.7970591349
 C    3.4343765024    2.1915960184   -0.0640524653
 C    3.0660363636    2.4875566067   -1.3083165624
 C    1.5786527853    2.3359795208   -1.5103086966
 H   -1.7469189182    2.7478376546   -0.4661108275
 H   -1.6712898199    2.4220860686    1.2841505033
 H    0.1937795495    4.0976146425   -0.0903312850
 H    2.2124977494    2.3260888464    1.7522572233
 H    2.2823470290    0.7189102599    1.0235374280
 H    4.4530898051    2.1990939627    0.3071443677
 H    3.7329114604    2.7717364927   -2.1145504917
 H    1.3535335704    1.4601631647   -2.1345761876
 H    1.1118952108    3.1969147415   -2.0059376684