18

 C   -0.0199808725    1.4898429946    0.0720859963
 C    1.5163507518    1.3848988166   -0.0067477559
 C    1.7799274682    0.7323467657    1.3655224664
 C    0.7664100703   -0.4564041588    1.1796262910
 C    1.6385055997   -1.5813223051    0.6279966625
 O    1.1461837407   -2.2731498001   -0.5153283282
 C    1.9936571057   -1.1290332206   -0.7194423858
 C    1.1917794511    0.1366864824   -0.9172133257
 N   -0.0343602218   -0.0173827133   -0.0238456086
 H   -0.4712741644    1.9095452223    0.9759065421
 H   -0.4986967692    1.9096402626   -0.8157543988
 H    2.1663756062    2.2036218873   -0.3205368953
 H    2.8076532438    0.3894453475    1.5134685641
 H    1.5206451870    1.4060160436    2.1863553145
 H    0.1304834740   -0.6893522193    2.0330617964
 H    2.3090085530   -2.1323505051    1.2814312459
 H    2.9475616164   -1.3092092515   -1.2048579887
 H    0.9121897601    0.3899343310   -1.9411715922