12

 N    0.1095405136   -1.1071492522   -0.1194518021
 C    0.0037807361    0.0418344783   -0.0584138280
 C   -0.0704405956    1.4772408632    0.0061893768
 N   -1.1648844154    2.1264538853   -0.1220051152
 C   -0.7979238544    3.5464078070    0.0386589095
 C    0.7537045620    3.5994612492   -0.0254661824
 N    1.0891490020    2.1962704714    0.2651669073
 H   -1.2812917557    4.1529584380   -0.7307991238
 H   -1.1711304415    3.8908757061    1.0111496235
 H    1.1103215993    3.8957779423   -1.0208526780
 H    1.1916777973    4.2721773957    0.7152187012
 H    1.9663087421    1.8223607157   -0.0674634287