15

 C   -0.0474003058   -1.2300338733   -0.0046014185
 C   -0.0443219062   -0.0281733619    0.0025627766
 C   -0.0075879209    1.4286451366    0.0107185721
 C    1.4274561601    1.9905423369   -0.0010025194
 C    1.4367285109    3.5316591976    0.0079432220
 C    2.7832432948    4.0888970042   -0.0028413681
 C    3.9037868029    4.5234352741   -0.0122505483
 H   -0.0611277872   -2.2915935763   -0.0108948930
 H   -0.5583226536    1.8131816189   -0.8582680652
 H   -0.5399670913    1.8028921655    0.8954927403
 H    1.9749293569    1.6157080745    0.8689681623
 H    1.9565583014    1.6260027331   -0.8865749075
 H    0.8790367510    3.9060645751   -0.8610325208
 H    0.8973877689    3.8957771695    0.8927269397
 H    4.8896249283    4.9173720153   -0.0208140621