14

 O    0.3308353806    0.1110366289   -0.4074700835
 C    0.3037150654    1.3003772666   -0.3653151171
 O    0.9539525259    2.0049473469    0.5932733609
 C    0.9199315033    3.4324071632    0.5169760011
 C    2.2790741803    3.9515813478    0.1673569143
 N    2.5759392776    5.1827290444   -0.2035618650
 C    3.9287662790    5.1263284827   -0.3655532486
 N    4.4778086421    3.9478472326   -0.1240595966
 N    3.3994951667    3.2048166078    0.2213761222
 H   -0.2439139482    1.9504084585   -1.0739728545
 H    0.1892040027    3.7778204213   -0.2234277362
 H    0.6033833812    3.8015229245    1.4974480015
 H    4.5203183349    5.9749413633   -0.6741565639
 H    3.4958045985    2.2314742316    0.4630815355