23

 C    0.2364934035    1.5438657119   -0.0421560633
 C   -0.1051291646    0.0674907810    0.0880412073
 O    0.8382145568   -0.5119287665    0.9699277578
 C    0.8282601224   -1.9278614404    1.1467344590
 C   -0.5740865835   -2.4639449119    1.4765554786
 C    1.4251160292   -2.6311615706   -0.0843851271
 C    1.7350897739   -2.1988878559    2.3455563775
 C    2.6625081080   -1.2077775613    2.8991573016
 O    1.4325558825   -1.5250179528    3.5620671891
 H    1.2410485911    1.6720913558   -0.4553683570
 H   -0.4787966796    2.0440074617   -0.7021884436
 H    0.2044608235    2.0293954071    0.9373200911
 H   -1.1274223444   -0.0477884806    0.4759882573
 H   -0.0745971250   -0.4145735763   -0.9010504749
 H   -1.2567026527   -2.3688935188    0.6276455073
 H   -0.5174822778   -3.5255279662    1.7366295360
 H   -0.9866326842   -1.9229356738    2.3318777876
 H    2.4187444454   -2.2305890038   -0.3044629678
 H    1.5141588675   -3.7084702163    0.0875774033
 H    0.7931596821   -2.4920243514   -0.9659218304
 H    1.9743460305   -3.2568689540    2.4723946235
 H    3.5652194471   -1.5430543057    3.4087012043
 H    2.6996904583   -0.2191931314    2.4526416128