15

 N    0.0553442199    1.4373082519    0.1640618187
 C    0.0300397085    0.0344803965    0.0440250357
 C   -1.0736253451   -0.8032133592    0.0086482306
 N   -0.6636322751   -2.1376670993   -0.0212228483
 C    0.7030434642   -2.1599591779   -0.0149729683
 C    1.1369137126   -0.8500097719    0.0293121804
 O    2.4987683896   -0.7893067343    0.0316291464
 C    2.9122066037   -2.0984710763   -0.0105057885
 C    1.8711919845   -2.9822132804   -0.0411787097
 H    0.8251230640    1.8447297131   -0.3530376856
 H   -0.8064539682    1.8617766518   -0.1553821731
 H   -2.1218433645   -0.5511490474    0.0152593965
 H   -1.2822371183   -2.9263194280   -0.0467883580
 H    3.9802410036   -2.2411065923   -0.0122037617
 H    1.9567982706   -4.0566823364   -0.0753221452