18

 O   -0.0375492891    1.4615846907    0.0638289585
 C   -0.0000812789    0.0518100074   -0.0906408705
 C   -1.4115053485   -0.4716959708    0.1621227357
 C   -1.4915051933   -1.9894560626    0.0284149732
 C   -2.8321317485   -2.7312005543    0.0614990396
 C   -3.6395481893   -2.4789787232   -1.1386924636
 N   -2.5255453284   -3.4749288069   -1.2457696700
 C   -1.3203025984   -2.6649990510   -1.3484150292
 O   -0.4960550085   -2.6492928163   -2.2088781819
 H    0.8254075933    1.8124236496   -0.1742237137
 H    0.3264339120   -0.2401099590   -1.0990178992
 H    0.6992085910   -0.4108958367    0.6260323663
 H   -1.7267612213   -0.1719412545    1.1684825015
 H   -2.0932039013    0.0177023572   -0.5414772261
 H   -0.7837037502   -2.4667727875    0.7184013156
 H   -3.2102229177   -3.2875548988    0.9104963088
 H   -4.6142593716   -2.9497006770   -1.2119814750
 H   -3.5507187613   -1.5416484162   -1.6813344299