17

 O    0.0398495414    1.4604268050    0.1445006343
 C    0.0428792503    0.0717453243    0.0792479597
 C    0.1902208500   -0.5751199284    1.4863502458
 C   -1.3474297374   -0.7376404635    1.5687021365
 C   -1.4193180087   -0.5820721221    0.0185322377
 C   -2.4760758032    0.1919149273   -0.5849330492
 C   -3.3518314981    0.8469907078   -1.0848075195
 C    0.9510133098   -0.4044835428   -1.0247215501
 O    1.4680076372    0.3590217753   -1.8042196409
 H    0.4352893452    1.7670277411   -0.6866037187
 H    0.7149133560   -1.5346091525    1.4463472959
 H    0.6737166049    0.0733269289    2.2175106203
 H   -1.7439720772   -1.6663524355    1.9825612254
 H   -1.8192151703    0.1103615799    2.0670279002
 H   -1.3503582106   -1.5689974149   -0.4544110769
 H   -4.1258422096    1.4267500299   -1.5232986742
 H    1.0944212103   -1.5028748097   -1.0999084461