23

 C   -0.0440319391    1.5515939080    0.0995695760
 C    0.0147017282    0.0170372075   -0.0247050568
 C    0.7268640028   -0.4706957189   -1.2578926133
 C    1.9979183307   -0.8853226446   -1.3215316665
 C    2.4156846495   -1.3027248239   -2.7141830410
 C    1.1162297602   -1.2034571678   -3.5084131239
 C   -0.0529050904   -2.0476375414   -3.0636747971
 C    0.0523943780   -0.6031971169   -2.6012772365
 C   -0.9633560594    0.4119985413   -3.0726437506
 H    0.9649789730    1.9748400892    0.1146278530
 H   -0.5836128057    2.0075824908   -0.7350230280
 H   -0.5507215425    1.8446349811    1.0248403918
 H    0.5222147591   -0.3849490222    0.8594999489
 H   -1.0069340184   -0.3845272503   -0.0058419038
 H    2.6651241512   -0.9554644568   -0.4682601060
 H    3.1886936439   -0.6358541909   -3.1214326006
 H    2.8434939731   -2.3140911035   -2.7340193839
 H    1.1616078736   -0.9229004820   -4.5549182910
 H   -0.8034923098   -2.2765082697   -3.8146399711
 H    0.1128064588   -2.8353959541   -2.3353956153
 H   -1.8368227698    0.4473249570   -2.4109130773
 H   -0.5374477181    1.4207321389   -3.1176756810
 H   -1.3255216189    0.1600307891   -4.0744535859