17

 C   -0.0981689329    1.4834330077   -0.0129557825
 C    0.0100194124   -0.0169486142    0.0132351372
 N    0.0671080617   -0.7084928731    1.0881542442
 O   -0.0125444531    0.1012342524    2.2269222449
 C    0.0050834710   -0.7860310689   -1.2794995660
 C   -0.1826315489   -2.2677782062   -1.2489118144
 N   -1.2876471700   -1.4208578069   -1.7032031623
 C    0.7678455608   -0.1954113623   -2.3524559234
 C    1.4297681325    0.2952354022   -3.2277982820
 H    0.7656110734    1.9325773801    0.4874392982
 H   -0.1531489922    1.8589015403   -1.0343262827
 H   -0.9823593493    1.8046754228    0.5466928810
 H    0.0656411514   -0.5411371798    2.9404687710
 H    0.2874035378   -2.8560827046   -2.0304023333
 H   -0.2366851898   -2.7311081347   -0.2704397389
 H   -1.9502955764   -1.3054205620   -0.9375792732
 H    2.0073050917    0.7224741871   -4.0098874777