16

 N    0.2329158710   -1.1476001510    0.8749410599
 C    0.0578904381   -0.0956053477    0.4307431185
 C   -0.1924140715    1.2418906212   -0.1386361771
 N    1.0645011003    1.9825500636   -0.2264787100
 C    1.5794553887    2.7940648167   -1.2858896900
 C    0.5799664782    3.8676743842   -1.8541573026
 N   -0.7356386713    3.6843880229   -1.1948104837
 C    0.3585766170    4.4043390107   -0.4995123819
 C    1.3523773453    3.3443550292    0.1032323575
 H   -0.6576058500    1.1252971431   -1.1199391866
 H   -0.9196647972    1.7612911493    0.4893055094
 H    2.5002193252    2.5122809619   -1.7849299516
 H    0.6798590302    4.3811148837   -2.8006737935
 H   -1.3666817128    4.3880895761   -1.5767329473
 H    0.2487863534    5.4261428063   -0.1628255348
 H    2.0628797354    3.5720372096    0.8903795938