22

 C    0.1231904535    1.5412287931    0.1703027342
 C   -0.0295473995    0.0221417872    0.2795838351
 C   -1.3580831735   -0.4773824620   -0.2880351272
 N   -1.4436117787   -1.9334850381   -0.2115344847
 C   -2.0143403687   -2.5028951532    1.0138687958
 C   -2.7517452158   -2.5419973554   -0.2689208061
 C   -4.1040059714   -1.9216588843   -0.6318063526
 O   -4.4265308335   -3.0723411305   -1.4401994511
 C   -3.1491408149   -3.6993863923   -1.1774820903
 H    1.0801475548    1.8728463103    0.5838716973
 H    0.0807217222    1.8709334783   -0.8737227771
 H   -0.6720780096    2.0634301520    0.7140304616
 H    0.7860833488   -0.4823270591   -0.2504125170
 H    0.0477109186   -0.2860805696    1.3298275860
 H   -2.1947327010    0.0165025662    0.2399758059
 H   -1.4383780634   -0.1926622883   -1.3448611561
 H   -1.5224176947   -3.3910658847    1.4027184713
 H   -2.3813210091   -1.8133960577    1.7751290409
 H   -4.8160269052   -1.7832157806    0.1914399211
 H   -4.0596699389   -0.9987133919   -1.2256973841
 H   -2.5383828642   -3.8004767514   -2.0834855062
 H   -3.2633161658   -4.6808263779   -0.7006143068