14

 C   -0.0676868424    1.4721345483    0.0107044675
 C   -0.0126193061    0.0192427392    0.0028279973
 C    0.0431819081   -1.1870083072   -0.0037366085
 C    0.1103053280   -2.5923198186   -0.0114096063
 C    1.1674915133   -3.4824258005   -0.0224016134
 N    0.7225899040   -4.7768831434   -0.0263927709
 C   -0.5905937072   -4.6944526448   -0.0180362938
 N   -1.0156387322   -3.4036112626   -0.0088440388
 H    0.9411247820    1.8991886482    0.0032646877
 H   -0.5969515429    1.8592648015   -0.8675064644
 H   -0.5801584969    1.8503678902    0.9026489075
 H    2.2189652813   -3.2406689299   -0.0274986379
 H   -1.2777753960   -5.5273926762   -0.0181879280
 H   -1.9663925631   -3.0737856543   -0.0014296180