20

 O   -0.1317523275    1.4399785180    0.1185306088
 C   -0.0156206429    0.0198842638    0.0416457583
 C   -1.4344414657   -0.5346776785   -0.0358455822
 O   -2.1591477651   -0.0802109600    1.1096624424
 C   -2.1904673249   -0.1444224253   -1.3267007586
 C   -3.3097194463   -1.1907860016   -1.3970229627
 C   -2.5862026223   -2.5013735896   -1.0282698138
 C   -1.4832139785   -2.0816126064   -0.0190227340
 H    0.7086995640    1.8037717165    0.4092922618
 H    0.5646562560   -0.2848123486   -0.8423228333
 H    0.4792778344   -0.3816555476    0.9377038251
 H   -1.9639630020    0.8636706931    1.1757363803
 H   -2.5415630327    0.8897581928   -1.2961898334
 H   -1.5232807003   -0.2454311874   -2.1930951913
 H   -4.0671503804   -0.9537876794   -0.6428970314
 H   -3.8061321507   -1.2344219693   -2.3703913478
 H   -3.2619085704   -3.2561321829   -0.6175683269
 H   -2.1303110090   -2.9377033672   -1.9241574785
 H   -0.5115206155   -2.5077787028   -0.2892315659
 H   -1.7071680201   -2.4012780876    1.0010896629