21

 C   -0.6071964191    1.2864670538   -0.0458635234
 C    0.2101349866   -0.0001834575    0.0945202705
 C    0.5923025741   -0.6059733416   -1.2545492363
 N    1.3576804342   -1.8513072492   -1.0747903395
 C    1.7171370235   -2.5253171719   -2.2583126439
 C    2.8401134749   -2.4949636907   -3.0586501686
 C    2.6378331972   -3.4293697739   -4.1151770919
 C    1.3969714214   -3.9927721782   -3.9377402946
 N    0.8476911858   -3.4392703552   -2.8063361340
 H   -0.0531228586    2.0515215136   -0.6005146568
 H   -1.5448339519    1.1037973205   -0.5823475436
 H   -0.8607504126    1.7034953832    0.9332489230
 H    1.1252099509    0.2078821714    0.6665219668
 H   -0.3478362108   -0.7472342695    0.6707495733
 H   -0.3139036923   -0.8508615022   -1.8212359627
 H    1.1449437682    0.1350910670   -1.8573365990
 H    2.1868305019   -1.6636629858   -0.5227086486
 H    3.7035122074   -1.8652764576   -2.9046253575
 H    3.3228307975   -3.6527559169   -4.9188067405
 H    0.8618125674   -4.7312096048   -4.5122931220
 H   -0.0195189256   -3.7056694544   -2.3733760407