18

 C   -0.3159109913    1.4837857171   -0.0152538633
 C    0.0243004438    0.0194808762    0.0007634934
 C    1.1609614455   -0.5468804502   -0.8701945323
 O    1.6546586019   -1.3531425545    0.2288253035
 C    0.6583707702   -0.8332426107    1.1390879078
 C    1.2314064956   -0.3881728053    2.4557930494
 C   -0.6465672526   -1.6478791065    1.0692337074
 O   -1.1398074823   -0.8381322276   -0.0274307829
 H    0.5851495119    2.0978082469    0.0774978062
 H   -0.8100202103    1.7441311695   -0.9582549478
 H   -0.9995942359    1.7333304447    0.8011050228
 H    0.8279225847   -1.1475869736   -1.7232943358
 H    1.9148976309    0.1815521988   -1.1963481263
 H    2.0328875616    0.3405355934    2.3049202745
 H    0.4598159109    0.0603964709    3.0890113577
 H    1.6544149160   -1.2463773137    2.9903217433
 H   -0.5149632399   -2.7003321298    0.7961650721
 H   -1.3019925809   -1.5674753055    1.9463697303