18

 O    0.2272601165    0.1087540075    0.4444490413
 C    0.2098718137    1.2850950806    0.1732987032
 N    1.2423165770    1.9835697465   -0.4084688824
 C    1.8681433298    3.2317030874   -0.0507668728
 C    1.6813643839    3.8755419534    1.3096675133
 C    1.6584392774    2.8670097291    2.4757351315
 C    2.7150338615    1.8048403760    2.3494661612
 C    3.1615714493    1.3787548604    1.1666256555
 C    2.6697827942    1.9445563534   -0.1151392513
 H   -0.6886006522    1.9242864753    0.2967660847
 H    1.9755106108    3.9322647418   -0.8779057914
 H    2.5205677234    4.5697355828    1.4447809658
 H    0.7706305245    4.4841631392    1.3224221353
 H    1.7673351008    3.4067366861    3.4222123651
 H    0.6705239360    2.3851817058    2.5274624410
 H    3.0900057972    1.3544691601    3.2636755873
 H    3.9075737644    0.5934657394    1.1027792526
 H    3.2894910317    1.7662405252   -0.9901492499