17

 O    0.0950265982    1.4382114750   -0.1224596658
 C    0.0312233226    0.0412826284    0.0259522503
 C    0.6330945251   -0.6622841305   -1.2114965909
 N   -0.0051089664   -0.0941277585   -2.3940415369
 C    0.7220911444   -0.3509580323   -3.6447417650
 C   -0.0151047116    0.1533577244   -4.7967851639
 C   -0.6402798446    0.5503295080   -5.7422315759
 C    0.7560142480   -0.3584521819    1.2417545841
 N    1.3212174567   -0.7161705423    2.1830735699
 H   -0.0379830340    1.5747711459   -1.0757946790
 H   -1.0133430456   -0.2965497161    0.1485330046
 H    1.7016157390   -0.4268424533   -1.2537706321
 H    0.5323578686   -1.7543386577   -1.1175452118
 H   -0.9545794540   -0.4427845146   -2.4881368105
 H    1.6960705071    0.1502332610   -3.5777220212
 H    0.9361596996   -1.4236060863   -3.7952826202
 H   -1.1829611030    0.9079876708   -6.5824074458