15

 N   -0.0666677288    1.2817316281   -0.1642521686
 C   -0.0137672957    0.0334124095    0.0191225460
 O    1.1406874590   -0.7042077479    0.1454895827
 C    0.7670525231   -2.0470478549    0.4889352863
 C    0.1262650666   -2.0643137348    1.9091010754
 C   -1.2316478721   -1.9286548179    1.2220738323
 C   -0.6390572135   -2.2985562497   -0.1214140833
 C   -1.1670488203   -0.9061342152    0.0782463503
 H    0.8746774625    1.6771346523   -0.1984499471
 H    1.6033608505   -2.7063189826    0.2703322671
 H    0.2323035095   -3.0447042284    2.3811320959
 H    0.4588944781   -1.2806048560    2.5963895728
 H   -2.1963304660   -2.1988383005    1.6330499374
 H   -0.9421924788   -2.9972006526   -0.8885718890
 H   -2.1073086942   -0.5922125395   -0.3527335582