15

 N    0.0756312732    1.3756280675    0.1928808338
 C   -0.0153949640   -0.0119125904    0.0312750020
 C   -1.1075040595   -0.8592810822   -0.0155438035
 C   -0.5963534850   -2.2135886420   -0.0884909378
 C    0.7636832626   -2.1142864277   -0.0970648247
 O    1.7761034308   -3.0160846927   -0.1622102856
 N    1.1197193181   -0.7867869808   -0.0261489142
 C   -2.4521330810   -0.4359299698    0.0012325065
 C   -3.5971982045   -0.0537760901    0.0151882021
 H    0.4577929409    1.8423387832   -0.6253809904
 H   -0.8484101479    1.7559285332    0.3664983280
 H   -1.1849685344   -3.1146958543   -0.1477870281
 H    1.3920874707   -3.8959266612   -0.2232068776
 H    2.0588663095   -0.4527351355    0.1069192172
 H   -4.6070998895    0.2714574230    0.0304742822