15

 N   -0.0812560588    1.4974465818    0.0952957789
 C   -0.0211489927    0.0939397397   -0.0500452475
 C   -1.1042161189   -0.9652250789   -0.1159864128
 O   -0.3474336692   -1.7366912609   -1.0752029577
 C    0.6350337436   -0.7423523551   -1.1166196223
 N    1.6238535690   -0.5977805881   -1.8685326225
 C   -0.3234301102   -0.8258919992    1.1587023228
 C    0.5745352845   -1.8234455718    1.6624806581
 C    1.3276186604   -2.6524851528    2.0983260969
 H    0.7542155790    1.8487550477    0.5533012055
 H   -0.1430727907    1.9512741583   -0.8110285267
 H   -2.1778545012   -0.9205395301   -0.2344091627
 H    1.7153136467   -1.3747705956   -2.5249797463
 H   -0.8640125288   -0.2545448588    1.9112753887
 H    1.9934474175   -3.3884112161    2.4759680975