19

 C   -0.0580863466    1.5847809965    0.0752846551
 C   -0.0169355272    0.0423986531    0.0282778256
 C    0.7448567065   -0.5223308568    1.2497774929
 C   -1.3838101636   -0.4873269706    0.0465804122
 C   -2.4992012865   -0.9318940363    0.0955541173
 C    0.6509335346   -0.4306132925   -1.3141127374
 O   -0.0674066865    0.0280773716   -2.4214793012
 C    2.1027233012    0.0014449909   -1.4327064363
 O    2.4844236585    0.6700758619   -2.3640593165
 H    0.9561193369    1.9973032911    0.1160521988
 H   -0.5592825975    1.9736060355   -0.8124776288
 H   -0.6011007021    1.9239723756    0.9607466829
 H    0.1818794090   -0.3126457353    2.1623849590
 H    0.8671932352   -1.6072935260    1.1759425444
 H    1.7325211402   -0.0632881850    1.3540648415
 H   -3.4877348546   -1.3189895724    0.1219245608
 H    0.6593838538   -1.5351649230   -1.2903795124
 H    0.5710417984    0.5194726989   -2.9630787436
 H    2.8014388002   -0.3430115871   -0.6473819042