18

 C   -0.1735258670   -1.1760315457    0.1569825399
 C   -0.1300761216    0.0262187236    0.1357530139
 C   -0.0644469796    1.4631566807    0.0682455067
 C    0.5812113281    2.1860607648    1.2080879740
 N    1.2702299001    2.1024226214   -0.0821618333
 C   -1.1591228613    2.1615640240   -0.7137350150
 C   -1.5741570949    1.5830709810   -2.0849906704
 C   -2.9624493898    1.4241862632   -1.4346506688
 O   -2.4702769372    1.9107951636   -0.1658646399
 H   -0.2187589087   -2.2363784794    0.1953163579
 H    0.2163837427    3.1749060192    1.4717690481
 H    0.9397392619    1.5872739982    2.0394020314
 H    1.9880935730    1.3828753378   -0.0477717999
 H   -0.9220270933    3.2329353718   -0.7274926491
 H   -1.5105953130    2.2764146726   -2.9239340274
 H   -1.0806902866    0.6458006422   -2.3448696849
 H   -3.7497609979    2.0719517725   -1.8393081339
 H   -3.3454559148    0.4008955986   -1.3542999591