15

 N    0.2078297043    0.8482223934    0.6759941959
 C   -0.0108480712    0.0760978433   -0.4294797954
 O    0.7535332446    0.0565001864   -1.3763483736
 C   -1.3082400927   -0.7028188938   -0.3859955482
 C   -1.6621813009   -1.7376828995   -1.4021536262
 N   -0.4943659835   -2.4963874301   -1.8650307005
 C   -0.1774363511   -2.9027738472   -0.5494677458
 O    0.7230216121   -3.5536443677   -0.1077684440
 C   -1.4006358570   -2.1904208911    0.0222155195
 H    1.1105428337    1.2904513922    0.7543848263
 H   -0.3096350719    0.6919777912    1.5246674177
 H   -2.1510180463   -0.1319357277    0.0001659182
 H   -2.5914070205   -1.7579434395   -1.9557929534
 H    0.2143414046   -2.0346690964   -2.4260184330
 H   -2.0803218641   -2.5293678936    0.7915546326