19

 C   -0.0714968775    1.4997096992    0.0579384470
 C    1.4810287392    1.4879835633   -0.0333833682
 C    2.0633915389    1.1586207151    1.3574222343
 C    1.6975963010   -0.3115834677    1.6388604296
 C    2.5319110178   -1.2205633508    0.7391889840
 O    2.3382969120   -0.8498705811   -0.6295694078
 C    1.3358802691    0.1203483456   -0.7790059578
 C    0.0108716931   -0.0453981369    0.0254528803
 O    0.3180419511   -0.5493148967    1.3286766746
 H   -0.5232599536    1.9371226342    0.9509368852
 H   -0.5434681619    1.9090991229   -0.8395631328
 H    1.9902617635    2.3149944578   -0.5313186046
 H    3.1528232535    1.2709437928    1.3714428271
 H    1.6504941546    1.8258710236    2.1209906766
 H    1.8313988932   -0.5857879156    2.6881717895
 H    3.6015363950   -1.1409485907    0.9751084618
 H    2.2193968480   -2.2633919237    0.8800414999
 H    1.1584988590    0.2396420195   -1.8490186953
 H   -0.8162871160   -0.6378265108   -0.3703066234