17

 C    0.0046828908    1.4744330504   -0.0566765955
 N   -0.3679866423    0.0854288272   -0.3050312342
 C    0.4310391740   -0.6664458996   -1.1531581300
 C    0.6991773599   -2.0005699528   -1.1422867058
 C    0.3547900175   -3.1581408104   -0.2852786362
 O    1.4812342215   -2.2477884563   -2.2880722178
 C    1.6190881195   -1.0400133797   -2.8519085789
 O    2.3435508765   -0.9636307327   -3.9686648639
 N    1.0376108824   -0.0578777299   -2.2553976262
 H    0.9517849852    1.5870496550    0.4935485340
 H    0.1073952113    1.9892867829   -1.0125977138
 H   -0.7927666048    1.9546217197    0.5163163994
 H   -0.6128564870   -0.4146008890    0.5377586432
 H   -0.1467282520   -2.8081458390    0.6222582261
 H   -0.3226047334   -3.8685927900   -0.7776454518
 H    1.2455267986   -3.7170477835    0.0274324823
 H    2.6571312425   -1.8500036922   -4.1847169610