15

 O   -0.0518700243    0.0838738645    0.3976644326
 C   -0.0644425516    1.2275690478    0.0166835090
 C   -1.2317241558    2.1350608824   -0.2168348408
 C   -0.7699080750    3.2969650614   -0.7096094498
 C   -0.6709370714    4.6773333067   -0.0996673166
 C    0.8672730400    4.2823415876    0.0415817054
 O    1.1790756771    3.1968419639    0.9547471313
 C    1.1648849036    2.1694212347   -0.1137086606
 C    0.7087392893    3.2549528000   -1.0871597342
 H   -2.1740336739    1.9769013959    0.2936323408
 H   -0.7233132086    5.5157919522   -0.8026865081
 H   -1.2724239968    4.8822112868    0.7873086031
 H    1.5924739795    5.0964643160    0.1112152012
 H    2.1316313315    1.6692214501   -0.1913731336
 H    1.0330388864    3.3519787798   -2.1197318795