20

 C   -0.2348009201    1.2652750067   -0.2644520657
 C    1.1962659283    1.3038522587    0.2120488359
 C    0.4779613812   -0.0184970070    0.0875873673
 C    0.0879065832   -0.7733231953    1.3203492358
 C   -0.6968107234   -2.0602568791    1.3463664978
 C   -0.3012056158   -2.9879785481    0.1893864408
 C    1.1824924243   -2.9484055821    0.6830775281
 C    0.7614984679   -2.0213521796    1.8315771212
 H   -1.0048244946    1.6165160435    0.4151229483
 H   -0.4383914676    1.4757326722   -1.3087388084
 H    1.9744595160    1.5410137044   -0.5051996657
 H    1.3873297971    1.6809148457    1.2117782801
 H    0.7754751943   -0.6315341189   -0.7565408735
 H   -0.2015752418   -0.1126540181    2.1373996892
 H   -1.6065681654   -2.1535101431    1.9285737914
 H   -0.7344059008   -3.9859162335    0.2848495926
 H   -0.5057389135   -2.6218190366   -0.8220595302
 H    1.5195416509   -3.9257933761    1.0348849812
 H    1.9340730057   -2.5567846753   -0.0102362791
 H    1.1446956042   -2.0800467183    2.8440206029