18

 C   -0.0881489522    1.5869448685   -0.0860664212
 C    0.0055957127    0.0375075528   -0.0212794386
 C    0.7972304141   -0.4495030098    1.2306506079
 C    2.2597832475   -0.0165405790    1.2865868290
 O    2.8008477789   -0.6018458367    2.4601856681
 C   -1.3480898892   -0.5302039779    0.0271637768
 C   -2.4607047714   -0.9746721720    0.1014155300
 C    0.6776574636   -0.4462146701   -1.2470744158
 N    1.2278771044   -0.8037043603   -2.1981621027
 H    0.9024773268    2.0324099152   -0.1964218353
 H   -0.7039117006    1.8935633162   -0.9334802295
 H   -0.5480316205    1.9562485567    0.8337541778
 H    0.2731102360   -0.0797069437    2.1171411465
 H    0.7607592571   -1.5416279665    1.2666893916
 H    2.7862171666   -0.3606902359    0.3841196055
 H    2.3401841066    1.0805507214    1.3207662834
 H    3.7391527360   -0.3943713046    2.4944077153
 H   -3.4428296467   -1.3763005644    0.1546482014