20

 N   -0.2052176543    1.2906335246   -0.1512769434
 C   -0.0027190064   -0.0499443942    0.0091268289
 O    1.1084601038   -0.5329655826    0.1158429787
 C   -1.2771620882   -0.8878172794    0.0382801119
 C   -0.9729279588   -2.3778997733   -0.0119568546
 O   -2.2018662109   -3.0739114511    0.0692412477
 C   -2.0612153782   -4.4826737418    0.0261015087
 C   -3.4670205640   -5.0597512719   -0.0255907886
 O   -4.1729651570   -4.5910908592   -1.1575142650
 H    0.5942340671    1.9008480360   -0.1050348658
 H   -1.1238226652    1.6974443262   -0.1672471594
 H   -1.8346591683   -0.6615172848    0.9558073731
 H   -1.9300907262   -0.6088734915   -0.7970293444
 H   -0.4428135439   -2.6308485689   -0.9422609023
 H   -0.3099251426   -2.6546885618    0.8191348936
 H   -1.4983246981   -4.7811212472   -0.8726521316
 H   -1.5166430920   -4.8512594744    0.9106788509
 H   -3.4175826607   -6.1510616210   -0.0991987770
 H   -3.9923963853   -4.8072324161    0.9096249387
 H   -4.0367605708   -3.6362580777   -1.1662687800