18

 O   -0.0007405017    1.3857791889   -0.2586301977
 C    0.0484771080   -0.0031914639    0.0077531624
 C   -1.3505681645   -0.5546445905    0.1344630302
 C   -2.1500415830   -0.4360979485    1.4418345020
 O   -2.5842393579   -1.8218622257    1.3301386750
 C   -1.7720155853   -2.0266359778    0.1520169962
 C   -2.4757347221   -1.7888770802   -1.1947569147
 C   -3.4881683456   -0.7270781320   -1.0886869488
 N   -2.0774484096   -0.3096390573   -1.1892201940
 H   -0.5748643216    1.4766371256   -1.0310917331
 H    0.5837611428   -0.5492172190   -0.7856532302
 H    0.6054195791   -0.1349696450    0.9411136568
 H   -1.5203586956   -0.2879605648    2.3277402294
 H   -2.9876898130    0.2688067302    1.4722567552
 H   -1.0988735083   -2.8827560449    0.2300005230
 H   -2.3462349152   -2.4036361287   -2.0799171455
 H   -4.0451750295   -0.4815135188   -1.9875920271
 H   -4.0413336671   -0.6070466578   -0.1640206389