21

 C    0.1259498877    1.4875173773    0.1208630101
 C   -0.0325372309   -0.0166669795    0.0272443347
 C    0.2298420366   -0.6758544498   -1.3854048461
 C   -1.2075238111   -1.3396369433   -1.4183942712
 C   -1.2538216185   -2.8771756755   -1.2233818004
 C   -0.5867489858   -3.0026536828    0.1481412379
 C   -0.6681967211   -1.8376744681    0.7970330469
 C    0.3977366312   -0.8771405372    1.2865080640
 C   -1.4037424283   -0.7680251695   -0.0008774429
 H    1.1826856146    1.7775647148    0.0698302561
 H   -0.3954278396    1.9935746229   -0.6994818506
 H   -0.2789813443    1.8730081874    1.0631904763
 H    0.3489937525    0.0876225370   -2.1584047436
 H    1.0771079453   -1.3632412010   -1.4513728355
 H   -1.8442662287   -0.9672348929   -2.2257096197
 H   -2.2818462623   -3.2637222804   -1.2797923198
 H   -0.6746566837   -3.4166754797   -1.9828999324
 H    0.0968374381   -3.8097087935    0.3901393273
 H    1.4198430054   -1.2598769692    1.3607006445
 H    0.1508534382   -0.3170029367    2.1963754493
 H   -2.3389672254   -0.3503355003    0.3778245251