19

 C   -0.0345491741    1.6376814974    0.0296371322
 C    0.1198330349    0.1170155304    0.0685135682
 C    1.3007882872   -0.7489935033   -0.3009480099
 C    2.6121867092   -0.3802787456    0.4105473116
 C    2.5617962799    0.7421047882    1.3731798148
 N    2.0091544387   -0.5650786656    1.7775463439
 C    0.6819999065   -0.8579104432    1.0852839540
 C   -0.1274333181   -1.9315146798    1.7465856829
 H    0.8360145205    2.1378297899   -0.4009670729
 H   -0.8935810365    1.8982422278   -0.5965342615
 H   -0.2203484456    2.0648214348    1.0206915544
 H   -0.7736889347   -0.3643980413   -0.3294975723
 H    1.2773945315   -1.4569311846   -1.1207039380
 H    3.5463292631   -0.8738092507    0.1603548490
 H    3.4885245915    0.9555446909    1.9011960775
 H    1.9227518237    1.6010252252    1.2450817362
 H   -0.5594828270   -1.5659572407    2.6862789060
 H   -0.9473687502   -2.2624486290    1.1021024327
 H    0.4999221898   -2.7956980908    1.9866948210