21

 O   -0.0234298690    1.4198117857   -0.2166471898
 C    0.0110065365    0.0253616880    0.0597209076
 C   -1.4039399885   -0.5073364398    0.0028032563
 C   -2.1547845202   -0.5274778420   -1.3666322770
 C   -2.8876837067   -1.7762666761   -0.8051246243
 C   -1.6176486787   -2.0495088557    0.0443103023
 O   -3.9783746128   -1.4374496676    0.0403672648
 C   -3.8044513242   -0.1901139300    0.7122804523
 C   -2.3341271040    0.1119657195    1.0661249045
 H    0.8701361836    1.7659738219   -0.1395263154
 H    0.6298304432   -0.5096152260   -0.6795771804
 H    0.4424071836   -0.1732717857    1.0556094658
 H   -2.7432145066    0.3409614466   -1.6678424565
 H   -1.4822660394   -0.8063613031   -2.1823157914
 H   -3.2517173426   -2.5452486033   -1.4890193230
 H   -0.8519634530   -2.5875025841   -0.5239742448
 H   -1.7683304035   -2.5243039215    1.0173937119
 H   -4.1977500643    0.6182576717    0.0796467428
 H   -4.4325823194   -0.2324981916    1.6067272534
 H   -2.0720235885   -0.2979935882    2.0493738415
 H   -2.1876456157    1.1953904211    1.1102010795