16

 O   -0.3525014679    0.1977025501    0.4864797650
 C   -0.0822271910    1.2903427252    0.0683799603
 C    1.2852463498    1.8918921854    0.0311894201
 C    1.4418971093    3.3614353697    0.3514643654
 N    1.5249434211    2.9212824967   -1.0165847112
 C    2.9173037548    2.7330854359   -1.5134583580
 C    3.6612021275    1.7879356220   -0.5549137975
 C    2.5507376500    1.1003262887    0.2614334067
 O    2.6704316649    0.1135550448    0.9332425093
 H   -0.8546408493    1.9758584160   -0.3492126465
 H    0.5499430243    3.9274005267    0.6081653512
 H    2.3414386268    3.6568864928    0.8881413248
 H    2.8364502240    2.2922957832   -2.5104477789
 H    3.3882531168    3.7137375433   -1.6183636141
 H    4.2540060063    1.0298238727   -1.0700584069
 H    4.3381162628    2.3035000269    0.1347164204