12

 O   -0.0699318951   -0.0169722532    0.0037600727
 C   -0.0491574058    1.1965380096    0.0066160334
 C    1.1797534307    1.9620571466    0.0001426526
 C    2.2309159629    2.5465869194   -0.0055409319
 C   -1.2887784173    2.0021559771    0.0171308838
 N   -1.4127734500    3.2986959627    0.0213305275
 C   -2.7726364431    3.5168465552    0.0310726521
 C   -3.4095144114    2.3139344104    0.0324657713
 O   -2.4720500310    1.3379542343    0.0236994942
 H    3.1558275766    3.0705354166   -0.0102609910
 H   -3.1950761633    4.5089131257    0.0364027799
 H   -4.4386508230    1.9970241256    0.0387135655