15

 N   -0.0060801854    1.0998903965   -0.6628883429
 C    0.0155481365   -0.0135425130    0.1223732717
 O    0.9772145496   -0.3942736319    0.7577555690
 C   -1.3026281315   -0.7391337905    0.1236674491
 N   -2.6053930733   -0.1096292003   -0.2788422757
 C   -2.9924320344   -1.5230024776    0.0412491831
 C   -1.6875781773   -2.0946293572   -0.5782836267
 O   -1.3568847648   -2.9266381178    0.5586041129
 C   -1.9186028533   -1.7306786136    1.1671158045
 H    0.8512009821    1.6080878122   -0.8069860254
 H   -0.8109365562    1.2994407489   -1.2346189060
 H   -2.9305767690    0.5191943415    0.4600099903
 H   -4.0105971059   -1.9052677998   -0.0249449198
 H   -1.4687051753   -2.4428535206   -1.5860910579
 H   -1.9798867617   -1.6650123868    2.2533607835