15

 O    0.1568582320    0.9604137176    0.3500774230
 C   -0.2615089656   -0.3493828203    0.0268826979
 C   -1.7805146466   -0.4152242834   -0.2339297978
 N   -2.5562610774   -0.0417159743    0.9312065131
 C   -2.7754449085   -0.9107060517    1.9564627687
 O   -2.2271081876   -1.9863728260    2.0744428916
 C   -2.1499417964    0.5128038602   -1.3754117675
 O   -2.9873889060    1.3747832829   -1.2922253102
 H   -0.2916443455    1.2097336326    1.1658464722
 H    0.2757674126   -0.6344854402   -0.8841917796
 H   -0.0174492082   -1.0769044039    0.8101495333
 H   -2.0192978669   -1.4464677378   -0.5380058782
 H   -3.1789478499    0.7449900439    0.7951959218
 H   -3.5045705874   -0.5160555916    2.6902424330
 H   -1.5786209885    0.3421150621   -2.3106845214