16

 N    0.2833683606    1.3266787586   -0.1833701496
 C    0.0005889098   -0.0438335908   -0.0454860271
 C   -1.1360763191   -0.7318774666    0.3190678951
 C   -0.8004105975   -2.1174043833    0.3478173078
 C    0.5214470949   -2.2365188587   -0.0025228364
 C    1.3976766022   -3.4487049415   -0.1057147498
 C    2.1707336036   -3.4954235607   -1.3529459638
 N    2.7958627476   -3.4927546400   -2.3249152020
 N    1.0040264736   -0.9620312556   -0.2268730586
 H    0.4567508258    1.5943120016   -1.1480819188
 H   -0.4873292106    1.8857524611    0.1602478989
 H   -2.1008188588   -0.2930323709    0.5220051649
 H   -1.4617211875   -2.9368718972    0.5864926853
 H    2.1136706779   -3.5164964381    0.7265268901
 H    0.7711628220   -4.3440320528   -0.0456072798
 H    1.9495209956   -0.7259922452   -0.4781430062