15

 O    0.0354520760    1.3640123652   -0.8267606188
 C    0.2572731309    0.1808543772   -0.0768725905
 C   -1.0599796617   -0.3947175451    0.3853083848
 O   -1.8212928002   -1.0899459551   -0.5956120088
 C   -1.3520305909   -1.8492442628    0.5147250642
 C   -0.3201662189   -2.8958030724    0.2327345133
 O    0.3746031225   -2.9483294460   -0.7557189107
 C   -0.1481582496   -3.9792364640    1.3061842274
 O   -0.7901733898   -4.0181786478    2.3224456629
 H   -0.4208676612    1.1059623184   -1.6353803034
 H    0.8158064932   -0.5682182436   -0.6484542069
 H    0.8535337504    0.4761073344    0.7932857335
 H   -1.6521895430    0.2679555946    1.0187384412
 H   -2.1075510851   -2.1449790138    1.2391700460
 H    0.6361049874   -4.7187607890    1.0424007758