19

 C    0.1158424768    1.1921185675    0.2468448658
 C    1.4399617460    1.9096308315   -0.0900249823
 C    2.1893871704    0.8352301018   -0.8313905590
 O    3.3110329565    1.1849218260   -1.5838792024
 C    3.9076195931   -0.0332963386   -2.0325598401
 C    3.5562076495   -1.1213509632   -0.9863669946
 C    2.2784146572   -0.5979405443   -0.3428633930
 C    1.1670601052   -0.1699814245   -1.2911906076
 O   -0.0762270810    0.1554627300   -0.7274312448
 H    0.1638234627    0.7494200980    1.2510270939
 H   -0.7556045934    1.8510926689    0.2102690721
 H    1.2841311395    2.7601174435   -0.7623216586
 H    1.9477895660    2.2714263062    0.8084979595
 H    3.5013184088   -0.3023824868   -3.0175386068
 H    4.9811668786    0.1385784047   -2.1429903093
 H    3.4509301255   -2.1050421093   -1.4541835930
 H    4.3378609491   -1.1958332216   -0.2236099579
 H    2.0379521589   -0.8959964679    0.6721209980
 H    1.0779704107   -0.5747692920   -2.2939733599