19

 C   -0.3150011520    1.4119315085    0.0113714339
 N    0.1250653606    0.0302937319    0.0044222109
 C    1.2226517998   -0.4010685346   -0.8838727793
 C    1.8723161128   -1.1673822803    0.2960728985
 N    2.8312438977   -0.3759647419    1.0656602003
 C    1.8760300410    0.2897550875    1.8190959823
 O    1.9427507684    1.2254433247    2.5714295237
 C    0.7372069292   -0.5825304036    1.2068735009
 C   -0.1902741906   -1.3231382240    2.1353103355
 H    0.4932252366    2.1386930828    0.1978617870
 H   -0.7764036551    1.6480224186   -0.9534457670
 H   -1.0744417732    1.5488839247    0.7873500850
 H    0.8740134475   -1.0151220529   -1.7220242465
 H    1.8594533350    0.4056550319   -1.2750386783
 H    2.1014425611   -2.2273504920    0.1960744098
 H    3.7348858196   -0.0271850049    0.7701700266
 H   -0.8119158808   -0.6113901484    2.6895695566
 H   -0.8496022013   -1.9897186527    1.5728158676
 H    0.3744055737   -1.9074709853    2.8686515826