16

 O   -0.1217069479    1.3315534377    0.1119276430
 N    0.0161178991   -0.0554328743   -0.0640215450
 C   -1.1127755080   -0.6277753388   -0.1048889968
 C   -2.5492878082   -0.2420049271    0.0519123362
 C   -3.3641217432   -0.8624835789   -1.0651142315
 C   -2.9196983807   -1.7489886480    0.0559882385
 C   -1.4475271536   -2.0998060216   -0.1326955424
 C   -0.7925634432   -3.2529351467   -0.7528087982
 O   -0.7763714147   -3.0483430923    0.6700952433
 H    0.7956464470    1.6223761734    0.1547547178
 H   -2.9245405097    0.5657721811    0.6640097857
 H   -4.4146160765   -0.5887893145   -1.0578916455
 H   -2.9376779416   -0.9717026090   -2.0582143019
 H   -3.5937614101   -2.2726402460    0.7199000028
 H   -1.3953684992   -4.0923591773   -1.0969148787
 H    0.1673296005   -3.1212700180   -1.2486754173