18

 O    0.1044380354    1.3967026047   -0.2173925907
 C    0.0490711698    0.0928220144    0.3688126972
 C   -1.3451480856   -0.4847925118    0.2257627325
 C   -2.4288335253    0.2555308919    0.9905241613
 O   -2.6803509584    1.5356389566    0.4412721412
 N   -1.6401035429   -0.9065583440   -1.1526078159
 C   -1.5465930778   -1.9361607020   -0.0877587201
 C   -0.4708729818   -2.8877855785   -0.1582088095
 C    0.4111525384   -3.7041330915   -0.1894381635
 H   -0.0716004521    1.2709120347   -1.1585076853
 H    0.7868680370   -0.5761180094   -0.0870789500
 H    0.3077703505    0.2249371799    1.4239722641
 H   -3.3734841983   -0.2994887151    0.9397634991
 H   -2.1441355702    0.3187713016    2.0541832699
 H   -1.8141383707    1.9473115071    0.3068667999
 H   -2.6187469616   -0.7251999773   -1.3677835636
 H   -2.4856851660   -2.3568575060    0.2676047587
 H    1.1942614295   -4.4206540654   -0.2248960952