17

 C    0.0497602058    1.5871947035    0.1708266887
 N    1.4781146634    2.0627504764    0.1312597186
 C    2.1272108610    0.8443409091    0.5137062766
 N    2.6653254013    0.6303659599    1.6415190469
 C    2.5155353606   -0.8138025964    1.9325664067
 C    1.4050252201   -1.2941651153    0.9776964043
 O    0.0912102587   -0.7203158013    1.2794541709
 C    0.0585113416    0.0283526600    0.0218944994
 C    1.5151364289   -0.3547691479   -0.2158797264
 H   -0.3872639223    1.8523523853    1.1374374477
 H   -0.5256120869    2.0699914701   -0.6233580072
 H    1.7062452082    2.2973747307   -0.8320443239
 H    3.4494935853   -1.3699421950    1.7759044126
 H    2.2351569850   -0.9235844447    2.9850471606
 H    1.3421118760   -2.3759387804    0.8331246928
 H   -0.7285330717   -0.3520527861   -0.6358400519
 H    1.9271851548   -0.6208591678   -1.1883515566