18

 C   -0.0975760517    1.5633171117   -0.0950126481
 C    0.0095083896    0.0483608358   -0.0578378182
 C    0.6995494982   -0.6622765569   -1.2305849959
 N    2.0739952334   -0.1196585365   -1.2942629612
 C    1.7643669650   -1.2179976429   -0.3521981862
 C    1.1402002211   -0.5818730276    0.8970770420
 O    2.0061997482    0.3108538434    1.5619367466
 C    0.5855986669   -1.5741077607    1.8115482253
 C    0.1230695204   -2.3609460304    2.5951769704
 H    0.8699303624    2.0084785552   -0.3315036788
 H   -0.8247890532    1.8775834261   -0.8518270324
 H   -0.4333010736    1.9561000059    0.8707391196
 H   -0.9524654104   -0.4166045038    0.1710117517
 H    0.2298749533   -1.1092896784   -2.0975753251
 H    2.5378769091   -0.5487055731   -2.0943057482
 H    2.2935332335   -2.1617262624   -0.3888801221
 H    1.6220215442    0.5095502004    2.4225083140
 H   -0.2802106765   -3.0634012458    3.2822495167