23

 C   -0.0804788153    1.5660862519    0.0836711516
 C   -0.0554018220    0.0499884648    0.0489562894
 C   -1.3117057951   -0.5820845658   -0.5022082104
 O   -1.4640860071   -0.1788260979   -1.8596985844
 C    1.2565318652   -0.6488904868   -0.2478140724
 C    0.6735469960   -0.6925364614    1.1381624689
 C    1.3393983923   -0.1221487985    2.4009354403
 C    1.2400673380   -1.5399802206    3.0368151388
 C    0.2696574653   -1.9689554676    1.8975756698
 H    0.8627767020    1.9743796715    0.4573550017
 H   -0.2548116501    1.9660712251   -0.9191818029
 H   -0.8836006728    1.9333774490    0.7350058672
 H   -1.2469151535   -1.6781170077   -0.4227599418
 H   -2.1797206671   -0.2607297793    0.0979666456
 H   -2.3200017572   -0.4897677339   -2.1686752254
 H    1.2272626962   -1.5541363240   -0.8473839701
 H    2.1346869717   -0.0321800362   -0.4157516247
 H    2.3423884023    0.2982583689    2.2884029121
 H    0.7126675573    0.6140341547    2.9153961874
 H    2.1895329508   -2.0789773049    2.9934228947
 H    0.8559565910   -1.5960236999    4.0576091932
 H   -0.7780085569   -1.9645644979    2.2170656415
 H    0.4761891390   -2.9244820535    1.4077848697