20

 C    0.2610793587    1.3532500311    0.3531023034
 C   -0.2242051872    0.0069867936   -0.2001490644
 C    0.6082678463   -0.5228144706   -1.3579338446
 C    0.4440139721    0.2102615994   -2.6770004908
 C    1.9921114957   -1.0771480120   -1.0887512717
 O    2.4006670833   -1.1301842144    0.2604862432
 C    0.8687992841   -2.0232783628   -1.4540855849
 O    0.4252178685   -2.8932237220   -0.4585966791
 H    1.2828222554    1.2663549479    0.7327647135
 H    0.2488818121    2.1374843126   -0.4111116162
 H   -0.3803379383    1.6878479149    1.1747689921
 H   -0.2424380216   -0.7321300044    0.6044056016
 H   -1.2623652667    0.0988866966   -0.5453617702
 H    0.7557212416    1.2579727612   -2.6007075459
 H    1.0416081290   -0.2506013386   -3.4708972826
 H   -0.6031727263    0.1922964442   -3.0004192236
 H    2.7904846363   -0.8548278228   -1.7946375813
 H    3.1638333921   -1.7162112385    0.3124423383
 H    0.8469944412   -2.4877153712   -2.4364714500
 H    0.9487476735   -2.6853817041    0.3281439731