20

 C    0.0353249476    1.4794475919    0.1199243724
 C   -0.0757646872   -0.0329731292   -0.0550494488
 C   -1.5463827648   -0.4620316890   -0.1409994075
 C    0.7644942945   -0.5218816119   -1.2384213156
 C    0.8928934774   -2.0330314144   -1.1872294271
 O    1.3272496576   -2.4822954848    0.0999374293
 C    0.9314100557   -1.8517260321    1.2417118627
 N    1.0494218570   -2.3836011251    2.3814841355
 O    0.4908753396   -0.5804336888    1.1624218345
 H    1.0816270769    1.7763754246    0.2294337269
 H   -0.3874745053    1.9951742270   -0.7474626915
 H   -0.5071446704    1.7978906634    1.0139299870
 H   -2.0277596862   -0.0158644057   -1.0169110343
 H   -1.6537643879   -1.5480657625   -0.2072766980
 H   -2.0780103814   -0.1306828969    0.7544089278
 H    0.3087195807   -0.2174531961   -2.1859010688
 H    1.7582355535   -0.0652180745   -1.1809862234
 H   -0.0588987109   -2.5223760596   -1.4302718428
 H    1.6431289316   -2.3979900060   -1.8931158161
 H    1.4506980219   -3.3134259504    2.2768438978