16

 O   -0.1294307577    0.1351385981   -0.6095661718
 C   -0.0300624444    1.2097781711   -0.0557177981
 N    1.1382545919    1.7821069361    0.3429427538
 C    2.4212425120    1.1482694094    0.2115511502
 C    3.5586877734    1.8659632671   -0.5229500905
 C    4.1877024988    2.7659965726    0.5489781371
 O    3.4039660937    2.6437833424    1.7427638240
 C    3.3529493643    1.2131118550    1.4526623921
 C    4.5810534269    1.3331259685    0.4840912269
 H   -0.9027078596    1.8504629689    0.1803874006
 H    1.1217522369    2.6612988687    0.8380263827
 H    2.2759944693    0.1326232834   -0.1544320876
 H    3.6795682925    2.0301100832   -1.5854273265
 H    4.7214326700    3.6873229031    0.3606512808
 H    3.2206435813    0.5938463552    2.3364782419
 H    5.5157439908    0.8045170473    0.3737509445