19

 O    0.0479375178    1.4569761741   -0.0225825409
 C   -0.0119902383    0.0469636287   -0.0011490741
 C    0.6591041604   -0.5099938449    1.2705926978
 N    1.0437036609    0.5179562848    2.2500839633
 C   -0.1237740138   -0.3525627973    2.5205127659
 C   -1.5025767686    0.2734917408    2.3578897201
 N   -2.2223236256   -0.3809695253    1.2458944835
 C   -2.6087849664    0.4511573457    0.1028381903
 C   -1.4542681087   -0.4725270663   -0.0075898628
 H    0.5519690595    1.7073526037    0.7711722770
 H    0.5024413393   -0.3501694573   -0.8868786595
 H    1.2976923105   -1.3792201376    1.1497668839
 H    1.8543792518    0.2264812066    2.7878202471
 H   -0.0069485991   -1.1038592225    3.2958948668
 H   -2.0966683710    0.1337176289    3.2660696873
 H   -1.3830287527    1.3520327494    2.2006576296
 H   -3.5614517332    0.2003854880   -0.3565792511
 H   -2.3702440844    1.5105430791    0.1408709176
 H   -1.5765582383   -1.4228216484   -0.5257190216