14

 C   -0.0604271338    1.5194850461    0.0226720921
 C   -0.0154588896    0.0245351927    0.0082445744
 C   -0.0097612388   -0.8089396163   -1.0663295495
 O    0.0184603257   -2.1081590770   -0.6871854716
 C    0.0414949437   -2.1171778722    0.6818378199
 C    0.0172746272   -0.8422329426    1.1618504040
 N   -0.0598648625   -0.3986974009    2.4916553996
 H    0.8390517000    1.9536655521    0.4786879607
 H   -0.1361527224    1.9214818738   -0.9912505199
 H   -0.9192234295    1.8874769546    0.5960691634
 H   -0.0256307304   -0.6263149770   -2.1289330932
 H    0.0603736671   -3.0869088679    1.1497634147
 H    0.1930608131   -1.1154593837    3.1597378107
 H    0.5095284403    0.4217593783    2.6596670647