19

 N   -0.0966313612    1.2841252937    0.0503132836
 C   -0.0542094543    0.0236873987    0.0175873983
 O   -1.1972709441   -0.6892051709    0.0257969657
 C   -1.0583622555   -2.1114935732   -0.0154258870
 C   -2.4416643528   -2.7032326198    0.0141379958
 C   -3.6086200254   -2.5123443209   -0.9817635750
 N   -4.2224653012   -3.4763565558    0.0518121949
 C   -2.8585712491   -4.1899790148   -0.0122166390
 C   -3.5403521964   -2.5684813056    1.0933582332
 H    0.8474496048    1.6642194368    0.0388283494
 H    0.8515472838   -0.5984018785   -0.0184385217
 H   -0.5314717162   -2.4155208158   -0.9311879307
 H   -0.4737792092   -2.4616552561    0.8472942300
 H   -4.0973898184   -1.5363697852   -1.0153335709
 H   -3.5114030056   -2.9490480450   -1.9798081018
 H   -2.7042988428   -4.7535820540   -0.9368539976
 H   -2.6450071943   -4.8022198032    0.8686806172
 H   -3.3785628468   -3.0582783859    2.0578252294
 H   -4.0241631252   -1.5966309944    1.2116097962