17

 O    0.0650497957    0.0618126120   -0.3869467405
 C   -0.0204816194    1.1876964995   -0.0092014097
 C   -1.3109245633    2.0283302426    0.2187722543
 C   -0.8137955999    3.3282382500    0.7834840089
 C   -0.0196953106    3.3162084985    2.0744411796
 C    0.7028745293    3.2010539333    0.7732497096
 C    0.8688285745    4.5071636198   -0.0044331135
 C   -0.6908522925    4.6915288822    0.0670240889
 O    1.0988096301    1.9369276981    0.3254724692
 H   -1.8110346879    2.1493623615   -0.7473761431
 H   -1.9844624202    1.4493467005    0.8569893592
 H    0.0547643929    4.2272101535    2.6616710624
 H   -0.0661095817    2.4042249532    2.6598015342
 H    1.5023641910    5.2724461821    0.4526913703
 H    1.2117127346    4.3271533494   -1.0248659074
 H   -1.1593392139    4.7018290474   -0.9192346731
 H   -1.0571196989    5.5519589766    0.6341725506