18

 C   -0.1051316482    1.4939325595    0.0646975980
 C   -0.0164447543   -0.0004246431    0.0684639151
 O   -1.2572915629   -0.7178013408    0.1867301211
 C   -0.4207708297   -1.8773420434    0.4756690987
 C    0.7113304184   -0.9408481002    1.0534792419
 N    1.9049156007   -1.1121974417    0.1758893714
 C    0.9347729519   -0.8088396448   -0.9391424571
 C    0.1738282323   -2.1589607547   -0.9311077593
 O    0.9960118027   -3.2820697617   -1.0590029799
 H    0.8954090346    1.9386932573    0.0623930288
 H   -0.6333329530    1.8437765296   -0.8283891828
 H   -0.6452177274    1.8511659282    0.9461748066
 H   -0.9148054011   -2.6714996708    1.0310405977
 H    0.8308772091   -0.8065960619    2.1274181576
 H    2.5262296826   -0.3182175637    0.3170290261
 H    1.3342156817   -0.4177501696   -1.8733776454
 H   -0.6268562391   -2.2178425849   -1.6697631716
 H    1.8065478617   -3.0466651734   -0.5785116867