21

 C    0.0015248638    1.5717125378    0.0849511570
 C   -0.0085317589    0.0438207655   -0.0001619590
 C    0.6416926904   -0.5943535938    1.2399713112
 N   -1.3782891740   -0.4042391771   -0.2418980272
 C   -1.6219891538   -1.7400320006   -0.5866426618
 C   -0.7446666524   -2.6532335259   -1.1418335962
 N   -1.4565852316   -3.8120407135   -1.3955329456
 C   -2.7532449124   -3.6561746808   -1.0024385017
 C   -2.8939328247   -2.3841232907   -0.4969048298
 H    1.0203867553    1.9500616664    0.2109470263
 H   -0.4302356184    2.0128974119   -0.8171109117
 H   -0.5858140342    1.9150601217    0.9459990508
 H    0.5708662438   -0.2483147209   -0.8860476505
 H    0.5859319202   -1.6849074468    1.1904809431
 H    1.6950195623   -0.3064409934    1.3275337711
 H    0.1277317806   -0.2683316409    2.1522325902
 H   -2.0141988810   -0.0767602111    0.4743235658
 H    0.3016209049   -2.5816416278   -1.3842173666
 H   -1.0651755859   -4.6493586052   -1.7860508236
 H   -3.4713387768   -4.4527993450   -1.1124838972
 H   -3.8041414571   -1.9473863497   -0.1140242845