17

 C   -0.6193692177    1.4018557079   -0.0083470169
 C   -0.0031067704    0.0192781251   -0.0304740247
 O    1.2264734694   -0.0302660893   -0.8139130237
 C    1.9887329727   -0.5809535383    0.2779784996
 C    3.1535084040    0.2336103168    0.6310519363
 N    4.0649444773    0.8734417944    0.9397178816
 C    0.7645473241   -0.4777636013    1.1984780044
 C    0.6567271118   -0.0849735979    2.6143732116
 N    0.4017065403   -1.4762441196    2.1797033621
 H    0.0862542924    2.1369010855    0.3876000735
 H   -0.9035113372    1.7015394197   -1.0215773593
 H   -1.5232153227    1.4080210595    0.6108228319
 H   -0.7186208117   -0.7221687756   -0.4139513324
 H    2.3088127231   -1.6118913908    0.0840062761
 H    1.5557991957    0.0509566721    3.2085229111
 H   -0.1839693096    0.5392801952    2.9061681331
 H   -0.5969718515   -1.6697117234    2.1442025758