19

 C   -0.2573366913    1.5961922293   -0.0876711124
 C    0.0330360751    0.1054798252   -0.0312253364
 C    1.1781996795   -0.5965486103   -0.7858576708
 C    2.4274040486    0.2497361952   -0.3305461757
 C    2.1564362770    0.0539682462    1.1822147918
 O    1.6194800596    0.9118590390    2.2595514553
 C    0.6545175523   -0.1551534942    2.5703517796
 C    0.8098382580   -0.5950650561    1.1056984147
 O    1.0468321920   -1.7161248068    0.1939513170
 H    0.6027244583    2.2135884097    0.1724611615
 H   -0.6035503759    1.8791220494   -1.0881699616
 H   -1.0580764827    1.8480171351    0.6155815065
 H   -0.8804750579   -0.4745098517   -0.1914115186
 H    1.1150347539   -0.9356762046   -1.8193313339
 H    3.3830729070   -0.1896934991   -0.6215285900
 H    2.3789018274    1.2681796809   -0.7194782827
 H    2.9177506235   -0.5944056862    1.6291007588
 H    1.0564656258   -0.8492072598    3.3181775221
 H   -0.3107257802    0.2468577988    2.8893994447