20

 C   -0.1716598474    1.2730485663   -1.0718227752
 C   -0.0935470715    0.2132044563    0.0050244034
 C    0.9168033031   -0.8849665376   -0.1365299237
 N    1.0962611295    0.1462023765    0.8846344077
 C   -1.4120332456   -0.1184458320    0.6661494127
 O   -2.4538939522    0.2295868780    0.1418270093
 C   -1.3896438283   -0.8898007107    1.9395704337
 C   -2.5517872112   -0.6650650774    2.8948885695
 C   -2.4805852628   -1.9388275566    2.1280996533
 H    0.7976045056    1.3954540536   -1.5655580266
 H   -0.9182558429    1.0029671894   -1.8217189719
 H   -0.4711671573    2.2368850347   -0.6480877343
 H    0.7035068666   -1.8792715311    0.2456962355
 H    1.5355785475   -0.8644738941   -1.0300138375
 H    1.7769064529    0.8362545060    0.5761190687
 H   -0.4168846422   -1.0793041947    2.3717263659
 H   -2.3231456436   -0.6737739615    3.9542494765
 H   -3.2837395989    0.0673218929    2.5745240963
 H   -3.1662027527   -2.0582542414    1.2969047729
 H   -2.2022110884   -2.8515106867    2.6425331639