18

 C   -0.3525012170    1.2162045531    0.2636552889
 O   -0.2280793243   -0.1950043941    0.3669813205
 C    0.9337684394   -0.6189849288    1.0174023979
 O    0.9187111159   -0.2351216069    2.3998651791
 C    0.3269544098   -1.0192157461    3.3502917927
 N    0.1877424373   -0.6132382330    4.5403542742
 C   -0.1240108818   -2.4087277030    2.9527954711
 C    0.5666555264   -2.9336593373    1.7279381431
 C    1.0623052453   -2.1008952866    0.8224967469
 H    0.5056768445    1.6521463842   -0.2686012021
 H   -1.2625043861    1.4104088046   -0.3070679081
 H   -0.4331232577    1.6872147091    1.2495690869
 H    1.8057574249   -0.0779159229    0.6223196511
 H    0.5335304105    0.3446633684    4.6267209203
 H    0.0151277989   -3.0591068219    3.8191388180
 H   -1.2079933584   -2.3774091398    2.7725264319
 H    0.6224754624   -4.0099178216    1.5956782033
 H    1.5347969599   -2.4376629077   -0.0929043459