18

 C   -0.0687468946    1.4446647810    0.0612159976
 C   -0.0031796818   -0.0069998893    0.0086383039
 C    0.0692485882   -1.2119826669   -0.0353847788
 C    0.0860179241   -2.6246960277   -0.0848574060
 C    1.1591274401   -3.4190284006   -0.2596103678
 C    0.7813679473   -4.8535295884   -0.1695793517
 N    0.2235347533   -5.2173425466    1.1706289093
 C   -0.6903197037   -4.8856563508    0.0587253308
 C   -1.1921565050   -3.4484221945    0.0860526591
 H    0.5587171412    1.8430643468    0.8668143292
 H    0.2772004054    1.8926690678   -0.8774890817
 H   -1.0932022495    1.7914855623    0.2359065569
 H    2.1724760667   -3.0677636155   -0.4055627450
 H    1.3114497068   -5.6136228701   -0.7331074583
 H    0.2527696365   -6.2321988555    1.2625299835
 H   -1.3176010372   -5.6682229842   -0.3542425641
 H   -1.6984214596   -3.2070936290    1.0266463115
 H   -1.8994674182   -3.2469849088   -0.7276010384