22

 C    0.5519788569    1.4226741491    0.0656444266
 N    0.5499051421   -0.0242766929   -0.0274964099
 C    0.0795648714   -0.6907770306   -1.1214379804
 O   -0.3831786787   -0.1231116905   -2.0972386179
 C    0.1873659047   -2.2177640357   -1.0577136392
 C   -1.1967427173   -2.8264948137   -1.3322604748
 C    1.2594073995   -2.6611602189   -2.0764959285
 C    1.5685545983   -4.1598909238   -2.0708628247
 O    2.6746264723   -4.4815258403   -2.9008174489
 H    1.5696383535    1.8162514849    0.1676608467
 H    0.1125665246    1.8045110161   -0.8565588140
 H   -0.0442484973    1.7688448611    0.9172771378
 H    0.9172101852   -0.5597264750    0.7408269028
 H    0.5180822645   -2.5199030474   -0.0542028153
 H   -1.1684321497   -3.9187371073   -1.3083949489
 H   -1.9235953968   -2.4954581543   -0.5837318218
 H   -1.5554346839   -2.5008584247   -2.3120410326
 H    0.9321649892   -2.3493268974   -3.0766234240
 H    2.1976147897   -2.1306252381   -1.8736662613
 H    1.8558388979   -4.4813565631   -1.0627056484
 H    0.6809704754   -4.7442927276   -2.3551429069
 H    2.4426787286   -4.2395634402   -3.8032271563