17

 O   -0.8480100989    1.5994183005    0.5351425489
 C    0.0899153217    1.0952970188   -0.0250510621
 C    1.3236675343    1.8815248837   -0.4984345299
 O    2.1918965618    1.2676692994   -1.0761707987
 C    1.3389010538    3.3543931618   -0.1889846772
 C    1.5778632036    3.7804969690    1.3157527872
 C    2.7559251413    4.6424395604    0.8461699445
 C    3.7791071277    3.7896009162    0.1564511410
 C    2.5473182060    4.1930206327   -0.6046120203
 H    0.1532980672    0.0117119906   -0.2628298047
 H    0.3870440337    3.7778817817   -0.5211472742
 H    0.7315738576    4.3435635081    1.7095659847
 H    1.8247383870    2.9792460351    2.0195517837
 H    2.9844011184    5.6317033874    1.2218996327
 H    4.6843208476    4.3058045972   -0.1463439860
 H    3.9366942787    2.7561363719    0.4505518976
 H    2.6040574685    4.7753666154   -1.5154007370