19

 C   -0.6520046884    1.2695019601   -0.0058853214
 C    0.1341389972   -0.0268327430   -0.1215184568
 C    1.5226055677    0.0048469230   -0.8280953108
 C    2.0736043366   -0.8731013113    0.2993023575
 O    3.0618740930   -1.5245376887    0.4489145764
 C    0.7995472391   -0.6495139236    1.1799868505
 C    1.1093048341    0.3563128117    2.3065856388
 C    0.1679042799   -1.8466978662    1.6953092540
 C   -0.3607031772   -2.8464053249    2.1053692818
 H   -0.0502527714    2.0780372169    0.4205849927
 H   -0.9917417427    1.5979157615   -0.9938479908
 H   -1.5391100531    1.1409788864    0.6229254963
 H   -0.4918427585   -0.7973490239   -0.5784418911
 H    1.5994612083   -0.4089565135   -1.8361230819
 H    1.9886575962    0.9971229764   -0.8267506993
 H    1.6370335506    1.2356494725    1.9251358425
 H    0.1863573559    0.6885682926    2.7894772980
 H    1.7421545332   -0.1204429202    3.0587684720
 H   -0.8199670505   -3.7315478458    2.4702710216