21

 C    0.0180678521    1.6076030719   -0.0152911267
 C    0.0091714087    0.0752238348   -0.0422554453
 N    0.6684968169   -0.4896942600   -1.2068201018
 C    0.0803214856   -0.7767247532   -2.4281938141
 C   -1.3633045319   -0.5183932999   -2.7100252509
 C    1.0508211281   -1.3224212052   -3.2364656293
 C    2.2697856024   -1.3543784626   -2.5039493743
 C    2.0072178253   -0.8334559827   -1.2577480248
 N    2.8076557053   -0.6873620817   -0.1011627033
 H    1.0424689684    1.9924088585   -0.0040328932
 H   -0.4871109687    2.0246274978   -0.8913561182
 H   -0.4919199277    1.9745670092    0.8813842516
 H    0.5255522418   -0.3158810119    0.8381847578
 H   -1.0201899019   -0.2943171390   -0.0172294979
 H   -1.6361902693    0.5404754278   -2.6142745974
 H   -1.5875883891   -0.8219217462   -3.7355726400
 H   -2.0343088506   -1.0835345868   -2.0494983319
 H    0.8970753945   -1.6560128876   -4.2521144715
 H    3.2298374992   -1.7102547897   -2.8466947396
 H    3.2013697472    0.2457291170   -0.0135079154
 H    3.5814796237   -1.3401981003   -0.1264787839