19

 C    0.4893735807    1.3370007639    0.0895138901
 O    0.5307021885   -0.0616657482   -0.0676764467
 C   -0.1213785569   -0.5015265470   -1.2389972329
 C    0.0647776824   -2.0091558078   -1.2998230544
 O   -0.7545409500   -2.6635909042   -2.3199333587
 C    0.3825854106   -3.4329696111   -2.7519656082
 C    1.3586371062   -2.5094658531   -3.3829353791
 O    0.9449879709   -1.3895069562   -4.1022499328
 C    1.3361835822   -2.6318002605   -1.8651387050
 H    0.9812548067    1.8562183272   -0.7476241258
 H   -0.5451615098    1.7081955315    0.1630535889
 H    1.0176194930    1.5775813006    1.0152445284
 H   -1.2018191059   -0.2756899421   -1.2005335998
 H    0.2995574292   -0.0184880788   -2.1307803351
 H   -0.1841962236   -2.4322283445   -0.3192237903
 H    0.2298972149   -4.4900683218   -2.9383783434
 H    2.2279510459   -2.9824761548   -3.8319630633
 H   -0.0179085978   -1.3638699339   -4.0177888647
 H    2.1932730929   -2.9447760091   -1.2847599972