23

 C   -0.3084571813    1.4216078245   -0.0117842992
 C    0.0591675782   -0.0671347279    0.0902041684
 C    0.7759729681   -0.5766644480   -1.1299877831
 C    2.1807395234   -0.1537158672   -1.5800118680
 C    2.4416826768   -1.6069370208   -2.0937652087
 C    1.0332555493   -2.0150541459   -1.6451840754
 C    0.6609084135   -3.3586563705   -1.0879686856
 C    0.0449080440   -1.1204279380   -2.3420443536
 O   -1.2916106846   -1.5030469472   -2.1670944716
 H    0.5825170997    2.0416624683   -0.1566337667
 H   -0.9774461021    1.6096984702   -0.8594129761
 H   -0.8128521070    1.7686919112    0.8953865262
 H    0.6880411627   -0.2228364178    0.9767783183
 H   -0.8474400178   -0.6615913393    0.2482550793
 H    2.2282739249    0.6466070187   -2.3275063050
 H    2.8331259033    0.1162811742   -0.7449432200
 H    2.6583798168   -1.7220721894   -3.1620121719
 H    3.2269987643   -2.1122244370   -1.5255513439
 H    1.2771081730   -3.6146500066   -0.2184565396
 H   -0.3893181592   -3.3822467195   -0.7893161228
 H    0.8097989267   -4.1440322771   -1.8397994423
 H    0.2717673165   -0.7305396810   -3.3401450875
 H   -1.8281478292   -0.7046293640   -2.1268119011