16

 C   -0.0038093988    1.4911286219    0.0747648214
 C    0.0121459394    0.0047238026   -0.0073695256
 C   -0.0131653448   -0.7497515092   -1.1288677760
 C   -0.0606473747   -0.2591510965   -2.4612340325
 N   -0.0999665350    0.1456681487   -3.5452223796
 C    0.0148465094   -2.2068627561   -0.7991813714
 O   -0.0003238775   -3.1244787848   -1.5777136878
 C    0.0669014511   -2.3042630558    0.7313252887
 C    0.0606147535   -0.8518875928    1.2365564252
 H    0.8866107602    1.8518596883    0.6043253121
 H   -0.0400526978    1.9569787087   -0.9116212218
 H   -0.8686747537    1.8299932280    0.6583915415
 H   -0.7898940898   -2.8859839898    1.0819456646
 H    0.9648331847   -2.8561452901    1.0226071167
 H    0.9489287687   -0.6029642404    1.8299060719
 H   -0.7999399849   -0.6284972527    1.8790854727