19

 C    0.3186739305    1.1211269544   -0.7306850036
 C    0.0475770367    0.0023090691    0.2783551687
 O    0.2573355724    0.4501902952    1.6192052535
 C   -1.3176004800   -0.6136376320    0.1319949779
 C   -2.1981165002   -0.5689114885   -0.9342009092
 N   -3.2908967949   -1.2923577315   -0.5839519148
 C   -4.5102979844   -1.4824647851   -1.3391635176
 N   -3.1898304928   -1.8012714176    0.6597518835
 C   -1.9986749688   -1.3983804699    1.0923965877
 H    1.3052029545    1.5525367172   -0.5441814694
 H    0.2953449018    0.7439541780   -1.7586267572
 H   -0.4307222427    1.9157868120   -0.6417946953
 H    0.8140301304   -0.7725403293    0.1451659929
 H   -0.4830023285    1.0251195574    1.8447146401
 H   -2.1303295326   -0.0930178900   -1.8997461846
 H   -4.3118153674   -1.2934110987   -2.3958879515
 H   -4.8506272374   -2.5115260358   -1.2121670864
 H   -5.2989421744   -0.8049752255   -0.9951936705
 H   -1.6566851220   -1.6774085794    2.0778743157