14

 C    0.0562645247    1.3934348325    0.1095700775
 N   -0.1835581542   -0.0161757347   -0.1215403344
 C    0.5377142645   -0.6440295392   -1.1258897115
 C    1.1842519645   -0.0958328027   -2.2118124386
 N    1.6823089206   -1.1892119227   -2.9100137388
 C    1.3329781525   -2.3026802562   -2.2230964718
 N    0.6422889357   -2.0153251584   -1.1404596948
 H    1.1173357600    1.6392470646    0.2837499670
 H   -0.2823796874    1.9759143494   -0.7554907273
 H   -0.5255686874    1.7221750869    0.9737723720
 H   -0.2180983563   -0.5831153648    0.7135091041
 H    1.3289356415    0.9137729300   -2.5522362264
 H    2.2130262141   -1.1531597248   -3.7628662507
 H    1.6053575273   -3.2951424399   -2.5495347064