15

 C    0.0989150163    1.5139337923    0.0077199695
 C   -0.0691040570   -0.0050162124    0.0030510212
 C   -1.4946791930   -0.4430366260    0.0136638527
 N   -2.5368280135    0.2831223567    0.0247107537
 C   -3.6665270658   -0.6371803508    0.0314016411
 C   -3.0513869144   -2.0323206258    0.0211832959
 O   -3.5360481038   -3.1189490631    0.0226346217
 O   -1.6770670922   -1.8183970439    0.0108869564
 H    1.1603420481    1.7749291168   -0.0007369686
 H   -0.3770238616    1.9631058065   -0.8671407130
 H   -0.3611947429    1.9559581876    0.8946133592
 H    0.4107347496   -0.4561484024   -0.8751961870
 H    0.4259706450   -0.4632874920    0.8690439250
 H   -4.2949634554   -0.5006594331    0.9183296094
 H   -4.3102886694   -0.4946625905   -0.8435063472