13

 C   -0.0412404339    1.4079548675    0.0566491868
 O    0.0220535647   -0.0284970278   -0.0359147463
 C    0.6266359303   -0.5231410158   -1.0943586100
 N    1.1475512009    0.1998102481   -2.0212596707
 C    1.7531069356   -0.4675975411   -3.0789110124
 O    2.2805872528    0.0849024481   -4.0162644876
 C    1.7080803440   -1.9524213216   -2.9806269921
 N    1.1756136845   -2.6253407544   -2.0339688296
 O    0.5863606812   -1.8659258808   -1.0059192122
 H    0.9648958787    1.8301919674    0.0819473345
 H   -0.5826029887    1.8186879746   -0.7974290014
 H   -0.5714704272    1.6051013180    0.9871873527
 H    2.1607780870   -2.5443401422   -3.7704800716