16

 C   -0.6076539168    1.3852373312   -0.2230938515
 N   -0.0705653913    0.0514935298   -0.0410872904
 C    0.2139628588   -0.6063367471   -1.0783736179
 N    0.7451028856   -1.9209445396   -1.0159125524
 C    0.9567305483   -2.5002760708    0.2306795461
 O    1.4031272976   -3.6116827458    0.4301430266
 C    1.0212621533   -2.5461877573   -2.2951711614
 N    1.5246716000   -3.7903842248   -2.2103221385
 O    0.7963267165   -1.9467300624   -3.3250236290
 H    0.0398963864    2.1091992354    0.2836598730
 H   -0.7087687652    1.6806688110   -1.2782284041
 H   -1.5913855585    1.4484062739    0.2549539861
 H    0.0967007394   -0.2723017775   -2.1100778751
 H    0.6639986501   -1.8136895573    1.0340892030
 H    1.6818689893   -4.2195370340   -1.3066939030
 H    1.7273386065   -4.2542655149   -3.0787612215