17

 C    0.0507870475    1.5673244956   -0.0937022077
 C   -0.0693313753    0.0409171447    0.0519206728
 C    0.6678985322   -0.5036063583    1.2466470979
 C    0.0566257568   -0.9788840957    2.3506773727
 O    0.7130542245   -1.4456466822    3.4180603658
 C    2.1151041378   -1.4414052380    3.4409142019
 N    2.6348155666   -1.8580183915    4.5158400020
 N    2.7920920410   -0.9995633848    2.3088104511
 C    2.1082920542   -0.5628470747    1.3031986108
 H    1.0967157800    1.8783733854   -0.1838707499
 H   -0.4791233878    1.9148556358   -0.9855565203
 H   -0.3724322843    2.0769161452    0.7772702070
 H   -1.1264536354   -0.2381728524    0.1249377128
 H    0.3104038627   -0.4402356852   -0.8586377818
 H   -1.0189204808   -1.0376932917    2.4850865196
 H    3.6473380074   -1.8178053477    4.4131271857
 H    2.6796285930   -0.2279255244    0.4350772197