15

 C   -0.1042911402    1.4910006368    0.1004469211
 C   -0.1025263596    0.0011605729    0.0303756512
 N   -0.1487228429   -0.6613041443   -1.0899683431
 O   -0.1301706936   -1.9815363851   -0.7562498462
 N   -0.0707247443   -2.1649739379    0.6103128200
 C   -0.0532697415   -0.9527846127    1.1034250067
 N    0.0030989676   -0.6075330382    2.4386221103
 C    0.0526441351   -1.4391731947    3.5461637064
 N    0.0526268986   -2.7034086378    3.4703320872
 H    0.8020727782    1.8681523681    0.5882207811
 H   -0.1491678265    1.9096018387   -0.9060945299
 H   -0.9675527394    1.8624421413    0.6647756359
 H    0.0081227391    0.3805931009    2.6270275948
 H    0.0905464459   -0.8443377394    4.4670348602
 H    0.0935567534   -3.1123761987    4.4014235244