16

 O    0.7868935624   -1.6524191357   -0.1832680583
 C   -0.0958896168   -0.8202769862   -0.8959074385
 C   -1.4472290049   -0.6914523982   -0.2021673094
 C   -2.4029511001    0.3294166923   -0.7921985092
 C   -1.8979909978    1.7533755691   -0.6315532067
 O   -1.8821302332    2.5736822067   -1.5118288062
 C   -1.9464952759   -1.8089687502    0.6066030485
 O   -1.3380111731   -0.6643162403    1.2335183155
 H    0.7424206626   -1.3578736098    0.7361627330
 H    0.3253893068    0.1895067385   -1.0411473137
 H   -0.2317945202   -1.2585264290   -1.8910416705
 H   -2.5884270732    0.1375323728   -1.8535333559
 H   -3.3595230778    0.2646416962   -0.2579519439
 H   -1.5482846917    1.9969878980    0.3959539607
 H   -3.0160783484   -1.9131703160    0.7787607319
 H   -1.3604775088   -2.7222071680    0.6630087127