19

 C   -0.1650189465    1.3328345365    0.0300934649
 C   -0.3392819515   -0.1099564442   -0.4523751633
 C    0.8451211855   -0.5727046214   -1.2840264874
 O    0.5921764780   -1.9319683938   -1.6948582743
 C    1.5293181335   -2.4919598366   -2.4714333092
 O    2.5456064961   -1.9492645358   -2.8292383270
 C    1.1903358010   -3.9076489884   -2.8416314963
 C    0.5702099562   -4.8266751620   -1.8671859580
 O   -0.1839078008   -4.2725909390   -2.9335367625
 H    0.7296423489    1.4410008622    0.6528264533
 H   -0.0684671271    2.0262495654   -0.8123026088
 H   -1.0249815357    1.6510973716    0.6256333175
 H   -0.4576087816   -0.7843557794    0.4035054287
 H   -1.2510979313   -0.2028527201   -1.0528464845
 H    0.9840400891    0.0459576617   -2.1768585012
 H    1.7809678450   -0.5413161243   -0.7154012413
 H    1.8418406900   -4.3053267595   -3.6158436921
 H    0.7880495082   -5.8909379426   -1.9412030702
 H    0.3209701329   -4.4534367504   -0.8765187485