16

 O   -0.3038785953    0.2624604849   -0.4794333750
 C   -0.0901789213    1.3358119072    0.0321291779
 C    1.2526644957    1.9642300494    0.0844908502
 C    1.3581808797    3.4852101689    0.0267926348
 C    1.6985910780    2.7862015828    1.2972050355
 C    0.8388728690    2.9352016763    2.5153298034
 C    0.5261650634    4.2576268003    3.0774065883
 O   -0.4537077392    3.5171799053    2.3441068540
 H   -0.9066476040    1.9299592650    0.4935743084
 H    2.0215530334    1.3867611938   -0.4175006430
 H    2.1503060206    3.9057942570   -0.5809557812
 H    0.4204663946    4.0307802335    0.0105878565
 H    2.7530273332    2.6699917861    1.5348755401
 H    0.8521608068    2.0869876727    3.2014335726
 H    0.3278406915    4.3616261113    4.1425423083
 H    0.9024187640    5.1486094455    2.5778468791