15

 C   -0.0405758006    1.4143803044    0.0833400060
 N    0.0723628425   -0.0246836914   -0.0264169867
 C    0.5779084632   -0.6336144983   -1.1273838185
 O    0.9830642347   -0.0588919145   -2.1208924508
 C    0.6125191945   -2.1502716807   -1.0484679519
 N    0.1685497347   -2.6935044857    0.0314647859
 O    0.2347931039   -4.0679329704    0.0226304237
 C    1.1288036118   -2.8613701022   -2.1637979170
 C    1.5634268529   -3.4773132241   -3.1009206269
 H    0.5475659829    1.7966718453    0.9252591069
 H    0.3412736248    1.8465797579   -0.8422325171
 H   -1.0835798058    1.7225212005    0.2176854645
 H   -0.2283001700   -0.6205040325    0.7287882814
 H   -0.1280335537   -4.3078337644    0.8838672107
 H    1.9498879143   -4.0082099937   -3.9359472100