20

 C   -0.0293877613    1.5629943759   -0.4306415140
 C    0.0126903793    0.1595530684    0.1850240699
 C   -1.3548047994   -0.4885966111    0.2495846291
 C   -1.9340607409   -1.2313162549   -0.9486555263
 C   -1.5269328821   -1.9749913437    0.2835046186
 C   -0.4199212617   -3.0322394958    0.3838150664
 N   -0.9770110218   -4.0665347278    1.2750313339
 C   -2.1324031579   -3.6556371352    1.5932592254
 O   -2.5921588765   -2.4771872654    1.1109597112
 H    0.9698831148    2.0067779377   -0.4734151190
 H   -0.4307798451    1.5329476148   -1.4488654162
 H   -0.6676176911    2.2316377843    0.1570001996
 H    0.6923602250   -0.4739201194   -0.3989855252
 H    0.4396503432    0.2135562262    1.1949372102
 H   -2.0898413273    0.0553531446    0.8387670225
 H   -2.9950176818   -1.1315987740   -1.1488052383
 H   -1.3103304929   -1.3480458983   -1.8310148824
 H   -0.1691105174   -3.4736195474   -0.5873557688
 H    0.5080416412   -2.6364162343    0.8120904743
 H   -2.8276562362   -4.1732136246    2.2448116191