23

 C    0.0160689903    1.5854483847    0.0654501658
 C    0.0010120121    0.0507008804    0.0359684008
 C   -1.3957651224   -0.5260692079    0.0597149921
 C   -2.3377535831   -0.4224415976    1.2737803211
 C   -3.1281139111   -1.5396313888    0.5474288131
 C   -3.6731551479   -0.7686797107   -0.6746042958
 C   -2.2820600523   -0.4838826310   -1.2777500280
 C   -1.7928377220   -1.9242217185   -1.5887739989
 C   -1.7494125119   -2.0518296851   -0.0608250763
 H    1.0401612240    1.9709955710    0.0512182712
 H   -0.5105727644    2.0045725657   -0.7984494258
 H   -0.4718506748    1.9686112208    0.9678255631
 H    0.5344461759   -0.3004795678   -0.8569731142
 H    0.5633012074   -0.3336799962    0.8975886250
 H   -1.8314475076   -0.7808848958    2.1765127091
 H   -2.8598501795    0.5155621181    1.4938553403
 H   -3.8042873629   -2.2049094232    1.0837109998
 H   -4.3013060268   -1.3652419773   -1.3431668866
 H   -4.2304323561    0.1265916813   -0.3831154322
 H   -2.1870815779    0.3226172336   -2.0053158494
 H   -2.4554127614   -2.5721531851   -2.1722822341
 H   -0.7871401141   -1.9525317406   -2.0171974208
 H   -1.2131144734   -2.8323639997    0.4796214706