21

 C    0.2004429585    1.3777128382   -0.5418500696
 C   -0.0368235705    0.0297120011    0.1099746522
 C   -1.3715681391   -0.5985065477   -0.2439331928
 N    1.1464147601   -0.8549347566    0.1732108849
 C    0.5597113241   -0.3323586538    1.4281507444
 C    1.4619497760    0.5559040419    2.2567733251
 N    2.5879150158   -0.2038235365    2.7772505453
 C    2.8561281393   -0.3396129541    4.1009305441
 O    2.2317536232    0.1791972758    5.0034907885
 H    1.2147081507    1.7393504105   -0.3674813774
 H    0.0622876081    1.2981663433   -1.6260240166
 H   -0.5088014626    2.1248482789   -0.1689241253
 H   -1.4425624072   -0.7736681734   -1.3238666989
 H   -1.5123652541   -1.5563973206    0.2671939363
 H   -2.2025211783    0.0572643812    0.0383182931
 H    0.8686088254   -1.8236546672    0.0344180032
 H   -0.0124777990   -1.0401373376    2.0269379640
 H    1.8291928332    1.3988941106    1.6636736676
 H    0.9286834772    0.9566931658    3.1218182724
 H    3.1454278724   -0.7111839817    2.1074835669
 H    3.7359879669   -0.9914560981    4.2738030428