19

 C   -0.0326221815    1.5035791656    0.1175729884
 C   -0.0007812012   -0.0046757596   -0.0899026198
 C    1.2446724437   -0.5219815924   -0.9075334129
 C    1.7012675170   -1.2851404138    0.3391058100
 C    0.5176346405   -0.8047461574    1.1192621259
 N    0.5985982379   -2.2025642056    0.7030291892
 C    0.8228927201   -3.1561183274    1.7224141062
 N    1.5659365984   -4.2261707625    1.2770404580
 O    0.3877934537   -3.0655864727    2.8513082887
 H    0.9181338798    1.8681562969    0.5232009322
 H   -0.2142653515    2.0239992189   -0.8285832570
 H   -0.8253624831    1.7899435301    0.8170666447
 H   -0.9640935239   -0.3661972716   -0.4611709175
 H    1.0434220522   -1.1337272236   -1.7903003860
 H    1.9210802578    0.2942849451   -1.1745019951
 H    2.7076172351   -1.5077327042    0.6726326040
 H    0.4222065525   -0.5824220448    2.1744160039
 H    1.5982394877   -4.3954791462    0.2846321390
 H    1.5364831949   -5.0403498349    1.8699759580