20

 C   -0.1094022512    1.5042095217   -0.0252724132
 C    0.0177703986   -0.0236659256    0.0555548601
 C    0.7831809931   -0.4487071059    1.3096373399
 O   -1.2796187496   -0.6215477785    0.1743745203
 C    0.7023921826   -0.5506728595   -1.2180399806
 C    0.7706684627   -2.0912422483   -1.4447078822
 N    0.0321217323   -1.8738329891   -2.6981444866
 C   -0.2013187808   -0.5414455234   -2.4799812879
 O   -0.9051022434    0.2701570858   -3.0285470422
 H    0.8746484552    1.9840155987   -0.0306007675
 H   -0.6303607859    1.7959997194   -0.9424451207
 H   -0.6694872550    1.8737858842    0.8385558333
 H    0.2833648314   -0.0582659063    2.2005639399
 H    0.8191571129   -1.5385341819    1.3934044075
 H    1.8079891494   -0.0665068638    1.2888663782
 H   -1.8451606744   -0.2205135080   -0.4965847147
 H    1.6597358111   -0.0492284384   -1.3835497227
 H    1.7665118316   -2.5210508238   -1.5811036066
 H    0.2046211155   -2.6607488358   -0.7027352826
 H   -0.4692440160   -2.5247094416   -3.2857464417