15

 N   -0.0050224507    1.3184730793    0.0130707764
 C    0.0682996110   -0.0309913001    0.0024499648
 O    1.0887571861   -0.6911773300   -0.0123735086
 N   -1.1905711734   -0.6794776923    0.0130301957
 C   -1.2527670941   -2.1320815672    0.0087574451
 C   -2.7287183384   -2.3966313344    0.0193463818
 C   -3.4124304415   -1.2501868354    0.0278101914
 C   -2.4649334344   -0.1104876119    0.0235675870
 O   -2.7204577725    1.0815962237    0.0282172571
 H    0.8615109884    1.8259313190   -0.0034634240
 H   -0.9076507294    1.7773387798    0.0161790340
 H   -0.7548751410   -2.5470241634   -0.8756062616
 H   -0.7413225530   -2.5528563540    0.8825959549
 H   -3.1336948011   -3.4000804237    0.0196647005
 H   -4.4821053759   -1.0994096495    0.0363440553