17

 N    0.1051099360   -1.1077891640    0.0801051036
 C    0.0616372932    0.0467670513    0.0384392923
 C   -0.0354920728    1.4865765270   -0.0187929962
 C    0.3414152825    2.2075243164   -1.2749397041
 N    1.2336388511    2.2587980846   -0.1206247555
 C    1.0980142256    3.4397257927    0.7701196483
 C   -0.2419934364    3.3680669559    1.5048742878
 C   -1.5235036973    3.5109558416    0.7251065378
 C   -0.9625213579    2.1377098034    0.9928880739
 H    0.7265830039    1.6390891443   -2.1170955523
 H   -0.2372045999    3.0833388027   -1.5524015921
 H    1.9160283456    3.3944419026    1.4947943989
 H    1.2267954218    4.3570770609    0.1850883488
 H   -0.2486760017    3.6188575981    2.5597522587
 H   -2.4121697549    3.7825657686    1.2852731809
 H   -1.5038038440    3.9247796697   -0.2762955461
 H   -1.4977822448    1.4683588342    1.6540529754