15

 O   -0.3175804977    0.0490471624    0.1726929778
 C   -0.0486030348    1.2076326628    0.0022476610
 C    1.3560118445    1.7191419694   -0.3045205982
 C    1.3498757857    2.8203917801   -1.3324190082
 N    1.9820366323    2.5889879532   -2.4880166825
 C    1.9567669107    3.5767301446   -3.3851858794
 C    1.3035093945    4.7807359980   -3.1525490490
 C    0.6676521635    4.9067349498   -1.9232889257
 N    0.6873458218    3.9387766945   -1.0064202583
 H   -0.8156510081    2.0081999479    0.0739602228
 H    1.7403403621    2.1273448241    0.6406049937
 H    1.9877810615    0.8892463108   -0.6200699008
 H    2.4778139546    3.3910430704   -4.3218284506
 H    1.2885596014    5.5753550470   -3.8882981672
 H    0.1271360780    5.8130963252   -1.6592746955