21

 C   -0.0796570773    1.5713164061    0.2284658558
 C   -0.0015473188    0.0474388241    0.0347374512
 C    0.8606304654   -0.6027645619    1.1251988778
 C   -1.3965319894   -0.5410651894   -0.0170801821
 C   -1.7672579771   -2.0597737989    0.1233199600
 C   -3.0682133135   -1.3461232478    0.5880690422
 O   -2.2230159409   -0.3133000291    1.1875703434
 C   -3.5264376671   -0.6622645125   -0.7148789450
 C   -2.3856596337   -0.1135233066   -1.1315323305
 H    0.9221125176    2.0115176608    0.2345032500
 H   -0.6559429490    2.0518566854   -0.5679381252
 H   -0.5662628508    1.8086500126    1.1790969154
 H    0.4585236722   -0.1569894627   -0.9428861750
 H    0.3797908064   -0.4998410822    2.1027235793
 H    1.0169470688   -1.6689898528    0.9355990601
 H    1.8437672143   -0.1246257712    1.1745114053
 H   -1.7984097489   -2.6775869764   -0.7765538863
 H   -1.2406107930   -2.5518032747    0.9439822018
 H   -3.7971900080   -1.7865168604    1.2667477485
 H   -4.5155291867   -0.6667010567   -1.1486632999
 H   -2.1565991305    0.4694521244   -2.0118384568