15

 O    0.0047682851    0.1028863553    0.5132841508
 C   -0.0392689630    1.2018541696    0.0404778245
 O   -1.2053364674    1.7167507603   -0.3953564465
 C   -1.2528826577    2.9571757721   -1.1283233032
 C   -0.1018966454    3.8728970943   -0.7721268411
 O    1.1144187152    3.1681684628   -0.9641769327
 C    1.2256706389    2.0904216490   -0.0461408592
 C    1.5822092204    2.5450596863    1.3026558689
 C    1.8608849015    2.9458330857    2.4001954836
 H   -1.2264065289    2.7144055321   -2.1964057591
 H   -2.2203262450    3.4084341656   -0.8916780026
 H   -0.0822961319    4.7359739966   -1.4424608317
 H   -0.1827928974    4.2327854498    0.2634077613
 H    2.0165045064    1.4419995943   -0.4345319432
 H    2.1183826490    3.2862568861    3.3731644402