19

 C    0.1794238716    1.1827969709   -0.5264852992
 C    0.0130908597   -0.1658322569    0.2019083325
 C    0.5455463310   -0.1139538910    1.6361869482
 C   -1.4234108262   -0.6034696650    0.1593804907
 N   -2.2077017715   -0.7566226221    1.1466449947
 C   -3.5033732548   -1.1817093062    0.5989496318
 C   -3.2865109588   -1.2232117197   -0.9364533784
 O   -1.9032373912   -0.8448016253   -1.0976189589
 H    1.2362849206    1.4629962288   -0.5640943137
 H   -0.2018157806    1.1291575211   -1.5488086086
 H   -0.3618804292    1.9750709758    0.0015623920
 H    0.5774292198   -0.9179418101   -0.3663011625
 H   -0.0100887779    0.6176288826    2.2290048123
 H    0.4446887797   -1.0819634761    2.1324591051
 H    1.6023954011    0.1702242881    1.6342628531
 H   -3.7812119309   -2.1581774628    1.0103535590
 H   -4.2855988360   -0.4737445465    0.8928422837
 H   -3.4248097529   -2.2163366704   -1.3732581141
 H   -3.9063270335   -0.5078916451   -1.4851155977