16

 N    0.5771444836    0.0586442408   -0.2999145683
 C   -0.5773600533    0.7758731994   -0.2273445755
 O   -0.6650262378    1.9734637478   -0.4084372007
 C   -1.8007340148   -0.0481641283    0.1126412492
 O   -1.6387902904   -1.4597266729    0.2735959127
 C   -2.0048395244   -0.6905892902    1.4275714205
 C   -1.0275689753   -0.6056715197    2.5487785707
 C   -1.4447559371   -0.0694624860    3.8516181515
 O   -1.2894477140   -1.4731000057    3.6565617045
 H    1.4085613570    0.5230007407   -0.6268018092
 H    0.5338642198   -0.9475350953   -0.2937384822
 H   -2.6845864556    0.2696158660   -0.4376471564
 H   -3.0337359444   -0.8480916188    1.7523535509
 H    0.0186919308   -0.5323485660    2.2611915564
 H   -0.7038750685    0.4060813045    4.4916853551
 H   -2.4690187257    0.2740463037    3.9910280809