12

 N    0.0507927364    1.3741359281    0.1581100895
 C   -0.0254911096    0.0045547134    0.0449723565
 C   -1.1367722514   -0.8422363728    0.0169767518
 C   -0.5819199149   -2.1532466324   -0.0233123620
 N    0.7342143132   -2.1355702983   -0.0266671244
 N    1.0528590144   -0.8063571018    0.0179778360
 C   -2.4814827343   -0.4228047179    0.0084985875
 N   -3.5760419336   -0.0382071276   -0.0017462720
 H    0.7921191028    1.8192061860   -0.3648703660
 H   -0.8367634842    1.8366888881    0.0151733486
 H   -1.1179669675   -3.0896744104   -0.0563963825
 H    2.0214238186   -0.5397406143    0.0716799469