18

 O   -0.1452502715    1.4975239647    0.3932734084
 C   -0.0095766677    0.1178637389    0.0763161249
 C    0.6765540810   -0.6835807032    1.1961416304
 O   -0.3442470346   -1.1793077793    2.0568152250
 C   -1.6159710098   -0.7511565411    1.5841492625
 C   -1.4203409985   -0.4932565967    0.0833287515
 C   -2.4870545924    0.3916136830   -0.5798162854
 C   -3.8162413886   -0.2150384879   -0.5349439553
 N   -4.8603148631   -0.7086725385   -0.4923622594
 H    0.7320142865    1.8702864969    0.5222084194
 H    0.4995206667   -0.0106176804   -0.8888587484
 H    1.2465057737   -1.5301162913    0.7894452611
 H    1.3718101433   -0.0456282499    1.7597205416
 H   -2.3458774867   -1.5358996992    1.7984361461
 H   -1.9323687447    0.1720756869    2.0927658346
 H   -1.3742454005   -1.4571857701   -0.4348218366
 H   -2.5179058429    1.3664166226   -0.0854783844
 H   -2.2265919003    0.5779647345   -1.6277088960