16

 C   -0.1751469891    1.3769139807   -0.6682947933
 C    0.0240350904   -0.1091897802   -0.5021418819
 N    1.0076256195   -0.6952436344   -1.0534973139
 N   -0.9588761100   -0.6917470791    0.3175591634
 C   -1.1506099024   -2.0380560944    0.5469426280
 C   -2.2539847398   -2.8233579855    0.6639719457
 N   -1.8574040915   -4.1104171776    1.0100052321
 C   -0.5720946972   -4.0492930202    1.0651697321
 O   -0.0543221855   -2.8141658649    0.8078414924
 H    0.6242680026    1.7711680243   -1.2932222603
 H   -1.1400666892    1.5959586586   -1.1406456949
 H   -0.1577755955    1.8848379507    0.3024714123
 H    1.0306581495   -1.6919323639   -0.8427075257
 H   -1.7466632152   -0.1101871442    0.5546166196
 H   -3.2898161393   -2.5594332760    0.5265267071
 H    0.1391827027   -4.8338090539    1.2663775872