23

 C   -0.8105534429    1.0598619549   -0.1409115293
 C    0.2622427364   -0.0000777213    0.0543328477
 C    1.5565242447    0.0809267868   -0.8060558805
 C    2.3964561542   -0.2806999513    0.4559682771
 C    1.1526985591    0.0654368925    1.3289964488
 C    2.8236170114   -1.7372760922    0.5260434736
 C    4.0738831101   -2.1311614920   -0.2961034443
 O    4.8209701720   -2.4411578983    0.8975669365
 C    3.6896455940   -2.1460761392    1.7414093512
 H   -0.3872311420    2.0672712052   -0.0534238871
 H   -1.2756612390    0.9793843236   -1.1299960695
 H   -1.6046965789    0.9666563256    0.6085785401
 H   -0.1874186105   -0.9948334510   -0.0379382869
 H    1.6341581981   -0.5893910780   -1.6674539066
 H    1.7506910280    1.1027059278   -1.1474408724
 H    3.2730945046    0.3534346439    0.6264098316
 H    1.2060982741    1.0818324130    1.7319461571
 H    0.9121783206   -0.6170414221    2.1498102860
 H    1.9662608435   -2.3963895210    0.3595856396
 H    3.9634899004   -3.0065957536   -0.9488902057
 H    4.5348450609   -1.3169189795   -0.8711505027
 H    3.9073429285   -1.3413136945    2.4563385593
 H    3.3513853128   -3.0303691693    2.2966660464