16

 C   -0.1237860116    1.3957021042   -0.0858338714
 C    0.0069730000   -0.0960583618    0.0169025459
 N    0.5196526247   -0.6661729096    1.0251508896
 O   -0.5040457874   -0.6839423336   -1.1114429270
 C   -0.5257774700   -2.0866769646   -1.1563420813
 C   -0.4848036116   -2.6878098474   -2.5228518895
 C    0.7099389266   -2.8233339832   -1.6020287445
 H    0.4009265434    1.7606435226   -0.9743944484
 H   -1.1758123458    1.6777026288   -0.1935244334
 H    0.2933634885    1.8609804013    0.8059655344
 H    0.5444367967   -1.6797831808    0.9179437860
 H   -1.1637898255   -2.5374061755   -0.3997449024
 H   -1.0988932167   -3.5593522862   -2.7172307072
 H   -0.3970828146   -1.9953403163   -3.3518871006
 H    1.5818353467   -2.2207166012   -1.8283919698
 H    0.9253416068   -3.7892560266   -1.1586989103