20

 C    0.3774754789    1.4234266730    0.4011967437
 C   -0.1770225719    0.1573291637   -0.2666167629
 C    0.6880417723   -0.3962668814   -1.3623076574
 C    0.8434510489    0.0090352106   -2.7927838068
 C    2.0838928503   -0.9694924843   -2.8512330360
 C    1.0473474528   -2.0808842454   -3.0316810449
 N   -0.0031008563   -1.1725030603   -2.4504406888
 C    2.1587427555   -0.8490185197   -1.3035923117
 O    3.0484003595    0.1355025138   -0.8227388727
 H    1.3601019436    1.2417717191    0.8430557450
 H    0.4797816985    2.2380955259   -0.3248723300
 H   -0.2962725752    1.7678876756    1.1913393454
 H   -0.3205215234   -0.6253380019    0.4902092953
 H   -1.1679176886    0.3544227701   -0.6902084668
 H    0.4916360731    0.8473104272   -3.3806811759
 H    2.9922275993   -0.8775479181   -3.4445725368
 H    0.7839398941   -2.2855859146   -4.0724818841
 H    1.2003857115   -3.0259107718   -2.4960228494
 H    2.4029439351   -1.7612026412   -0.7483032354
 H    2.8181760820    0.9731631898   -1.2429583398