19

 C   -0.0931419772    1.4415830568   -0.3662795699
 C    0.2668960133   -0.0065104050   -0.1144986203
 C    1.6621637222   -0.4155814637    0.2182724546
 N    0.5981118027   -0.5319761551    1.2112207991
 C    0.6329242655    0.3575600650    2.3641309624
 C    1.2727687144   -0.3627335370    3.5300903181
 C    2.6775242258   -0.1518233957    3.8989139231
 O    1.6209632440    0.4480453777    4.6520072592
 H    0.5668192488    2.1359200364    0.1593435772
 H   -0.0188109337    1.6609494011   -1.4366227345
 H   -1.1233789850    1.6527345009   -0.0586023397
 H   -0.3319258920   -0.7086381166   -0.6941289802
 H    2.0814472882   -1.3481273273   -0.1507291443
 H    2.3888660841    0.3870953524    0.3466284473
 H    1.1747083411    1.3021811205    2.1966716965
 H   -0.3994536122    0.6162964807    2.6309060161
 H    0.8140726737   -1.3192184091    3.7814017588
 H    3.2294940171   -0.9384251638    4.4112616718
 H    3.2871532792    0.5409207218    3.3193937646