18

 O   -0.0538541637    1.3993003951   -0.1951733380
 C    0.0378373843    0.0194146449    0.1239748090
 C   -1.3581365695   -0.5591758950   -0.0162012080
 C   -2.0179427188   -0.6317710423   -1.4328994918
 C   -2.2297419149   -2.1399157465   -1.2547564966
 C   -0.9251455596   -2.8327587313   -1.0462084725
 C   -1.5312225980   -2.0859428966    0.1275319408
 C   -1.8827739491   -2.7511310978    1.3383068269
 N   -2.1699617589   -3.2732253199    2.3315157235
 H    0.8215607191    1.7889609755   -0.1146390900
 H    0.7381054679   -0.4982374458   -0.5501045502
 H    0.3969534712   -0.1375650612    1.1537081322
 H   -2.0223070505   -0.0389678810    0.6776697481
 H   -2.9444090568   -0.0597525540   -1.4887964462
 H   -1.3791126905   -0.3474112006   -2.2739602166
 H   -3.1318376698   -2.6866739792   -1.4975095619
 H   -0.9701707934   -3.9127074112   -0.9587082558
 H   -0.0181201790   -2.4565429232   -1.5106675929