13

 O    0.0408603007    1.3679320228    0.0102351250
 C   -0.0119433073    0.0235340949    0.0030640052
 C   -1.1798447561   -0.6654341636    0.0033434783
 C   -1.1832328827   -2.1193638638   -0.0047598139
 O   -2.1626372393   -2.8453743348   -0.0056598991
 N    0.1050533506   -2.6678551664   -0.0122384568
 N    1.2839336912   -2.0117297621   -0.0127404414
 C    1.2213437499   -0.7264495436   -0.0053658574
 O    2.3560243386    0.0201357951   -0.0057389478
 H    0.9699878798    1.6355378723    0.0091649189
 H   -2.1359409240   -0.1592485626    0.0095086081
 H    0.1719987637   -3.6753730863   -0.0182589778
 H    3.1106573251   -0.5833487619   -0.0105211413