19

 C   -0.6302656833    1.1477825237    0.9442457676
 C   -0.0194461322   -0.1101822459    0.3815343802
 O    1.1077108166    0.0330980271   -0.4916479983
 C    1.3038980020   -0.6535669570    0.7439132630
 C    2.2460924135   -0.0116153922    1.7362116306
 N    2.0690237502   -0.6258948337    3.0494898362
 C    3.0143478894   -0.1245156102    4.0388677603
 C    2.7739609193   -0.7297527593    5.3517840910
 N    2.5694656447   -1.1871969669    6.3922752439
 H    0.1256894350    1.8385745630    1.3229927538
 H   -1.1987720452    1.6679231199    0.1665071647
 H   -1.3251802983    0.9042384248    1.7555647990
 H   -0.7495413189   -0.8381122478    0.0212630372
 H    1.4449437477   -1.7312869866    0.6477186873
 H    3.2771993540   -0.2016203179    1.4098382393
 H    2.1155390397    1.0829990616    1.7341299648
 H    1.1206816953   -0.4741973933    3.3781893162
 H    4.0310241866   -0.3850719367    3.7186812053
 H    3.0000498337    0.9740945676    4.1648297178