20

 C    0.2432243026    1.5530474504    0.0034753319
 C   -0.0005488120    0.0337869858   -0.0024041777
 C    0.6778673855   -0.5850715084   -1.2194045494
 O    0.2603093626   -1.9154310558   -1.5410841894
 C    0.5485042066   -2.9620657334   -0.7235924055
 N    0.7920477030   -3.0577549591    0.5087463507
 C    0.7744643164   -2.0419622165    1.5029383248
 C    1.8574761458   -0.9850736614    1.6108792410
 C    0.4300870529   -0.5787196152    1.3200942888
 H    1.3130894345    1.7791118124    0.0718654415
 H   -0.1476307685    2.0248549343   -0.9038995647
 H   -0.2477684173    2.0197362400    0.8624043229
 H   -1.0787011268   -0.1420676509   -0.1214051135
 H    0.4243033060   -0.0064758387   -2.1115592843
 H    1.7708793864   -0.5665830691   -1.1160687120
 H    0.5210034411   -3.8729566715   -1.3225179367
 H    0.4723472856   -2.4642820015    2.4575575868
 H    2.2745410562   -0.7692247650    2.5884854860
 H    2.5833879522   -0.9557138783    0.8063529533
 H   -0.0948685531   -0.1409020781    2.1670468655