18

 O    1.5072530285   -0.4647400284   -0.5231457553
 C    0.8188171612    0.5231549650   -0.4800803604
 C    1.2886234775    1.8756660574    0.0188297082
 C    1.3942881882    2.8530373698   -1.1407851185
 C    2.4067010650    3.9557465927   -1.2231512644
 C    3.6145615392    3.8668342289   -0.3588464452
 C    4.3285171165    2.7855114636   -0.6752845913
 C    3.6752290972    2.0332772665   -1.8120685798
 N    2.4528195813    2.8030820182   -2.1622495298
 H   -0.2351517054    0.4981031975   -0.8412099049
 H    0.5397601504    2.2638061573    0.7226342951
 H    2.2360868968    1.7523625719    0.5447700503
 H    0.4274639368    3.0674863419   -1.5970857871
 H    2.1047411548    4.9211065917   -1.6243528515
 H    3.8517521725    4.5955782586    0.4061685885
 H    5.2380241684    2.4528838910   -0.1884067838
 H    4.3222813993    1.9855745378   -2.6974520021
 H    3.4237818816    0.9991811786   -1.5462633580