11

 C    0.0383332522    1.4329391693    0.0100616867
 N    0.0412525895   -0.0184411377    0.0195046983
 C   -1.0891843365   -0.6061689070   -0.0049243990
 N   -2.3476602241   -0.0433731778   -0.0797845181
 C   -1.1007809031   -2.0588113525   -0.0037913514
 N   -1.1499808449   -3.2133485938    0.0061047715
 H    1.0674989866    1.7958348028    0.0323160413
 H   -0.4477370924    1.8377253173   -0.8905868319
 H   -0.4821151747    1.8548207089    0.8855750558
 H   -2.4384955652    0.9260251518    0.1786374898
 H   -3.1383802572   -0.6248261513    0.1473782270