17

 O    0.0007019636    0.0688576935    0.6133513648
 C   -0.0453019667    1.2155459886    0.2248970210
 C   -1.3483765612    1.9612604206    0.0273455333
 C   -1.6642245613    2.2201120423   -1.4575289904
 O   -0.8896521729    3.2548088755   -2.0272900347
 C    0.4023454842    2.9124418614   -2.4556820238
 C    1.4363336494    2.6821847760   -1.3627010105
 O    1.2763006186    3.3520248632   -0.1271493489
 C    1.2411278587    1.9176105850   -0.1082232727
 H   -2.1406961069    1.3493531347    0.4668122774
 H   -1.3078753748    2.9297833186    0.5354030813
 H   -1.5624905046    1.2903044352   -2.0396835539
 H   -2.7031551558    2.5523321269   -1.5393392160
 H    0.3907205334    2.0255685465   -3.1129080825
 H    0.7426868924    3.7606345431   -3.0600480416
 H    2.4573547285    2.6798469952   -1.7540140516
 H    2.1114591754    1.4334689637    0.3326830188