18

 N   -0.0023302539    1.1887985619    0.4851005306
 C   -0.0045620787    0.0222140665    0.0138613500
 C   -1.2606898032   -0.8429800968   -0.2162621994
 C   -0.7345602856   -2.0638704695   -0.9277084350
 C    0.0079211189   -1.8918143403   -2.2384018331
 C    0.7693829156   -1.8860777019   -0.9525183000
 C    1.0082972982   -3.2605045764   -0.3250562929
 C   -0.5464959166   -3.4917737974   -0.3674587557
 O    1.1383911949   -0.6576040874   -0.3893913771
 H    0.9466599145    1.5618189447    0.5336771384
 H   -1.6990440011   -1.0956998025    0.7544147702
 H   -2.0064521133   -0.2582098468   -0.7607209300
 H    0.0893012425   -2.7332574167   -2.9211106361
 H   -0.0894118416   -0.9255773971   -2.7213987017
 H    1.6497920221   -3.9505040098   -0.8807007398
 H    1.3796858011   -3.1768871429    0.6979059020
 H   -0.9803795920   -3.6244600731    0.6256805787
 H   -0.9031133816   -4.2991211845   -1.0135200990