17

 C    0.2882200460    1.5836756905   -0.1566570896
 C    0.2223500175    0.0803652191    0.0194044809
 O    0.5191623339   -0.4670334362    1.0543261213
 C   -0.2518617814   -0.7201711908   -1.1968346382
 C   -0.1142802083   -2.2034762800   -0.9689684929
 C    0.3328131821   -3.1197090346   -2.0437964912
 O    1.2079109251   -2.7487092196   -0.9919647773
 C   -1.0086497376   -2.8090725474    0.0741954830
 O   -2.0638488797   -2.3340595546    0.4055393174
 H    1.0376736665    1.8390532440   -0.9148641700
 H   -0.6716551869    1.9727469219   -0.5137409876
 H    0.5524180041    2.0568430506    0.7894502549
 H   -1.3067226715   -0.4753446831   -1.3725112907
 H    0.3038087754   -0.4046375662   -2.0861267981
 H    0.0099413889   -4.1603449434   -2.0439396400
 H    0.5518302834   -2.6994657263   -3.0245996006
 H   -0.6154795375   -3.7622013440    0.4897153684