20

 C   -0.3878504057    1.3122366592   -0.1602465144
 C    0.1561304821   -0.1054111009   -0.0727225292
 C    1.5507216396   -0.3807461160   -0.6716757287
 O    2.0592527999   -0.8715148317    0.5897935499
 C    0.7941768112   -0.6108040435    1.2645562732
 C    0.9580249696    0.3650672103    2.4186202381
 C    0.1292425172   -1.8971844085    1.7706705262
 N    0.8603877489   -3.0183477123    1.5600886371
 O   -0.9695557505   -1.8703884039    2.2959257050
 H    0.3513758745    2.0564929985    0.1508402801
 H   -0.6742783118    1.5431870582   -1.1919967514
 H   -1.2775282519    1.4313661879    0.4656236159
 H   -0.6006253315   -0.8066600125   -0.4320347377
 H    1.6027662415   -1.1422677466   -1.4582515358
 H    2.0979928777    0.5112281026   -1.0016882683
 H    1.3659883964    1.3191080002    2.0781691765
 H   -0.0066895453    0.5289107802    2.9040000250
 H    1.6479969163   -0.0552047775    3.1575237943
 H    1.7721519825   -2.9367844029    1.1412520957
 H    0.5121339894   -3.9037513709    1.8867679685