18

 C    0.1661969016    1.4687338389    0.1127401658
 O   -0.1246345264    0.0804216814    0.1143062155
 C    0.5498971527   -0.6499996184    1.1116031884
 C   -0.0665745811   -2.0558633885    1.1672853933
 C   -1.5150512878   -1.9915570520    1.5877522334
 C   -2.0977845513   -2.9819818250    2.4994601939
 O   -1.7436445534   -1.6785213117    2.9664563846
 C    2.0039148690   -0.7201564564    0.8358485920
 N    3.1366862720   -0.7682938632    0.6126200027
 H    1.2262287074    1.6585791223   -0.1016437106
 H   -0.4441434524    1.9152447679   -0.6741567489
 H   -0.0910740476    1.9309552722    1.0765354149
 H    0.4233856317   -0.1711920250    2.0959519159
 H    0.0220491257   -2.5158137699    0.1774010468
 H    0.5021820900   -2.6623587058    1.8780039015
 H   -2.1766047759   -1.4685104932    0.8992830789
 H   -3.1655885399   -3.1909812000    2.4601523478
 H   -1.4790275243   -3.7966557736    2.8738643839