21

 C    0.0726675433    1.5036181482   -0.0810321947
 C   -0.0972692774    0.0052486656    0.0606262014
 C   -0.3471182064   -0.5930186624    1.4038161846
 N    0.9856390371   -0.6701845705    0.8033854540
 C    1.4695767210   -1.9569443487    0.3066680083
 C    0.4423796519   -2.8777798683   -0.3892150984
 C   -0.3742160722   -2.1181060765   -1.4213194559
 N   -1.7223349879   -1.6910006383   -1.0079633579
 C   -0.6626108825   -0.6771587304   -1.1634529963
 H    0.7045362318    1.7493129493   -0.9428287794
 H   -0.8969076567    1.9948586484   -0.2242562906
 H    0.5467381930    1.9179086298    0.8115061328
 H   -0.4235459645    0.0553823555    2.2737381748
 H   -0.9744562362   -1.4784633966    1.4392535702
 H    2.2788349407   -1.7308325827   -0.3995552110
 H    1.9256685014   -2.4867468167    1.1503698679
 H    0.9847917824   -3.7019038144   -0.8638941472
 H   -0.2331854054   -3.3283781709    0.3442584101
 H   -0.2416023944   -2.4148577938   -2.4586989296
 H   -2.3457509687   -1.6642604284   -1.8103811553
 H   -0.7279597302   -0.0259795084   -2.0319875177