18

 C   -0.1716266871    1.3642481791    0.1778725824
 C   -0.1148816328   -0.1086050606   -0.0991473337
 N    0.7413789280   -0.6282789937   -0.8708544472
 O   -1.1119576380   -0.7478027247    0.6057418987
 C   -1.1460220336   -2.1441177548    0.5608788091
 C   -2.4502873726   -2.7704136436    0.8633735061
 C   -1.8982162129   -2.8580322883   -0.5623647506
 C   -2.5810387978   -2.0733606911   -1.6198413212
 O   -2.7068846874   -2.4471360092   -2.7592625717
 H    0.6068173974    1.8712764181   -0.3899099571
 H   -1.1519665388    1.7635913128   -0.1003898034
 H   -0.0359191797    1.5546557877    1.2469779558
 H    0.6304572043   -1.6366014642   -0.9685628773
 H   -0.2339582296   -2.6216455582    0.9111431067
 H   -2.4784647110   -3.6805183809    1.4497961347
 H   -3.2860721961   -2.0954279005    1.0152491066
 H   -1.5005327302   -3.8092205929   -0.8991514152
 H   -2.9926300822   -1.0973928648   -1.2806488027