20

 C   -0.2270198433    1.5328364153    0.0510066670
 C   -0.0609915976    0.0233397167    0.0218262535
 N   -0.6253741112   -0.7481558682    1.1676252417
 C    0.8247969494   -0.5875396799    1.0586354336
 C    1.6971792267   -1.8155247631    0.8183171854
 C    1.0392234662   -3.0087758392    0.1782595535
 C    0.2882609123   -3.0037536018   -0.9289698487
 C   -0.1095246964   -1.8467711620   -1.7219493629
 C   -0.2347063210   -0.5681612110   -1.3343761608
 H    0.4859118337    2.0219193405   -0.6221946343
 H   -1.2351716324    1.8217251784   -0.2687367211
 H   -0.0635125093    1.9305214409    1.0575843324
 H   -1.0042592975   -0.1033270676    1.8577790197
 H    1.2941054834    0.1295553238    1.7347264718
 H    2.5507377661   -1.4905460526    0.2031866248
 H    2.1248219531   -2.1225714795    1.7799349533
 H    1.2340209370   -3.9659714927    0.6544560843
 H   -0.0570555729   -3.9630131457   -1.3095329314
 H   -0.3631908753   -2.0664113152   -2.7574966588
 H   -0.5445122608    0.1485353028   -2.0919840330