20

 O    0.4582709411    0.9706676159    1.2185288011
 C    0.2077662486    1.3924328234    0.1082627767
 N    1.1045370494    1.4693079122   -0.9085775268
 C    2.4807151367    1.0120511539   -0.7662406646
 C    3.3821681822    1.9905408311    0.0070552274
 C    4.8317439864    1.4429963125    0.1088310002
 C    5.6372758482    2.3426513998   -0.8626990125
 O    4.6774500938    3.0508135223   -1.6375484081
 C    3.5919881229    3.3064366923   -0.7597712522
 H   -0.7947946464    1.7596948200   -0.1901117154
 H    0.7917398193    1.8282880404   -1.7953702446
 H    2.4666162723    0.0495878667   -0.2454852056
 H    2.8877779399    0.8525883898   -1.7694108118
 H    2.9367664504    2.1576047431    0.9896673457
 H    5.2201424202    1.5072019119    1.1276365476
 H    4.8757720349    0.3904957429   -0.1876830536
 H    6.2671905064    3.0500774081   -0.3008165815
 H    6.2791271301    1.7872825275   -1.5512769071
 H    2.7315612978    3.6113391843   -1.3620269613
 H    3.8344714957    4.1286810520   -0.0662219036