23

 C   -0.7851729928    1.4476814767   -0.7518105875
 C   -0.1995756337    0.0880874740   -0.4308457317
 C    1.2710099730   -0.2400578046   -0.5672333197
 C    2.3045856275    0.7508175671   -1.0618916067
 C    0.6336184558   -0.1676634284    0.8117178362
 C    0.9447569829    0.9188495570    1.8115402989
 O   -0.2175581004    1.3072364501    2.5672244989
 C    2.0465584738    0.5126553205    2.7963463789
 O    2.2383401848    1.5079486855    3.7766703671
 H   -0.1045488367    2.2691709867   -0.5184717148
 H   -1.0335666409    1.5187453411   -1.8164267800
 H   -1.7018731478    1.6186144789   -0.1787859680
 H   -0.8689480984   -0.7284900172   -0.6920240953
 H    1.4778796987   -1.2543947586   -0.9003629866
 H    2.0899829571    1.7792983386   -0.7640651954
 H    3.3016832128    0.5002357122   -0.6829650583
 H    2.3554434193    0.7342986632   -2.1561507129
 H    0.4713021117   -1.1333926570    1.2912071958
 H    1.2595486043    1.8426435369    1.3190638167
 H   -0.6737494537    0.4995361567    2.8302720703
 H    1.7776458512   -0.4586089548    3.2526257681
 H    2.9967105651    0.3736207882    2.2689303411
 H    1.3472168264    1.8030639171    4.0076890748