20

 C    0.0192574385    1.5011609270    0.0410813930
 C   -0.0789654641   -0.0100855819   -0.0076094146
 C   -0.8699770279   -0.7396967669    1.0215333012
 N    0.5924108521   -0.7030490388    1.1058305014
 C    1.3340106559   -1.9322114302    0.7577924272
 C    2.2013941308   -1.7148936525   -0.4738049260
 O    1.8286223383   -2.4374822120   -1.6546921883
 C    1.5546988233   -1.0344551756   -1.6060776740
 C    0.0992065442   -0.6300632591   -1.4000798656
 H    0.9607262732    1.8476671090   -0.4011003543
 H   -0.8033120543    1.9636751727   -0.5165261618
 H   -0.0159077972    1.8549240473    1.0741547995
 H   -1.4006553200   -0.1996288849    1.8027200102
 H   -1.3379662356   -1.6788274893    0.7267422605
 H    1.9493051572   -2.2034232682    1.6210695696
 H    0.6652426456   -2.7786182697    0.5502420406
 H    3.2756198588   -1.6220589041   -0.3277696276
 H    2.1582498318   -0.4387479926   -2.2885880516
 H   -0.5150411504   -1.5272862183   -1.5144858299
 H   -0.2204297301    0.0800924381   -2.1676116696