20

 C   -0.2488510178    1.4389787808    0.1081005493
 C    0.0450239477   -0.0637478090    0.0499815896
 C   -1.2713038725   -0.7963928535   -0.2070166545
 C    1.3344522132   -0.5731096433   -0.7236805528
 C    2.2234960899    0.0490992856    0.3962566434
 C    1.0480214200   -0.6910090871    1.1041818090
 N    1.3263081277   -1.8010654902    0.1354228312
 C    0.8281050345   -3.0485292524   -0.0476859104
 O    0.7035760419   -3.6084497705   -1.1191325725
 H    0.6061837781    2.0671312542    0.3562952132
 H   -0.6405565769    1.7781473249   -0.8570641289
 H   -1.0267852113    1.6331294750    0.8547324068
 H   -1.1569167515   -1.8633300424   -0.3922151743
 H   -1.9493185421   -0.6649566860    0.6440342073
 H   -1.7692584273   -0.3673274599   -1.0831505490
 H    1.5161518833   -0.6290117366   -1.7957531637
 H    3.1965261334   -0.4248407254    0.5193069120
 H    2.2791015982    1.1309360692    0.4736069314
 H    0.8994812066   -0.8793896072    2.1686151740
 H    0.6254385149   -3.5445116662    0.9248783888