19

 N   -0.3408532951    1.2151975241    0.4890536149
 C   -0.1033479624   -0.0060646582    0.2732495260
 O   -1.1095191250   -0.8949504786    0.3653667157
 C   -0.9200233172   -2.2780553487    0.1213121585
 C    0.0091666361   -2.7676089530   -0.9565582864
 C    0.3445476466   -2.9939536484    0.5081059978
 C   -2.2325483032   -2.9784600796    0.3149664081
 C   -3.2190160264   -2.5086087544    1.3168312945
 N   -3.4869066415   -2.3605066571   -0.1281848338
 H    0.5142331102    1.7573538810    0.3844248895
 H    0.8680038156   -0.4361351006    0.0115572716
 H   -0.3150824824   -3.6108754904   -1.5565867235
 H    0.5981218562   -2.0388727391   -1.5027030038
 H    1.1559836778   -2.4167661332    0.9374877478
 H    0.2519206134   -3.9936377139    0.9188571584
 H   -2.1678063890   -4.0446338047    0.1064000463
 H   -3.8505106842   -3.2284576512    1.8297246705
 H   -2.9731606833   -1.6170922463    1.8843769911
 H   -3.2986841562   -1.3951257777   -0.3914268932