19

 C   -0.1549312208    1.4814073244   -0.2771189432
 C    0.0836005308    0.0091106505    0.0032117011
 O    1.1995818977   -0.4538441914    0.0937542565
 C   -1.1588164621   -0.8566674216    0.1246460403
 C   -1.5154638785   -1.5219947274   -1.2523400901
 C   -0.8355601180   -2.8376839086   -0.7556642923
 C   -0.8950604416   -2.2709616017    0.7001226842
 C   -1.4915139128   -4.0950472223   -1.0434573870
 C   -2.0597565804   -5.1303182150   -1.2727620621
 H    0.7874364555    1.9782953702   -0.5101792699
 H   -0.8642847683    1.6120310442   -1.1017290578
 H   -0.6058946679    1.9526558996    0.6043965886
 H   -1.9727464270   -0.2825391469    0.5741603440
 H   -2.5935846877   -1.6439454955   -1.3704036159
 H   -1.1052595756   -1.0675656783   -2.1574373426
 H    0.2055500304   -2.8657844158   -1.0891604998
 H    0.0140467021   -2.3832870285    1.2909383046
 H   -1.7548702768   -2.6576068488    1.2498872230
 H   -2.5507236488   -6.0489979772   -1.4779813416