18

 C   -0.0156798628    1.5331089807    0.0604453409
 C    1.4320834949    2.0391028623   -0.0052645329
 O    2.1007357140    1.8454932160   -1.2403881351
 C    2.4409306845    0.5003488646   -1.5281053081
 C    1.3000034321   -0.2506600385   -2.1968428927
 O    0.9784722797   -1.5550976372   -1.6953960762
 C    0.0465522789   -0.4914058085   -1.4717027189
 C   -0.1572787643    0.0046827628   -0.0504311380
 H   -0.4303337729    1.8689250328    1.0195350633
 H   -0.6040856738    2.0232195098   -0.7250160355
 H    1.4449111633    3.1212933024    0.1610309282
 H    2.0145238286    1.5711487070    0.8073611564
 H    3.3077573645    0.5406407581   -2.1956562807
 H    2.7401291107   -0.0391613231   -0.6179995697
 H    1.2543528651   -0.1693703546   -3.2831221083
 H   -0.8611313869   -0.5745318803   -2.0714028781
 H    0.5719256160   -0.4885326249    0.6019726425
 H   -1.1476635517   -0.3050889794    0.3001143630