20

 C   -0.1083352246    1.5017652460    0.0350731614
 C    1.2844277993    2.1741664457    0.0170540712
 C    2.1475230156    1.8210239946    1.1963957537
 C    3.1188202343    0.9058790901    1.2383764785
 C    3.5389291961    0.0109309228    0.0969304837
 O    2.5394547201   -1.0049147198   -0.1630848715
 C    1.7673723829   -0.8173367597   -1.2789862583
 N    0.5622152749   -0.4508154496   -1.2963201283
 C   -0.0662595082   -0.0350294220   -0.0467864084
 H   -0.6439039863    1.7795059896    0.9509832691
 H   -0.6875613572    1.8907621582   -0.8096728280
 H    1.7839254741    1.9126987150   -0.9216057621
 H    1.1352944751    3.2604176277   -0.0012597561
 H    1.9212073018    2.3583340151    2.1167328425
 H    3.6359456066    0.7392256075    2.1798195657
 H    3.7234059033    0.5813461396   -0.8216912207
 H    4.4602314148   -0.5200507354    0.3506268493
 H    2.2740282240   -1.0595426712   -2.2177400599
 H    0.4477290679   -0.4372078506    0.8332401028
 H   -1.0948517247   -0.4103213134   -0.0491255848