18

 O   -0.4722945771    0.6862036206    0.8942632291
 C    0.0725003941    1.0134751386   -0.1275263132
 C    1.3478788836    1.8207701049   -0.2105877875
 C    1.1689682482    3.0934141532   -1.0599078177
 C    2.4814167063    3.8307126367   -1.2195359827
 N    3.4051830566    3.3396145047   -2.2316165859
 C    2.8374595709    4.6954272286   -2.3984141720
 C    1.9251630769    4.8798830169   -3.5627449282
 O    1.6773633554    5.9546000890   -4.0483281046
 H   -0.3530248804    0.7309954604   -1.1197014297
 H    1.6807303848    2.0536947314    0.8053755431
 H    2.1113019190    1.1928824088   -0.6916803622
 H    0.7750625792    2.8200051267   -2.0434820854
 H    0.4349588722    3.7580345353   -0.5891566528
 H    2.9107280686    4.1754321148   -0.2783956379
 H    4.3718547417    3.3999236741   -1.9252993156
 H    3.4578167750    5.5637390926   -2.1895818444
 H    1.4937926652    3.9375029928   -3.9639190722