19

 C    0.8607203612   -0.3734154104   -1.1301782862
 N    0.0352269520    0.0128994040    0.0048840662
 C    0.1495502932    1.4377956153    0.3021554844
 C   -1.3454562086   -0.3800509498   -0.1800414765
 C   -1.6736760850   -1.8750404175   -0.2188876424
 C   -1.3608968755   -2.5201826017    1.0601216852
 N   -2.6473564397   -1.7522849171    0.9677282548
 C   -2.2560370972   -0.3605720188    1.0711697349
 O   -2.6280783492    0.4692634656    1.8409273155
 H    1.9050306653   -0.1197733044   -0.9245826051
 H    0.7987123273   -1.4548279325   -1.2868437114
 H    0.5654339909    0.1298209576   -2.0707208824
 H   -0.1422243971    2.0752926806   -0.5539183186
 H   -0.4903591511    1.6918521051    1.1494068223
 H    1.1864602061    1.6716008940    0.5612929042
 H   -1.8469710645    0.1549345843   -1.0111489132
 H   -1.9870461473   -2.4205083639   -1.0999082347
 H   -1.5348434414   -3.5861489867    1.1582484879
 H   -0.5623908594   -2.1178010638    1.6758264549