17

 C    0.0690843763    1.1384063389    0.8261366537
 C   -0.0570560676    0.0582595388   -0.2243231354
 O    0.7960587342   -0.1768396103   -1.0542902486
 C   -1.3084616230   -0.7386074687   -0.2076362710
 O   -2.3021094611   -0.5627167567    0.8158375065
 C   -2.4724159156   -2.0110701791    0.9230953671
 C   -1.5440683090   -2.2614165035   -0.2572195112
 C   -1.9657587227   -1.3798139845   -1.4019220182
 O   -3.2909473713   -1.1031831819   -1.7045172641
 H    1.0196461769    1.6581745915    0.7039070065
 H   -0.7632375097    1.8461528201    0.7425334443
 H   -0.0008115357    0.7003829085    1.8272730005
 H   -2.0828333803   -2.3656648637    1.8815222857
 H   -3.5188089057   -2.3102174390    0.8046744233
 H   -0.8076479315   -3.0487024340   -0.3452664167
 H   -1.3293229886   -1.4432335107   -2.2783781832
 H   -3.6346811455   -0.5669225858   -0.9766347592