18

 C   -0.5827499132    0.9038972575    0.9431378406
 C    0.1029743795   -0.3176157149    0.3479241760
 C    0.3348256113   -0.3640469498   -1.1918093194
 O    1.7762981795   -0.4658495909   -0.9720965206
 C    1.6186866593   -0.3707145266    0.4006789182
 N    2.4679865313   -0.3261581794    1.3187781785
 C   -0.2860385170   -1.5398700484   -1.9309424354
 C    0.5474834875   -2.7900388696   -2.0887457989
 O   -1.4207876514   -1.4336775377   -2.3351046411
 H   -0.1413307991    1.8296477990    0.5620213763
 H   -1.6493915731    0.9036841372    0.7010165593
 H   -0.4741605845    0.9009272836    2.0310767198
 H   -0.3490710983   -1.2379639979    0.7306086043
 H    0.0826598358    0.5658266877   -1.7083318093
 H    3.4217359544   -0.3698361133    0.9561064593
 H    1.4546774693   -2.5645406207   -2.6589615631
 H    0.8845283631   -3.1554059071   -1.1122285904
 H   -0.0384826843   -3.5577324687   -2.5944901441