19

 C    0.0274642715    1.5369296959   -0.0123367167
 C   -0.0814758346    0.0405620757   -0.2875905755
 N   -1.2873673369   -0.5064529530    0.3286908146
 C   -1.5401684383   -1.8710947264    0.1850484438
 C   -2.7649074658   -2.4391345523   -0.0273977113
 N   -4.0107254484   -1.8343408836   -0.1978435634
 O   -2.6471982568   -3.8183189122   -0.0300958824
 C   -1.3372516351   -4.0966294992    0.1585447032
 C   -0.6068581134   -2.9596255330    0.3008018250
 H    0.9430105520    1.9451198697   -0.4500701372
 H   -0.8192628835    2.0801054984   -0.4479983305
 H    0.0355417965    1.7322862959    1.0638448910
 H   -0.0461341061   -0.1447265670   -1.3752948295
 H    0.7850221858   -0.4733766119    0.1436859479
 H   -2.1155975217    0.0228971553    0.0781453746
 H   -4.6484583845   -2.0076215099    0.5740600329
 H   -4.4729900516   -2.1233577277   -1.0544525919
 H   -1.0719470836   -5.1415314318    0.1629464287
 H    0.4564107745   -2.8995459229    0.4700331466