21

 C    0.5019082658    1.3935480005   -0.0529728249
 C    0.1548412385   -0.0848747297   -0.0366866023
 O    0.7452346478   -0.6945580416   -1.1786117114
 C    0.4785468520   -2.0645738003   -1.2953199094
 C    1.0938632241   -2.5623117667   -2.6153813931
 C    2.1373774530   -3.6061991603   -2.1859095339
 O    3.2862767805   -3.5100946638   -3.0074183764
 C    2.3685206267   -3.2250941990   -0.7125555034
 O    1.0857862280   -2.8214347195   -0.2534745722
 H    1.5860647834    1.5337571158   -0.0175633579
 H    0.1255930319    1.8692388077   -0.9632148243
 H    0.0590239254    1.8972320764    0.8115604005
 H    0.5247201208   -0.5668061462    0.8773027940
 H   -0.9380806776   -0.2286280680   -0.0651526333
 H   -0.6019691470   -2.2427808702   -1.1992092788
 H    0.3420320929   -2.9674620034   -3.2942340691
 H    1.6019404608   -1.7323349290   -3.1109916462
 H    1.7064531844   -4.6165944610   -2.2351309726
 H    3.8740379999   -4.2400965150   -2.7898804746
 H    2.7083720811   -4.0493481078   -0.0792611921
 H    3.1004816675   -2.4055593886   -0.6634088884