15

 C    0.1122123133    1.5279024267    0.1058853886
 C   -0.0082489111    0.0116638037   -0.0438190185
 N    0.7259354275   -0.4961663162   -1.2015299878
 N    0.0976485769   -0.7356027842   -2.3568578724
 N    0.9830983081   -1.1380793051   -3.2318401340
 C    2.2012732736   -1.1591072651   -2.6459908299
 C    2.0617509634   -0.7465472872   -1.3328886700
 C    2.9905291187   -0.5876632938   -0.2827598759
 N    3.7403071594   -0.4500949327    0.5895043289
 H    1.1500091879    1.8282687724    0.2732545801
 H   -0.2619857939    2.0340012843   -0.7877131567
 H   -0.4793498194    1.8565143268    0.9648367795
 H    0.3716406044   -0.5038444617    0.8423105663
 H   -1.0449590530   -0.2906500311   -0.2010949696
 H    3.0927510244   -1.4632469969   -3.1693477286