16

 O   -0.0087657854    1.4120528550   -0.1980707761
 C    0.0220792450    0.0299813601   -0.0538407662
 C   -0.3068002332   -0.8649114845   -1.2323594135
 C   -1.2548276811   -0.7446835630   -0.0591795793
 O   -1.1816406495   -1.7844854846    0.8900496050
 C   -0.1486389323   -1.4717190772    1.8252200140
 C    0.8720352767   -0.5754293977    1.0714169179
 C   -0.7103203511   -0.7892525093    3.0097464662
 N   -1.1464114548   -0.2617465255    3.9407160405
 H    0.7305259803    1.6754125462   -0.7569792965
 H   -0.6048829359   -0.3641140719   -2.1476470914
 H    0.2299163769   -1.7997641363   -1.3557133536
 H   -2.2275668565   -0.2782617305   -0.1635291475
 H    0.2857735970   -2.4183489399    2.1586477880
 H    1.7042633353   -1.1798572484    0.7003963867
 H    1.2687513286    0.2178747473    1.7063806359