17

 C    0.1652197446    1.5859374900   -0.2887430132
 C    0.0409399057    0.0968881758   -0.0563561105
 C    1.2719294839   -0.8097056611   -0.0760261359
 C    0.5465900804   -0.5330933523    1.1939415050
 C    1.0042480540    0.0558525263    2.5240272815
 C    0.1834260928   -1.0781901152    3.1076216093
 N   -0.0845636504   -1.4747172677    4.2656156905
 O   -0.2029844676   -1.5729355474    1.8747440080
 H    1.0787963992    1.9831478357    0.1662298871
 H    0.2038005413    1.8148466433   -1.3589511236
 H   -0.6839706954    2.1289877419    0.1399812907
 H   -0.8611657909   -0.3619901131   -0.4533771605
 H    1.1647233558   -1.7986569453   -0.5079899511
 H    2.2471216926   -0.3528055632   -0.2171275671
 H    2.0736684794   -0.0006424976    2.7351649314
 H    0.6336788467    1.0549813939    2.7618408818
 H   -0.6880689822   -2.2984676239    4.2444738865