21

 C    0.0109918243    1.5723248545   -0.0664086353
 C   -0.0216675110    0.0440764317    0.0196460946
 C    0.7675412803   -0.5020852890    1.2136789570
 C    0.7332670986   -2.0331798598    1.2890159279
 N    1.4644655835   -2.5705022817    2.4255055656
 C    2.8338139432   -2.6628278125    2.5616737697
 C    3.0482474621   -3.1758606043    3.8140628172
 N    1.8531962515   -3.4006057181    4.4558465268
 C    0.9322838158   -3.0253488481    3.5971800371
 H    1.0374860330    1.9410414839   -0.1681584004
 H   -0.5600404331    1.9340492316   -0.9267422103
 H   -0.4160014315    2.0282015810    0.8334061069
 H   -1.0633896121   -0.2971716349    0.0854741817
 H    0.3790680642   -0.3844259742   -0.9087123732
 H    1.8112044818   -0.1691767261    1.1539714824
 H    0.3664944412   -0.0930419327    2.1493280350
 H   -0.3007695601   -2.3836097516    1.3707115800
 H    1.1449594125   -2.4674266851    0.3707561048
 H    3.5013461836   -2.3676164337    1.7686088262
 H    3.9924933566   -3.4017569855    4.2861458883
 H   -0.1362028544   -3.0622610754    3.7549980178