21

 C   -1.6265824724   -0.0538764011    0.2256468897
 C   -0.1052482323    0.0824637544    0.0069217882
 C    0.2647165524    1.4759493731   -0.2338394932
 C    0.5381663922    2.6308969602   -0.4252692437
 C    0.7253053414   -0.5342020361    1.1609725340
 C    0.5362870723    0.1700123925    2.4965669616
 C    0.6886719445   -2.0859430434    1.2087668381
 C    2.1848637989   -1.9959460481    0.8579303647
 O    2.1332831274   -0.5580031722    0.7902135119
 H   -1.9631839184    0.5659614497    1.0601985918
 H   -2.1665685489    0.2682928858   -0.6679840809
 H   -1.8973185923   -1.0938369036    0.4333145003
 H    0.1638346828   -0.4930449442   -0.8888484888
 H    0.7976974370    3.6450461599   -0.6027047075
 H   -0.4958550399    0.0814248404    2.8509864867
 H    1.1946624264   -0.2751261096    3.2474707537
 H    0.7832139824    1.2309845331    2.4044809111
 H    0.4519360364   -2.5147135883    2.1838445906
 H    0.0623967633   -2.5575463505    0.4489008973
 H    2.8747711710   -2.3449924241    1.6361803248
 H    2.4820644757   -2.4419249977   -0.0988201505