18

 O   -0.3191668954    0.8654390714   -0.9254412783
 C   -0.0464942251    1.3768401431    0.1397509941
 N    1.1894411642    1.4090851266    0.7069509352
 C    2.3752865995    0.8514817816    0.0727450420
 C    3.4078888051    1.9140389363   -0.2325863912
 C    4.3643841922    2.3875172538    0.8270066039
 C    4.8851398868    1.5556030671   -0.3367088035
 C    5.3448468410    0.2146113422   -0.1179072668
 C    5.7436798506   -0.9073205153    0.0553004035
 H   -0.8002340542    1.8797641829    0.7783424819
 H    1.2958448459    1.8930937724    1.5845303572
 H    2.8143059121    0.0746175666    0.7085365832
 H    2.0293826132    0.3712035967   -0.8452749266
 H    3.0731321141    2.6634266219   -0.9440808849
 H    4.6408299958    3.4352004003    0.8583310769
 H    4.3382602784    1.8956420114    1.7936962275
 H    5.4388693687    2.1001945849   -1.0957710026
 H    6.0950062771   -1.8978403539    0.2060995085