16

 C   -0.0305954196    1.3760905481   -0.0551561384
 N    0.0064126434   -0.0617072098    0.0240830974
 N    0.0748237229   -0.8120421015   -1.1225755162
 C    0.0973298510   -2.0674635101   -0.6934760579
 N    0.2275411994   -3.1258196380   -1.5968752700
 C    0.0559246750   -2.1536651463    0.7194781104
 C    0.0044970535   -0.8347744504    1.1358618472
 N   -0.1157767477   -0.2684169016    2.4112825120
 H    0.9743261695    1.8182612182   -0.0722270058
 H   -0.5468000500    1.6564415920   -0.9746920594
 H   -0.5803386632    1.7700658849    0.8036544848
 H    0.0248511944   -2.8225842994   -2.5415216165
 H   -0.3474322684   -3.9223331572   -1.3559412798
 H    0.0900575321   -3.0345318062    1.3399755278
 H   -0.1137230819   -0.9812248577    3.1288005263
 H    0.6122541196    0.4058076050    2.6196473482