18

 C   -0.0963392192    1.5359662787   -0.0753671975
 C    0.0632899388    0.0266731667    0.0040198479
 O    0.8633494937   -0.4260339518   -1.0764228382
 C    1.1887359147   -1.7737822636   -0.7868893337
 C    1.4838706316   -1.8118091629    0.7299613032
 C    0.7534360429   -0.5559686709    1.2836081445
 C    1.7414372533    0.4140573656    1.8906947237
 O    1.6257529951    0.9279390787    2.9735759186
 H    0.8740406155    2.0398232960   -0.0691300002
 H   -0.6137933624    1.8084827086   -0.9987599094
 H   -0.6823228702    1.9024343110    0.7723343094
 H   -0.9330039169   -0.4445789577   -0.0594066163
 H    0.3423301692   -2.4355827667   -1.0310059814
 H    2.0397532533   -2.0590004477   -1.4096259719
 H    1.1316949801   -2.7313012653    1.2015338469
 H    2.5615108593   -1.7439425170    0.9124259562
 H    0.0109886539   -0.7920597093    2.0486615117
 H    2.6263497374    0.6268964976    1.2458234265