18

 N   -0.1267395781    1.2852998761    0.1231766966
 C   -0.0749449226    0.0306754643    0.0106640892
 O   -1.2174289030   -0.6930195213    0.0345368398
 C   -1.0663323927   -2.0946878769   -0.0077824877
 O   -0.5956891374   -2.5332817220    1.2547989800
 C   -1.1571550201   -3.8097945556    1.5616526309
 C   -2.4678720579   -3.8780468290    0.7988176367
 C   -3.3626051153   -2.6749386583    0.9164332020
 C   -2.3940189026   -2.7788517159   -0.2337480400
 H    0.8119076429    1.6757205864    0.0689226423
 H    0.8278657177   -0.5801105917   -0.1182661014
 H   -0.3385656084   -2.3511599894   -0.7960019900
 H   -0.4837422830   -4.6188038298    1.2407786973
 H   -1.2659001141   -3.8632323462    2.6500079800
 H   -2.8865289525   -4.8496098548    0.5667263484
 H   -4.4125787828   -2.8092260600    0.6846553580
 H   -3.1533733385   -1.9424816136    1.6884772299
 H   -2.7477828716   -2.8989396022   -1.2494311922