19

 C   -0.0445520566    1.5334234721    0.1021917053
 N    0.1037521760    0.0961985904    0.1477863538
 C   -1.1102917927   -0.7251032921    0.3627400702
 C   -0.3827112329   -1.5238458341    1.4639020769
 C   -1.0871614337   -1.9902879140    2.7053145435
 O    0.5037809431   -2.5594026893    0.9082894120
 C    1.5963591171   -1.7023487661    0.9078520467
 N    2.8007332944   -1.9176696002    0.6417066610
 C    0.7780317950   -0.4997864391    1.3303826832
 H    0.9413868328    2.0038233159    0.0370907967
 H   -0.6068517680    1.8126299816   -0.7948689271
 H   -0.5727147891    1.9561626562    0.9788775766
 H   -1.9543019612   -0.1515547901    0.7762297182
 H   -1.4482996798   -1.2882511175   -0.5128839463
 H   -1.7871997595   -2.7981686122    2.4651138892
 H   -0.3700691889   -2.3697848816    3.4386362420
 H   -1.6535408716   -1.1718499169    3.1589688880
 H    2.9531488211   -2.8890877000    0.3631882720
 H    1.1443657446    0.1781988369    2.1024181780