21

 C   -0.1703580184    1.5842811073    0.0607311343
 C    0.0003123842    0.0952072815   -0.0498126470
 C   -0.0674865923   -0.5642003181   -1.2092568846
 C    0.1441684557   -2.0501313047   -1.2745214214
 C    1.5730099495   -2.5466719037   -0.8233088984
 C    0.9460358644   -3.1465910391    0.4347964298
 C    0.0607609561   -2.1589854322    1.1678072866
 C    0.2636995813   -0.6466880265    1.2444599475
 C   -0.4552631519   -2.8200342997   -0.0740991375
 H    0.7131075195    2.0549276060    0.5123971639
 H   -0.3360318095    2.0450577494   -0.9170227815
 H   -1.0202066002    1.8403727591    0.7074598438
 H   -0.2452737466   -0.0212119469   -2.1344989492
 H   -0.1441640961   -2.4572107960   -2.2443888727
 H    1.9592763519   -3.3188163278   -1.4941107025
 H    2.3385517136   -1.7750256052   -0.6930277302
 H    1.2926210907   -4.0442325423    0.9341470256
 H   -0.3370823875   -2.5896222285    2.0832806563
 H    1.2790276030   -0.4135603658    1.5992432122
 H   -0.4038694768   -0.2407855069    2.0174828848
 H   -1.3522174108   -3.4266106200   -0.1031314099