13

 C    0.0694713787    1.3792802280   -0.0656560519
 N   -0.0284437094   -0.0483430299   -0.2996678376
 C   -1.0989361284   -0.6158780251   -0.0035362383
 O   -1.1801831360   -1.9866214801   -0.2073437100
 C   -2.3486241541   -2.5832338205   -0.0100318726
 N   -3.5024750257   -2.0310431736    0.2423199779
 O   -4.3433871216   -3.0987686533    0.3491157913
 N   -3.6249289541   -4.2644659269    0.1414567735
 N   -2.4243835428   -3.9595439409   -0.0740386258
 H    0.9068918494    1.5711778228    0.6127743896
 H    0.3019383970    1.8786703287   -1.0116055716
 H   -0.8405472251    1.8286349503    0.3584981039
 H   -2.0067341281   -0.1758888996    0.4168109517