17

 C    0.1514829767    1.2224525454    0.3561023029
 N   -0.1018421752    0.0369871027   -0.4598121728
 C   -1.2355892364   -0.7204244038   -0.1831360886
 N   -1.2801329293   -2.0223674502   -0.0725523621
 C   -2.6301490359   -2.3352776606    0.0937151691
 N   -3.1841393103   -3.6278202581    0.2650282570
 C   -3.3689848243   -1.1937636212    0.0979789402
 O   -4.6911946178   -0.9581560859    0.2499141597
 N   -2.4843213694   -0.1479877404   -0.0729724764
 H    1.1042702771    1.6610533596    0.0503049230
 H   -0.6198704721    1.9788084739    0.1773586910
 H    0.1858381093    1.0194870879    1.4373696830
 H    0.6930609246   -0.5887011917   -0.4884646927
 H   -2.7601172188   -4.1010762788    1.0589454515
 H   -2.9965750012   -4.2142137524   -0.5444321460
 H   -5.0881856102   -1.8305712792    0.3806117256
 H   -2.7349823167    0.8146697530   -0.2176762945