16

 C   -0.0314151773    1.5516175920    0.0244255702
 C    0.0878624517    0.0424576443    0.0716128609
 C    1.3362357030   -0.7486589578   -0.2203396255
 C    2.5934248196   -0.0560694122    0.3231820736
 C    1.9621862112   -0.0611605119    1.7530597833
 C    0.7152163123   -0.7535860921    1.1861783853
 H    0.8567017632    2.0541291230    0.4162354327
 H   -0.1774722010    1.8987269976   -1.0045915452
 H   -0.8889098778    1.8932013497    0.6149628339
 H   -0.7947510788   -0.4616711551   -0.3199147776
 H    1.3415398918   -1.5380569901   -0.9634240570
 H    3.4790921308   -0.6927947868    0.2675374628
 H    2.8446171828    0.9165306259   -0.1126084748
 H    2.5195110275   -0.7004450749    2.4412630490
 H    1.8068072115    0.9082099165    2.2379527141
 H    0.1717373494   -1.5473580282    1.6860862442