20

 O    0.0367367278    1.4093964182   -0.0208778022
 C   -0.0141499935   -0.0031982646   -0.0051895927
 C   -1.4346019881   -0.4760194849    0.0201920656
 C   -2.5106050944    0.3120364695    0.0232349653
 C   -3.8800016171   -0.3413169556    0.0508453510
 N   -3.8226738379   -1.8197385418    0.0711989691
 C   -2.7958295785   -2.2403559789    1.0957875221
 C   -1.6876261751   -1.9749049584    0.0447967056
 C   -2.8234453207   -2.2697340293   -0.9681297914
 H    0.9598890173    1.6753405503   -0.0455052264
 H    0.4898254689   -0.4346010696   -0.8898764591
 H    0.5150623550   -0.4159094299    0.8736976404
 H   -2.4274576362    1.3930419282    0.0070304355
 H   -4.4485185157   -0.0114956864    0.9308612578
 H   -4.4719995333   -0.0365552952   -0.8227006251
 H   -2.7813960780   -1.6516471425    2.0166753786
 H   -2.9336898486   -3.3005835913    1.3302819604
 H   -0.7746306877   -2.5780935295    0.0411494470
 H   -2.9671154072   -3.3361450762   -1.1686411612
 H   -2.8339402669   -1.7074543222   -1.9054505502