19

 C   -0.2612465421    1.3633834255   -0.1024384750
 O    0.1734825422    0.0201550416    0.0860730888
 C    0.7734367750   -0.5193900631   -1.0216720839
 C   -0.0366356289   -1.0745007626   -2.1945826789
 C    0.0988999368   -0.6766114073   -3.6509716767
 C    0.8666426787   -2.0103467154   -1.4475286477
 C    2.3279128536   -1.8326687414   -1.8852705646
 C    2.2262183373   -0.3643609279   -1.3866276862
 O    3.0419251852    0.4860235080   -1.1641667410
 H    0.5833599024    2.0221246573   -0.3347765273
 H   -1.0046286690    1.4314425011   -0.9088000494
 H   -0.7199187387    1.6790840040    0.8366447711
 H   -1.0706596305   -1.1799903738   -1.8679132175
 H    1.1380436751   -0.5227823691   -3.9512154001
 H   -0.3258294571   -1.4476901599   -4.3032898642
 H   -0.4389517390    0.2566892986   -3.8462872925
 H    0.4918735251   -2.8549009040   -0.8844370876
 H    3.0410119683   -2.3813585084   -1.2629861550
 H    2.5682111357   -2.0021156331   -2.9374746325