17

 O    0.0508099763    1.4303523368   -0.4016881254
 C    0.0288073036    0.1109610971    0.0983576899
 C   -1.3749103667   -0.4948866218    0.0337799155
 C   -1.8317274817   -1.1801627999   -1.2227120055
 C   -1.5819336673   -2.0287752975    0.0078793358
 C   -0.4278399116   -2.9609140587    0.0416747632
 O   -0.4124430423   -3.9843405893    0.6790043698
 C   -2.3411413248    0.2548022876    0.7935267900
 C   -3.1041423799    0.9259911756    1.4383811266
 H   -0.5711353485    1.9480032760    0.1232778901
 H    0.7178792087   -0.4602466385   -0.5284228665
 H    0.3954701575    0.0613010361    1.1345131176
 H   -2.8592452118   -1.0560181067   -1.5413253519
 H   -1.1065594947   -1.2468940294   -2.0278487693
 H   -2.4440523057   -2.3878933425    0.5579493914
 H    0.4396951727   -2.6682226443   -0.5918479290
 H   -3.7942319337    1.4981827294    2.0082984077