21

 O   -0.4838208166    1.4482269811    0.5083010977
 C   -0.1473935240    0.1042520806    0.1958246787
 C   -1.4402333342   -0.7026365939    0.1673079888
 C   -1.2396716817   -2.1780521217   -0.2159291322
 C   -0.5607215804   -3.0219849853    0.9088185941
 C   -1.6950115474   -3.7518652136    1.5968745642
 O   -2.7893115976   -2.8979149779    1.9648504778
 C   -2.8999658927   -3.6784009418    0.7646394693
 C   -2.5917280323   -2.9025619486   -0.4979091469
 H    0.3299739734    1.9577762384    0.5582178511
 H    0.3512106308    0.0372578731   -0.7864662327
 H    0.5521051206   -0.3093441130    0.9398621728
 H   -1.9343950289   -0.6352594868    1.1408985021
 H   -2.1067586343   -0.2257076128   -0.5615004431
 H   -0.6198134130   -2.2085000526   -1.1191460495
 H    0.1321261472   -3.7618074800    0.4897625637
 H    0.0127237444   -2.4036354227    1.6065018407
 H   -1.4965642559   -4.5722298920    2.2827548203
 H   -3.6760618818   -4.4400362013    0.7770821329
 H   -3.3876550807   -2.1984762907   -0.7608550153
 H   -2.4966460949   -3.6114295187   -1.3296507745