13

 O   -0.3401554194    1.4293052003    0.2423060807
 C    0.0109610600    0.0766317051    0.0055339365
 C    0.6534053714   -0.5846577950    1.2410199253
 O   -0.4293344117   -1.0402661176    2.0577074080
 C   -1.5800419908   -1.1409203388    1.3281517547
 O   -2.6033883261   -1.5352301386    1.8005384156
 C   -1.2934102078   -0.7044136495   -0.1055175784
 H    0.4648970865    1.9342469777    0.3962357544
 H    0.6537147241   -0.0210586503   -0.8789042940
 H    1.2811673154   -1.4398816931    0.9607419006
 H    1.2523100384    0.1174647488    1.8278499290
 H   -2.1114534327   -0.1066502309   -0.5066880998
 H   -1.1797307475   -1.6007160782   -0.7241070324