20

 C   -0.1298874163    1.5763905881   -0.0984807973
 C    0.0366011775    0.0828058961   -0.0875727532
 C    0.0384814206   -0.6522287508    1.2326866036
 C    1.3199653018   -0.4647434327    2.0537851290
 O    1.3741156329    0.8685806061    2.5371944519
 C    1.3735696409   -1.4302623161    3.2367481491
 O    2.5450940891   -1.0897011754    3.9741435351
 N    0.1728337106   -0.6658831431   -1.1161879129
 O    0.1678088224    0.0546972381   -2.3232878734
 H    0.0374875089    1.9877938456   -1.0923211784
 H   -1.1465418073    1.8366350700    0.2223381439
 H    0.5544927090    2.0278054012    0.6235837381
 H   -0.8074741797   -0.3159262160    1.8459177491
 H   -0.0894929017   -1.7183547425    1.0235046961
 H    2.1904185396   -0.6725015817    1.4098902705
 H    2.0700097862    0.8703906569    3.2071880995
 H    0.4693446084   -1.3038399657    3.8501327765
 H    1.4139685747   -2.4700443369    2.8808812762
 H    2.4864628265   -1.4825027163    4.8490301320
 H    0.2863413259   -0.6472759051   -2.9709472653