17

 C   -0.0820765887    1.5686674359   -0.0956102813
 C    0.0173204722    0.0544828032   -0.0229035610
 C    0.6975558461   -0.6670001387   -1.1971529922
 O    2.0467126675   -0.1922544612   -1.2675845479
 C    1.7525499976   -1.2277455644   -0.3430390733
 C    1.1466878179   -0.5738675213    0.9262969836
 N    2.0072670249    0.3680712698    1.6176151398
 C    0.5755347473   -1.6043433830    1.8070463845
 N    0.1499971413   -2.4008394296    2.5307008008
 H    0.8880367677    2.0040069524   -0.3384984915
 H   -0.8049864640    1.8605331450   -0.8649378687
 H   -0.4228423870    1.9901046580    0.8554790116
 H   -0.9476263896   -0.4027717975    0.2104918367
 H    0.2570574275   -1.0557546558   -2.1073579785
 H    2.3167081683   -2.1513091519   -0.3986807640
 H    1.5295269972    0.7555711103    2.4262398102
 H    2.8388164238   -0.1018220211    1.9646238110