17

 O    0.0861862787    1.4053152275   -0.1013008755
 C    0.0449222457    0.0087320489   -0.0962312749
 C    0.4870873602   -0.7576513955    1.2139536917
 C   -0.9358277599   -1.3259690249    1.2952307132
 C   -1.4165332301   -2.5963710194    1.9306506593
 C   -1.4018035697   -2.5164553728    3.4500202499
 O   -0.9168370860   -3.3506182949    4.1677566458
 O   -1.8175701996   -0.1811748863    1.3444797199
 C   -1.3462764051   -0.6320863346    0.0607609619
 H   -0.5076864686    1.6934220577    0.6040946645
 H    0.5861557757   -0.3380928424   -0.9793046665
 H    1.2522924258   -1.5134010742    1.0206329307
 H    0.7925466460   -0.1283394607    2.0532901536
 H   -2.4560500268   -2.7691981309    1.6213540450
 H   -0.8099574791   -3.4516231062    1.6194901570
 H   -1.8955401029   -1.6091281453    3.8628452279
 H   -2.0988180142   -0.8730509560   -0.6823076636