14

 N   -0.0443714657    1.1228663697    0.6911044919
 C    0.0015426394    0.0057471889    0.1152287783
 N    0.9927502599   -0.8169320238   -0.4499745860
 C    0.0917707313   -1.9286513331   -0.7397725416
 C   -0.2883260779   -2.8421059870    0.4571569188
 O   -1.3039949442   -1.9208563405    0.9013926122
 C   -1.0821391575   -1.0285249703   -0.2014855548
 C    0.2033216491   -2.5183270695   -2.0572986932
 N    0.2909674521   -3.0144996813   -3.0975183646
 H    0.8799537035    1.5363468146    0.8242070915
 H    1.9612016125   -0.8992480206   -0.1684189392
 H   -0.7244912721   -3.8015324580    0.1594999906
 H    0.5045481209   -2.9990789158    1.1960574026
 H   -1.9863948712   -0.7479236334   -0.7394781165