20

 C    0.3334864201    1.5783651360    0.5354010501
 C    0.0352399162    0.1168822399    0.3092470197
 C   -0.8698369692   -0.6678324022    1.1985926105
 N    0.5895051387   -0.8953050633    1.2438549329
 C    1.0949647713   -2.0272199392    0.4180403930
 C    0.6138066406   -3.3724753357    0.9637964837
 O    1.0614762509   -3.5782741668    2.2896289288
 C    0.7091277789   -1.6857681229   -1.0053536551
 C    0.1550335237   -0.4756620307   -1.0617913499
 H    1.3325354859    1.8372927958    0.1693301884
 H   -0.3932881337    2.2071570639    0.0088815660
 H    0.2869463069    1.8201156879    1.6000578311
 H   -1.2657634089   -0.2191872688    2.1065932657
 H   -1.5155670154   -1.4049770637    0.7297681594
 H    2.1901146318   -2.0290001411    0.5237630833
 H   -0.4836752187   -3.4395807481    0.8924443525
 H    1.0295954861   -4.1857795247    0.3587844966
 H    0.8982087258   -2.7546576830    2.7641320611
 H    0.8785078200   -2.3516561193   -1.8438100835
 H   -0.1838823710    0.0368820259   -1.9543897744