16

 C    0.0360771712    1.4525765510   -0.0399053974
 N   -0.0287269643    0.0132821778    0.0843764877
 C    0.6029205513   -0.6750418218    1.0797579551
 N    1.1229697561    0.0232789834    2.0984574196
 C    1.6943094874   -0.6882497468    3.0701612918
 C    1.7663158849   -2.0749427955    3.0468804602
 O    2.3422955127   -2.8450245310    4.0166131546
 C    1.2051651649   -2.6966923734    1.9282468284
 N    0.6282066551   -2.0177317311    0.9486340602
 H    1.0501578374    1.8173962096   -0.2555656883
 H   -0.6283055784    1.7634801572   -0.8493553867
 H   -0.2944042703    1.9267503453    0.8874679035
 H   -0.2518756810   -0.5390983920   -0.7262994178
 H    2.1177562726   -0.1245297515    3.9032073000
 H    2.6811059100   -2.2737375787    4.7139879210
 H    1.2370198206   -3.7807834723    1.8408836080