16

 C    0.3192597585    1.4166478309   -0.4079674414
 C    0.1011679676   -0.0409658392   -0.0709138376
 N    1.3001433782   -0.8746676312    0.0301817529
 C    0.5444447152   -0.6054108168    1.2588656641
 C    1.1635130218    0.2398481450    2.2505839468
 N    1.6258922118    0.9296284246    3.0549802312
 C   -1.1089806088   -0.7787707492   -0.6235398552
 N   -2.0892303970   -0.0146174270   -1.1637108876
 O   -1.1657353260   -1.9967702720   -0.5752105449
 H    1.2635203253    1.7602289375    0.0170041309
 H    0.3653909881    1.5604733003   -1.4922609907
 H   -0.4769378134    2.0488629631    0.0006527600
 H    1.0441045966   -1.8152826248   -0.2763567094
 H   -0.0659959268   -1.4090427744    1.6600091979
 H   -2.0434642304    0.9876231377   -1.1960522850
 H   -2.9050684806   -0.4784512846   -1.5286490619