16

 C    0.0357607257    1.5161212909   -0.0261469987
 C   -0.0034828761    0.0625679702    0.0212762258
 C   -0.0340608472   -1.1409832526    0.0712532502
 C   -0.0358305454   -2.5782755338    0.0834922380
 C   -0.4536947507   -3.4137436930    1.2634820943
 N   -1.2530694232   -3.4039270197   -0.0386185661
 C   -2.3581366276   -2.6359435046    0.6456067459
 C   -1.5994646940   -2.7552547924    1.9825177044
 O   -1.8886690690   -2.6097216144    3.1329661531
 H    1.0691072320    1.8793353398   -0.0273329970
 H   -0.4522552169    1.8981260930   -0.9293574091
 H   -0.4705446252    1.9544035460    0.8404695956
 H    0.7813516461   -3.0285414999   -0.4769515508
 H    0.1391564712   -4.2566112576    1.6019794068
 H   -2.5472805633   -1.6429457933    0.2348938825
 H   -3.2770650765   -3.2274881986    0.6555256150