20

 N    0.0307337795    1.2029992665   -0.2283742300
 C    0.0435739620   -0.1340976454   -0.0079277955
 O    1.0719226158   -0.7749766353    0.1420579007
 C   -1.3201202920   -0.8429451837    0.0625149208
 O   -1.0907830235   -2.2261280123    0.0897639608
 C   -2.1307257271   -0.3823156239    1.2931974675
 C   -3.5175135136   -0.9853048992    1.3452874432
 C   -3.7306501431   -2.3680601499    1.9004481447
 C   -4.2182367801   -1.1667529735    2.6705638481
 H    0.9087224593    1.6901705008   -0.3027247743
 H   -0.8193717609    1.7043060116   -0.4164048172
 H   -1.8873537641   -0.5843469749   -0.8478439911
 H   -0.1246373870   -2.3091035016    0.1744122211
 H   -1.5660910866   -0.6616998064    2.1913637195
 H   -2.2039686095    0.7140007020    1.2938834988
 H   -4.1531312547   -0.7061150975    0.5074538371
 H   -4.4646924530   -3.0063576163    1.4216172646
 H   -2.8570704076   -2.8946242178    2.2650107729
 H   -3.6798689207   -0.8842135608    3.5697420590
 H   -5.2854587633   -0.9796256324    2.7185524393