18

 C    0.0818445639    1.5864032467   -0.2820598019
 C    1.5777380157    1.4115292300    0.1760056579
 C    1.0637554508    0.1107709266    0.8460558424
 C    0.9368545908   -1.4048691076    0.9926198319
 C   -0.5252411749   -0.7534875014    1.1180166607
 C   -1.3645216337   -1.3000252395    2.2976224928
 O   -0.3645360840   -0.6385836836    3.1715349632
 C   -0.0043485284    0.2546460232    2.0499514211
 N   -0.0818862963    0.0776360933   -0.1504716853
 H   -0.5006983491    2.2264368689    0.3872660163
 H   -0.0897166866    1.9013135892   -1.3129132318
 H    2.2533708077    1.2442787072   -0.6652383682
 H    1.9901296189    2.1660358777    0.8478758673
 H    1.1099059413   -1.9714786324    0.0781200893
 H    1.3056492484   -1.8868357863    1.8965384496
 H   -2.3540692231   -0.8499307766    2.4343953753
 H   -1.3972638952   -2.3820954641    2.4513767982
 H   -0.4837333962    1.2238080384    2.1880651314