13

 O   -0.0954557874    0.0213492041   -0.0733665236
 C   -0.1066714172    1.2062967058    0.0585073734
 C   -1.1334444779    2.2816608588   -0.0765689473
 C   -0.9490580797    3.2814321810    1.0198359732
 N   -0.0463589094    3.3612574717   -0.1188366752
 C    1.0175387006    2.3006176500    0.1304610296
 C    1.8414661918    2.4433514970    1.3059146358
 C    2.5123036010    2.5443121148    2.2988521901
 H   -1.9979051413    2.2775276036   -0.7299241077
 H   -1.6788407235    4.0843852429    1.0530728167
 H   -0.5614049808    2.9700806331    1.9857797614
 H    1.6283712234    2.2108573484   -0.7744438085
 H    3.1153977703    2.6346507387    3.1686642121