17

 C   -0.0677351403    1.4392345505   -0.0347762576
 C   -0.0417909875   -0.0410293853    0.1496139799
 C   -1.0019539291   -0.9421306813    0.3748568889
 C   -2.3919215483   -1.3237185492   -0.0836484881
 C   -1.6523396109   -2.5135866749   -0.8118743897
 C   -0.4601623204   -2.3168555251    0.1976985120
 O    0.8986225665   -2.1765593462   -0.1579375507
 C    1.2131637370   -0.8206714729   -0.1046341623
 O    2.3178234453   -0.4166607998   -0.3283149762
 H    0.5165311617    1.9345399471    0.7490492672
 H    0.3904761892    1.7223303295   -0.9880300112
 H   -1.0878307878    1.8292013401    0.0013215738
 H   -3.0466721706   -1.6801179013    0.7162822234
 H   -2.9308952297   -0.6020040605   -0.6986432009
 H   -2.1411163714   -3.4896198473   -0.8061302405
 H   -1.3598202546   -2.2361424063   -1.8254292621
 H   -0.5427032690   -3.0038726169    1.0454856640