18

 O   -0.0359737774    1.4282758905    0.1063875484
 C   -0.0144656247    0.0363602964    0.0136418768
 C    0.3451495034   -0.6470961365   -1.3232022776
 N   -0.7768150819   -1.6354233235   -1.1703661746
 C   -0.4034146382   -2.7231166110   -0.2026640043
 C   -0.6779081839   -1.8035784928    1.0067519035
 O   -1.3763131581   -2.2888806220    2.1127378948
 C    0.4730643916   -0.7835368849    1.2428901971
 C   -1.3224439709   -0.8106745967   -0.0068540787
 H    0.8647940120    1.7392334384    0.2521863427
 H    0.1363193297    0.0112853425   -2.1723021633
 H    1.3424096581   -1.0874116340   -1.4409575082
 H   -1.1406112657   -3.5300888993   -0.2608426158
 H    0.6025595227   -3.1392680138   -0.3334529905
 H   -0.7582825592   -2.7621889344    2.6813801738
 H    1.5058604254   -1.1481664976    1.2572822640
 H    0.2576738958   -0.2149788433    2.1523890885
 H   -2.3477364686   -0.4470123480   -0.0180313067