14

 O   -0.1287607597    1.4733238646    0.2056324071
 C    0.0330710771    0.0837087468   -0.0359032416
 C   -1.3243908717   -0.5334793082   -0.0026232170
 C   -1.7767625911   -1.8417149362    0.0215853128
 N   -3.1531788597   -1.8182349956    0.0239732009
 N   -3.5577766804   -0.5873435776    0.0061372713
 N   -2.4570148983    0.1942563952   -0.0157212414
 C   -1.0082339170   -3.0264094771    0.0417602828
 C   -0.3289178886   -4.0199945344    0.0593722746
 H    0.7187694402    1.9078160576    0.0757849747
 H    0.4992828813   -0.1030946317   -1.0158120680
 H    0.6705130412   -0.3965790675    0.7209913536
 H   -2.5291913248    1.2000213680   -0.0082443549
 H    0.2573550718   -4.9051170440    0.0755923049