19

 C    0.0139681572    1.6688526498    0.1156843046
 C   -0.0185205913    0.1516176841    0.0223810226
 C    1.0514784468   -0.4750918219   -0.9193449288
 C    1.9460294113   -0.7142293501    0.3287178915
 C    0.6876113325   -0.5699939796    1.2070543012
 O    0.8827625139    0.1141393859    2.4152733662
 O   -1.3800646059   -0.3067784603   -0.1167675116
 C   -1.9619359477   -0.2226291418   -1.3246749613
 O   -3.0971000428   -0.5459194856   -1.5186894418
 H    1.0286712307    2.0249878985    0.3092606666
 H   -0.3390874869    2.1236284039   -0.8154236860
 H   -0.6242543458    2.0108009712    0.9344721910
 H    0.6991219927   -1.4132843465   -1.3546430962
 H    1.4480931263    0.1612767406   -1.7127237122
 H    2.4950991611   -1.6543155220    0.3906829162
 H    2.6356033813    0.1138624711    0.5085446660
 H    0.2002750558   -1.5424473736    1.3571278659
 H    0.0810670948    0.0423471472    2.9433930626
 H   -1.2857644238    0.1611037690   -2.1113856163