22

 C   -0.7105051102    0.0608360552    0.6579634073
 O    0.1796568629   -0.8699302826    0.0828613716
 C    0.6434248600   -0.5427899841   -1.2193749601
 C    1.7946885815   -1.5000495402   -1.5267824142
 C    2.9538078310   -1.3797836022   -0.5451713370
 O    3.9861837788   -2.2463390773   -0.9943267447
 C   -0.4572516270   -0.6443951331   -2.2614673454
 C   -1.2431304565    0.5481983032   -2.6681364443
 N   -0.2600516386   -0.0437752042   -3.5898515654
 H   -0.2857657283    1.0772648299    0.6651569348
 H   -1.6770435646    0.0950612892    0.1383728495
 H   -0.8776860493   -0.2560651683    1.6904849575
 H    1.0214018746    0.4987970191   -1.2223050659
 H    1.4192535605   -2.5294195672   -1.5157556344
 H    2.1649700388   -1.3045320776   -2.5390580440
 H    3.3020472182   -0.3329725439   -0.5093399907
 H    2.6105410177   -1.6461437700    0.4629179944
 H    4.6786470996   -2.2569508687   -0.3275680852
 H   -0.9407390190   -1.6193896262   -2.2915644894
 H   -2.2801427726    0.4416314335   -2.9737816952
 H   -1.0055256855    1.4987400276   -2.1962621976
 H    0.5901009078    0.5174895877   -3.5900041217