16

 C   -0.1202995099    1.4098471125   -0.0698185759
 N   -0.1607186293   -0.0433382783   -0.1663550874
 C    0.5887116494   -0.6324616050   -0.9679413744
 O    1.5083801689   -0.1586778961   -1.8937174078
 C    1.9694620182   -1.5041772563   -2.2006734141
 C    0.8480888379   -2.1117285813   -1.3071012110
 O    1.2277173857   -2.9708851032   -0.2979841058
 C   -0.3061434395   -2.6907068697   -2.1067274763
 O   -0.8034641117   -3.7455126234   -1.8033307504
 H    0.6681061807    1.8759733179   -0.6715184214
 H   -1.0887867269    1.8139338203   -0.3841399686
 H    0.0180924557    1.6889715173    0.9795110418
 H    1.9372802735   -1.7002639128   -3.2754611658
 H    2.9646887077   -1.6966146247   -1.7942389463
 H    0.5890074532   -3.7033053967   -0.3173563842
 H   -0.6597259537   -2.0916756507   -2.9679902925