19

 O   -0.2064949980    1.4794805108   -0.5255719712
 C   -0.1842940294    0.0756369260   -0.2807037775
 C   -1.5882178045   -0.4722590288   -0.0422911990
 C   -2.3892360773    0.4081745954    0.9241673220
 O   -1.6185542829    0.8900171165    2.0089202315
 O   -2.3303279111   -0.5879064300   -1.2935920017
 C   -2.2324310747   -2.0300314830   -1.2746767791
 C   -1.6384905447   -2.0199243104    0.1393620039
 O   -0.4270123438   -2.7281079224    0.2364787715
 H   -0.7498137297    1.6186591976   -1.3099549065
 H    0.2947323191   -0.4697004129   -1.1022602856
 H    0.4233951906   -0.0678195166    0.6164500944
 H   -2.8290764409    1.2257936394    0.3365656871
 H   -3.2200039080   -0.1653495984    1.3492100358
 H   -1.0305357809    1.5580477126    1.6348775683
 H   -3.2072260620   -2.5085953176   -1.4122184776
 H   -1.5249307722   -2.4129176647   -2.0203828814
 H   -2.3468190957   -2.3248945945    0.9194016872
 H   -0.1591897539   -2.7503687692    1.1605262180