18

 C   -0.0637773821    1.5311018982    0.0059075019
 C   -0.0173479962    0.0250375786    0.0104912065
 C    1.2810862078   -0.7128410712   -0.2741506123
 C    0.6638068959   -0.7660739378    1.1001921417
 O    1.2491925888   -0.1137910082    2.1823205435
 C   -0.2419798953   -1.9563400021    1.3775028171
 O   -1.0667092791   -2.0768979070    0.2258848581
 C   -1.2731476756   -0.7698337208   -0.3107496155
 H    0.8287003218    1.9429946224    0.4845206181
 H   -0.1212845791    1.9294906607   -1.0131487268
 H   -0.9354109682    1.8991833059    0.5590306769
 H    1.2608553562   -1.6050915441   -0.8928730608
 H    2.1651743762   -0.0924106349   -0.3790617795
 H    2.0845843624   -0.5494468053    2.3810907432
 H    0.2808144659   -2.9110675510    1.5050408656
 H   -0.8263008371   -1.7505233818    2.2893223639
 H   -2.1479389796   -0.2835630072    0.1529262898
 H   -1.4728416927   -0.8889142744   -1.3811732413