16

 C   -0.0455931404    1.4530209405    0.0974392702
 C    1.2832216691    0.7463453484    0.0425648540
 C    2.0415373528    0.4266520492    1.3546933114
 C    1.0719124944   -0.4987017452    2.0349622630
 C    0.0047711883   -0.7678295752    1.2553342474
 O   -0.8530288285   -1.5674348973    1.9442401841
 C   -0.2108942862   -1.7412547323    3.1420940112
 N    0.9241462435   -1.1243168097    3.2623869034
 C   -0.0297439465   -0.0602894500   -0.0317296191
 H   -0.3830875243    1.8742402947    1.0389154238
 H   -0.3337383476    2.0223526372   -0.7806094878
 H    1.8712332523    0.8713476105   -0.8586322459
 H    3.0069511160   -0.0504361783    1.1475090964
 H    2.2509541546    1.3329900636    1.9337981781
 H   -0.7031748796   -2.3842387233    3.8542923762
 H   -0.3658183179   -0.5354783530   -0.9454148266