17

 C   -0.0505891697    1.4972522649    0.0630228857
 C    1.3824919441    2.0728428957    0.0110303607
 C    2.2096996203    1.3616319931   -1.0129949946
 C    3.2727134453    1.6632399353   -1.8203066256
 N    3.7007664627    0.5470839104   -2.5138496412
 C    2.9081452650   -0.4219682604   -2.1295866561
 N    1.9799322414    0.0087603847   -1.2163429202
 C    0.9188461123   -0.6818306593   -0.6152048030
 C   -0.0483321604   -0.0122591085    0.0132230777
 H   -0.5579370192    1.8492517375    0.9666760360
 H   -0.6359411001    1.8821531218   -0.7850009668
 H    1.3615100318    3.1464776590   -0.1946633526
 H    1.8438905793    1.9520977270    1.0017253850
 H    3.7622322248    2.6180277371   -1.9412588430
 H    2.9334700466   -1.4453148935   -2.4744981959
 H    0.9546473956   -1.7601270482   -0.7100724616
 H   -0.8658970898   -0.5617144565    0.4649075557