18

 C    0.0190745523    1.5460357423   -0.0817173901
 C   -0.0120545707    0.0906679261   -0.0567181473
 C   -0.0467730487   -1.1122774397   -0.0275806027
 C   -0.0722960924   -2.5721722792   -0.0022498410
 C    0.6864455189   -3.1909188543    1.1739597032
 C   -0.0457866836   -4.0846995779    1.8378268326
 C   -1.4264121010   -4.1620091521    1.2746484608
 N   -2.1530288247   -2.8652663812    1.4119580278
 C   -1.4713359340   -3.1934408872    0.1483528258
 H    0.4218660357    1.9514879049    0.8532042336
 H    0.6430649700    1.9206259891   -0.9010075971
 H   -0.9857632469    1.9624468731   -0.2146331873
 H    0.3674583143   -2.9403739255   -0.9424824705
 H    1.6956832611   -2.8807806626    1.4159634086
 H    0.2807082034   -4.6552103383    2.6989831163
 H   -1.9939659917   -5.0863347919    1.2803869811
 H   -3.1498664095   -3.0328003983    1.2830425005
 H   -2.0657854825   -3.3611961674   -0.7426180141