20

 C   -0.0037127964    1.5331282577    0.0203403045
 C    0.0326293513    0.0169127567    0.0401375643
 C   -1.1774792569   -0.6431202975   -0.6006902578
 C    1.3222735136   -0.7350919889   -0.1736426024
 O    2.4533011658   -0.0026153927    0.3020260467
 C    1.9313767797   -0.0659906654    1.6551327842
 C    0.6579189454   -0.7775206076    1.1930811914
 C   -0.0103214985   -1.8514012745    2.0048479646
 H    0.9666183100    1.9612318507    0.2783247248
 H   -0.2626194518    1.8926748801   -0.9819964246
 H   -0.7555468014    1.9241402785    0.7156868189
 H   -1.3403028815   -0.2362964678   -1.6046581339
 H   -1.0548286228   -1.7258117547   -0.7021620991
 H   -2.0893518595   -0.4653475912   -0.0187142702
 H    1.4921451557   -1.4800878574   -0.9451974214
 H    2.5686347796   -0.7053613429    2.2785030730
 H    1.8397110938    0.9231232529    2.1195210041
 H   -0.4962912375   -1.4254054234    2.8918159359
 H   -0.7793245273   -2.3831026036    1.4398181280
 H    0.7182827087   -2.5920918789    2.3540930890