19

 C   -0.0898585500    1.4299137022   -0.0166039810
 C    0.0447707430   -0.0774166806    0.0280572499
 C    1.4066417041   -0.6594229186   -0.2177176465
 C    0.7779734071   -0.6737308830    1.1945270349
 C    0.7208826765   -2.2063840986    1.1548833636
 O   -0.5545223108   -2.8103486084    0.9850900663
 C   -0.4756461963   -3.5173335095   -0.2384761676
 O    0.3754107806   -2.7892216882   -1.1037852768
 C    1.3505290433   -2.1920551991   -0.2595319239
 H    0.8019427646    1.9229051279    0.3853323164
 H   -0.2300715512    1.7807941861   -1.0443468584
 H   -0.9498984118    1.7644225212    0.5728598819
 H   -0.8118462668   -0.6217518045   -0.3587804589
 H    2.2307956790   -0.0616570284   -0.5868733194
 H    1.0507590906   -0.0885305675    2.0639849823
 H    1.2987534226   -2.7043794030    1.9396649444
 H   -0.0751786642   -4.5331586227   -0.0704804115
 H   -1.4733450865   -3.5745935377   -0.6832155257
 H    2.3241356861   -2.6810059578   -0.3636329200