18

 C   -0.0285062715    1.5494466924   -0.0343489638
 C    0.0419672781    0.0179431067   -0.0216294566
 N    0.6704408381   -0.5744478831   -1.2032572097
 C    2.1214634628   -0.4949360939   -1.2486303904
 C   -0.0974626377   -0.7056131437   -2.3375271382
 N   -1.2986133479   -0.2618209532   -2.4044134038
 C    0.4647116242   -1.5504713694   -3.4697574919
 O   -0.0642572385   -1.5937633130   -4.5507426308
 H    0.9655870703    2.0041562563   -0.0960414325
 H   -0.6273723978    1.8905798890   -0.8809061965
 H   -0.4976601087    1.9056088310    0.8882332659
 H    0.6086044936   -0.3297060314    0.8506671235
 H   -0.9689660374   -0.3903073430    0.0416509308
 H    2.5197142108   -0.9537981358   -2.1532166762
 H    2.4773253421    0.5447434112   -1.2292412964
 H    2.5516994524   -1.0155142901   -0.3857834448
 H   -1.6981158808   -0.5532217855   -3.2981780880
 H    1.3448565079   -2.1841800146   -3.2424727806