19

 C    0.4751563030    1.2873838325    0.3924083659
 N   -0.2063166073    0.1776154002   -0.2576638370
 C    0.5141575448   -0.5142961796   -1.3196372230
 C    1.1594803147   -1.8643582273   -0.9264545397
 C    2.2437631475   -1.7234595997    0.1598256005
 C    2.8599954936   -3.0015000398    0.4921611265
 C    3.3494475694   -4.0686162384    0.7481207029
 C   -0.3908253937   -0.7432152748   -2.4692571646
 N   -1.0937332715   -0.9435757313   -3.3641166194
 H    1.4299189040    1.0337470602    0.8822045807
 H    0.6747189651    2.0745667046   -0.3424838861
 H   -0.1892986284    1.7121496161    1.1498644120
 H   -0.6009580375   -0.4763507467    0.4056710217
 H    1.3058030221    0.1574420500   -1.6762275903
 H    0.3748150552   -2.5450478358   -0.5774687570
 H    1.5939706413   -2.3252917835   -1.8190271912
 H    3.0159209552   -1.0209032877   -0.1807507762
 H    1.8083370629   -1.2841399949    1.0651705065
 H    3.7910667197   -5.0056689140    0.9815863877