18

 C   -0.0523642276    1.0258957328   -0.7228097896
 C   -0.0294231170   -0.3794625300   -0.3596783759
 C   -0.0088563710   -1.5507139428   -0.0549872179
 C    0.0142966773   -2.8668295893    0.2874416602
 C    0.0452438013   -4.0367843989    0.6034193609
 C    0.0582934075   -5.4576073434    0.9567087948
 N   -0.7822134755   -6.3604913695    0.1593030728
 C   -2.0690139241   -5.8726506946   -0.3261253667
 C   -0.9356861384   -6.0962384819   -1.2676195689
 H    0.8897303718    1.3304765555   -1.1925462415
 H   -0.8613957988    1.2375592733   -1.4311345678
 H   -0.2069259769    1.6601788546    0.1574188470
 H    1.0873035317   -5.8341852145    0.8939890856
 H   -0.2493334051   -5.5704252110    2.0041977706
 H   -2.8869419546   -6.5844190402   -0.2615255237
 H   -2.3360104010   -4.8377451880   -0.1244400441
 H   -0.4638835830   -5.2070907364   -1.6796976064
 H   -0.9078682965   -6.9748637057   -1.9056146294