17

 C    0.0506422434    1.4900081889    0.1008178695
 C    0.0381402898   -0.0182358178    0.0328051588
 O    1.0470895885   -0.6943660049    0.0177065910
 N   -1.1985658476   -0.6600823795   -0.0030484630
 C   -1.2571413345   -2.1192708249   -0.1004600495
 C   -2.7507730735   -2.4165473657    0.1413157882
 N   -3.3632617256   -1.1427621644   -0.2018783297
 C   -2.4837392664   -0.0882511099   -0.0962183320
 O   -2.7638972567    1.0883349114   -0.0998983693
 H    1.0923909065    1.8068371918    0.1483939433
 H   -0.4449544186    1.9238794432   -0.7702864955
 H   -0.5013154591    1.8490841218    0.9722786641
 H   -0.9313175577   -2.4454804762   -1.0938941367
 H   -0.5988081024   -2.5808274893    0.6354509134
 H   -3.1141706887   -3.2265348138   -0.4961387968
 H   -2.9378848872   -2.6922050830    1.1881758650
 H   -4.3344033102   -0.9469767476   -0.0199532209