23

 C    0.3847850795    1.4530259171   -0.6518898444
 O    0.7557213591    0.1012086667   -0.5357264168
 C   -0.2324379885   -0.7833659487   -1.0164168471
 C    0.2570100849   -2.2207570812   -0.8346361398
 O   -0.8879348190   -3.0742283089   -0.9525980071
 C   -0.7238613387   -3.9895959543   -2.0343532835
 C    0.3733149341   -3.3995608197   -2.9170211825
 C    1.2866282252   -2.7364523267   -1.8720312397
 C    2.2811290805   -1.7187667995   -2.4290466719
 H    0.2176880458    1.7437534735   -1.7014680484
 H   -0.5350337598    1.6730927224   -0.0871053433
 H    1.2013137296    2.0549556378   -0.2452692490
 H   -1.1706368249   -0.6700641712   -0.4505293368
 H   -0.4649066415   -0.5772988926   -2.0754475566
 H    0.6588771876   -2.3005477653    0.1837599740
 H   -0.4275559090   -4.9781600969   -1.6500223536
 H   -1.6887361014   -4.1005177855   -2.5400166673
 H    0.8880672397   -4.1519506880   -3.5204779210
 H   -0.0398418625   -2.6463442081   -3.5985780995
 H    1.8557633685   -3.5350274797   -1.3780527161
 H    1.7758539785   -0.9183408171   -2.9781634639
 H    2.8647855617   -1.2516042823   -1.6323713379
 H    2.9736747407   -2.2100002420   -3.1205991980