15

 O    0.1729749063    1.4363127567   -0.0674257537
 C    0.1131459257    0.0556236017   -0.0582975191
 C    0.0008295655   -0.6651130561    1.3224573626
 O   -1.3768044227   -0.1225245922    1.4387971788
 C   -1.2923891439   -0.6175513679    0.0410714496
 C   -0.6031044253   -1.9134895804    0.5914383627
 O    0.2000044686   -2.6579651426   -0.2467897585
 C   -1.4756982532   -2.8029420202    1.4391991098
 O   -1.4035743413   -4.0062328995    1.3217970627
 H   -0.4697462856    1.7344267621    0.5922937718
 H    0.8174796776   -0.3467067513   -0.7840675541
 H    0.6373708869   -0.6146691231    2.2063320354
 H   -2.1791615891   -0.5110726070   -0.5844371607
 H   -0.0231681055   -3.5856846817   -0.0557040183
 H   -2.1599221339   -2.3130115884    2.1476974210