21

 C   -0.0644678896    1.4631571857    0.0589636917
 C   -0.0084426121   -0.0235653154   -0.0029846433
 C   -0.0107744267   -0.8751163016   -1.0334744898
 C    0.0769457682   -2.2615856175   -0.3691354914
 C    0.0837002754   -3.4912824011   -1.2377475353
 O    1.2055719359   -3.4102939470   -2.1087008124
 C   -0.9518874295   -2.0680935881    0.7991538317
 C    0.0831593222   -0.9686917558    1.2138288240
 C    1.1777689194   -1.9710779624    0.7132771262
 H    0.8211181280    1.8784871107    0.5578383081
 H   -0.1242764268    1.9010851627   -0.9417053756
 H   -0.9335618102    1.8099502211    0.6334547615
 H   -0.0422143199   -0.6846543346   -2.0970388657
 H    0.1344153166   -4.3924025751   -0.6053478934
 H   -0.8594412470   -3.5442070397   -1.8075738066
 H    1.2046262655   -4.1894812064   -2.6722556636
 H   -1.9594220518   -1.7392042470    0.5319156683
 H   -0.9871088428   -2.9158886536    1.4927579147
 H    0.0998485428   -0.5302110375    2.2121040705
 H    1.3454745372   -2.8118300217    1.3958551315
 H    2.1244537853   -1.5550089658    0.3639004289