23

 C   -0.1356215404    1.5376951072    0.0175417478
 C   -0.0527435188    0.0333108140    0.0029127121
 C   -0.0541551673   -0.6568302700   -1.1409181934
 C    0.0817567684   -2.1565449940   -1.2673898757
 C    1.4090916587   -2.7176207964   -0.7162649323
 C    1.5003085442   -2.7476556838    0.8160276882
 C    1.4064674720   -1.3933391794    1.5334004375
 C    0.0603825416   -0.6744429616    1.3522837826
 O   -0.0637203993    0.2196031846    2.4563507022
 H    0.6956368265    1.9775352069    0.5790395049
 H   -0.1231815023    1.9359981673   -1.0001228007
 H   -1.0536447611    1.8986403259    0.5005134037
 H   -0.1265755605   -0.1007094060   -2.0733475136
 H   -0.7512455936   -2.6634735876   -0.7563026394
 H   -0.0064321653   -2.4306305878   -2.3235266195
 H    1.5369333347   -3.7428974619   -1.0850876972
 H    2.2411334347   -2.1323329270   -1.1274137190
 H    0.7057438236   -3.4025703439    1.2018581393
 H    2.4457855302   -3.2238055008    1.1018106504
 H    1.5340786893   -1.5538210291    2.6094642413
 H    2.2164001450   -0.7283543371    1.2106730953
 H   -0.7341498533   -1.4393417576    1.4138108064
 H   -0.9350411472    0.6253698780    2.4199547191