18

 N    0.0597910091   -1.1748836562    0.0879412096
 C    0.0321412275   -0.0198089733    0.0525800890
 C   -0.0023036590    1.4453416915    0.0161732928
 C   -0.8958229867    1.9967230165    1.1610202851
 C   -0.7629503278    3.4900375423    1.3052385360
 C    0.3552853008    4.1447747526    0.9868200227
 C    1.5640489545    3.4632744886    0.4650133759
 C    2.1726832383    2.3159391800    1.2644329629
 C    1.4090198394    2.0284401932    0.0065061742
 H   -0.4731709975    1.7307166365   -0.9337577007
 H   -1.9346977072    1.7162691176    0.9611156436
 H   -0.6300349709    1.4928773484    2.0989625047
 H   -1.6173502142    4.0269166783    1.7056886638
 H    0.4106402675    5.2219500154    1.1152113551
 H    2.2593124948    4.0852965334   -0.0885647724
 H    3.2492788642    2.1904706031    1.2385994317
 H    1.7193242969    2.0899289366    2.2227781833
 H    1.9955799903    1.7274056554   -0.8554971972