20

 C   -0.2139636471    1.5026029890    0.0152039591
 C    0.0314761701    0.0011151405   -0.0321935957
 C   -1.1434428896   -0.8951116889    0.4298153068
 O   -0.3426302562   -1.5085459552    1.4601477728
 C    0.7939983310   -0.6606228080    1.1538212105
 C    2.0036029054   -1.3627452872    0.5676298588
 C    1.7312678843   -2.5319046793   -0.3044192906
 N    2.0007276864   -1.2264856958   -0.9104723810
 C    0.8014142980   -0.4531562155   -1.3005668490
 H    0.7270757260    2.0566262151   -0.0720892934
 H   -0.8622179507    1.8206089090   -0.8096332944
 H   -0.6967641445    1.7997262036    0.9516875415
 H   -1.9950027310   -0.3480542825    0.8544133620
 H   -1.5175671960   -1.6267531939   -0.2978466682
 H    1.0518336641   -0.0257121197    2.0083961742
 H    2.9632398165   -1.2472220696    1.0627325541
 H    2.5044071945   -3.2772268316   -0.4688763274
 H    0.7162321047   -2.9200861391   -0.2995904995
 H    0.1745441189   -1.0447273467   -1.9772085119
 H    1.1475428755    0.4215314857   -1.8612255786