16

 O    0.2235901812    1.2602370973   -0.4242796997
 C    0.0925596199   -0.0624799309    0.0013961030
 C    0.2100987929   -0.3440077796    1.5314019543
 C   -1.2780208534   -0.6984578561    1.5802214971
 O   -2.1072876594    0.4847162732    1.6570917763
 C   -2.4610967387    0.4033404959    0.2560055427
 C   -1.3878902264   -0.6655705794    0.0158464287
 C   -1.6561376570   -1.7936269163   -0.8326715995
 N   -1.8530039472   -2.7074902609   -1.5147640974
 H   -0.1489008039    1.8369882403    0.2524698977
 H    0.7615329684   -0.6597591920   -0.6196995552
 H    0.8585742598   -1.1976912424    1.7469517998
 H    0.5096896757    0.5018838506    2.1552589957
 H   -1.6402506270   -1.5153885697    2.2075637839
 H   -3.4837205090    0.0356117049    0.1160180153
 H   -2.3289873859    1.3515406450   -0.2738457627