22

 C   -0.5413941140    1.4094393710    0.1375033717
 C   -0.0853293608   -0.0092887519    0.0048109921
 C   -0.2071843835   -0.8049000010   -1.0598579298
 C    0.4107437906   -2.1617933054   -0.8437196096
 C    0.6605036811   -2.2196417495    0.6978611709
 C   -0.5129104951   -2.9501462443    1.3729805175
 C    1.9797209410   -2.9152611662    1.0499886918
 C    0.6458880140   -0.7194349042    1.1237242228
 H    0.3013608802    2.0795348669    0.3526224312
 H   -1.0310526178    1.7640838866   -0.7738533120
 H   -1.2467631711    1.5247047869    0.9707088782
 H   -0.6676984860   -0.5118958413   -1.9983492968
 H   -0.2291910918   -2.9862795602   -1.1830328647
 H    1.3521206154   -2.2575114828   -1.4047375799
 H   -0.5673519800   -3.9943958477    1.0456607165
 H   -0.4053450837   -2.9454576371    2.4635122059
 H   -1.4653304444   -2.4693244431    1.1258285440
 H    2.8318787854   -2.4099601043    0.5825460661
 H    2.1485406492   -2.9223605648    2.1330405425
 H    1.9815115676   -3.9570481375    0.7092293428
 H    1.6656792220   -0.3190108566    1.2260559949
 H    0.1660203117   -0.5741391135    2.1008581139