23

 C    0.1732400927    1.4301041612    0.2842951050
 C    0.0257570379   -0.0654363344   -0.0050339289
 C   -1.4336109640   -0.5402388086    0.0048324362
 O   -2.2265689792    0.2140510403   -0.9150707823
 C   -1.5456898452   -2.0553550145   -0.2388068712
 C   -2.9156385680   -2.6383572199    0.0771424272
 C   -4.0601315606   -2.3001905283   -0.8543779549
 C   -2.9890703985   -3.8680875981    0.8830048225
 O   -3.2413206188   -2.5932594511    1.4785909851
 H    1.2195224988    1.7440737148    0.2233971001
 H   -0.4080639231    2.0209225002   -0.4281291655
 H   -0.1917366450    1.6720285890    1.2884357848
 H    0.4669736218   -0.3041431869   -0.9848725466
 H    0.5912553778   -0.6486094798    0.7320090571
 H   -1.8734335641   -0.3213109899    0.9851227234
 H   -1.8645555109    0.0698407583   -1.7970999804
 H   -1.2787192837   -2.2765429522   -1.2824826309
 H   -0.8023086673   -2.5576730586    0.3896945876
 H   -3.8608306913   -2.6877762293   -1.8603440860
 H   -4.9891126231   -2.7462832951   -0.4904538117
 H   -4.1852199782   -1.2183676426   -0.9299130579
 H   -3.8573407402   -4.5206076688    0.7930847634
 H   -2.0740583377   -4.3639783156    1.2066568041