16

 C   -0.2582974940   -1.1971188663    0.2042803852
 C   -0.1881737688    0.0013435536    0.1661865153
 C   -0.0801184451    1.4529558647    0.1040628260
 C    1.3222803242    1.9285192019   -0.2711508352
 C    1.5997746522    3.4454509569   -0.1960481196
 C    2.6960142843    3.0453641646    0.8247774012
 O    2.2977021588    1.6646590033    0.7733848731
 C    4.0799819146    3.2541722854    0.3833106593
 N    5.1654696765    3.4359108361    0.0312208701
 H   -0.3226403556   -2.2562522225    0.2458362327
 H   -0.7827916735    1.8498074947   -0.6418236256
 H   -0.3578400576    1.8954146729    1.0689421354
 H    1.6360006418    1.4613572966   -1.2114966653
 H    1.9506149032    3.9216485592   -1.1103700132
 H    0.7930214041    4.0347367274    0.2427883357
 H    2.5848121451    3.4620561817    1.8320717047