19

 C   -0.0366771446    1.5004273781   -0.0839202629
 N   -0.0249548932    0.0470613003   -0.0412269332
 C   -1.3846802919   -0.5198740320    0.0314787023
 C   -1.3986494922   -2.0691706047   -0.0380952570
 N   -0.2786346869   -2.7718588978    0.6062954350
 C    0.5660055127   -1.9840116767    1.0855657081
 O    1.8644740286   -2.2125444265    1.4737346714
 C    2.1855351144   -0.8032184032    1.1814098798
 C    0.6701649421   -0.4877743332    1.1040491963
 H    0.9898807700    1.8774459955   -0.1304354749
 H   -0.5633709222    1.8401058179   -0.9808123945
 H   -0.5294222784    1.9533583772    0.7975895010
 H   -1.8858989046   -0.1834937756    0.9604314718
 H   -1.9701270965   -0.1256369961   -0.8051295422
 H   -2.3465114050   -2.4298786402    0.3771450087
 H   -1.3819364992   -2.3849190174   -1.0882369657
 H    2.7546767887   -0.3492028779    1.9941383936
 H    2.7138650622   -0.7264752703    0.2278523713
 H    0.3283654757   -0.0494015276    2.0605159811