16

 C   -0.0426400990    1.5280733246    0.0236320828
 N    0.0947917333    0.0791293458   -0.0163435063
 C    0.7865482655   -0.5429644848   -1.1385329704
 C    2.3121287473   -0.5948615499   -0.8400690340
 C    2.4926209249    0.0193372627    0.5456059014
 C    1.0918795223   -0.5928597866    0.8668622403
 C    1.3481872889   -1.6336207507   -0.2919353259
 H    0.8807942626    2.0891967619   -0.1889132813
 H   -0.7944149213    1.8305887022   -0.7134517743
 H   -0.4080264307    1.8259736274    1.0123994409
 H    0.3823175854   -0.5763309876   -2.1432253667
 H    3.0468728841   -0.7202292506   -1.6254474312
 H    3.2697807419   -0.5063308862    1.1067084045
 H    2.6318815087    1.1000624861    0.6552624668
 H    0.7801624250   -0.7932278934    1.8912087809
 H    1.2967435612   -2.7101910211   -0.3538644375