19

 C    0.3329753796    1.4401814235   -0.5512463124
 C    1.5949672298    1.5567308140    0.3515511969
 C    1.4767019160    0.0433140793    0.6886037048
 C    0.0600427415    0.0299011443    0.0541824471
 O   -0.0653648174   -1.0883367983   -0.8129289110
 C    1.1981831632   -1.6647621304   -1.0657347756
 C    1.9801830867   -1.1070921663   -2.2712013799
 O    2.8286108713   -0.3184547774   -1.4043693384
 C    2.2576487572   -0.9162824816   -0.2140737244
 H   -0.4518806497    2.1855819486   -0.4035620807
 H    0.5751893142    1.3906188699   -1.6140738635
 H    2.5165504320    1.8599246589   -0.1449937957
 H    1.4343478127    2.1833299865    1.2314897867
 H    1.5666296164   -0.2487305905    1.7369526840
 H   -0.7862465110    0.0086498763    0.7456128020
 H    1.1114594222   -2.7515605985   -0.9983821342
 H    2.5600131766   -1.8562190986   -2.8251067508
 H    1.4003663235   -0.4959090787   -2.9703726280
 H    3.0019038653   -1.5144938109    0.3206874632