17

 C    0.0487447651    1.3300732069    0.3253402696
 C    0.0247667757   -0.1792096008    0.1861614457
 O    1.0131281469   -0.8664331112    0.2462099221
 C   -1.3631260542   -0.7880766454    0.0040500209
 O   -1.3806891024   -2.2291256503   -0.0380555993
 C   -2.1916058237   -2.3098431819    1.1434165802
 C   -1.3851668543   -2.2554059388    2.4563960654
 O   -1.4951425182   -0.7999574859    2.4971110999
 C   -2.2522170309   -0.7795548737    1.2808477475
 H    1.0735540991    1.6921955660    0.2343592745
 H   -0.5912937303    1.8184317741   -0.4166960423
 H   -0.3348266332    1.5917806636    1.3186550192
 H   -1.8489281058   -0.3602314622   -0.8847152033
 H   -3.0245837674   -3.0066674456    1.0463425750
 H   -1.8693362848   -2.7049032002    3.3306376450
 H   -0.3497964913   -2.5952392344    2.3661104984
 H   -3.1292868306   -0.1323747502    1.3228469115