21

 C    0.9381705985    1.1886271793   -0.7535233158
 C    0.0661924252    0.1410190220   -0.0557097088
 C    0.5171420112   -0.1368567431    1.3665776801
 C   -0.0790647145   -1.3637743725    2.0924098382
 C    1.3723606693   -1.8683961006    2.1403943618
 O    1.8566579186   -0.7153707699    1.4173577934
 C    1.9997832392   -2.0233392415    3.5257215737
 C    3.4540915283   -1.6262478398    3.6469694986
 O    1.3481796507   -2.4623741066    4.4454711795
 H    1.9833415315    0.8666636655   -0.7658192082
 H    0.6168032986    1.3472892003   -1.7869539465
 H    0.8893173974    2.1529794519   -0.2357028097
 H   -0.9802609055    0.4730407079   -0.0227238152
 H    0.0831509651   -0.7995944698   -0.6203205553
 H    0.4894783497    0.7891993560    1.9581592930
 H   -0.5256145820   -1.1880320824    3.0709680608
 H   -0.7581641583   -1.9638354114    1.4845246473
 H    1.5696526407   -2.7991768621    1.5862465940
 H    4.0631668967   -2.2152629400    2.9510312976
 H    3.5758170077   -0.5804862012    3.3507942993
 H    3.7997943919   -1.7838792020    4.6689429319