19

 C   -0.0913273461    1.5500333735    0.0223705914
 C   -0.0354603340    0.0366691624    0.0381511086
 C    1.2669131499   -0.7001711658   -0.2335499176
 C    0.7127712340   -0.7258657090    1.1678256254
 C    1.4061998288    0.0732716833    2.2654872672
 C    0.1512083454   -1.9662719580    1.6472537826
 C   -0.2797436887   -2.9919443876    2.1049715418
 C   -1.2570693815   -0.6246212575   -0.5067173745
 O   -2.2175580480   -0.0214102372   -0.9192788703
 H    0.8732966240    2.0028526636    0.2565659318
 H   -0.3973426834    1.8901020317   -0.9706603054
 H   -0.8336563217    1.9245502637    0.7332571080
 H    1.2258397764   -1.6161229103   -0.8130373503
 H    2.1432187315   -0.0867152549   -0.4144074805
 H    1.9077453340    0.9576448869    1.8692187096
 H    0.6897434953    0.3925449078    3.0278213438
 H    2.1587908195   -0.5535342670    2.7527918015
 H   -0.6723837455   -3.8980378498    2.4955354347
 H   -1.2213532699   -1.7338700760   -0.5235337177