15

 O   -0.2492520196    1.4029796717    0.1265726667
 C    0.0475506073    0.0202641960    0.0092476139
 C   -1.2900087029   -0.7066442210   -0.0245654711
 C   -1.1671673317   -2.1931996281   -0.1571463085
 N   -0.0677137870   -2.8111594001   -0.1722025395
 O   -2.4289577004   -2.7741091211   -0.3013689214
 C   -2.6984560033   -3.9462522748    0.3422702948
 O   -3.6991668548   -4.5591367122    0.1451398058
 H    0.5817706084    1.8856860837    0.1509003347
 H    0.6122259152   -0.2022440408   -0.9070402312
 H    0.6469952678   -0.3442949884    0.8547928261
 H   -1.8636506502   -0.4776215553    0.8822021279
 H   -1.8984969377   -0.3332579691   -0.8568709689
 H   -0.1688404426   -3.8142883584   -0.3231182599
 H   -1.9106536084   -4.2228856422    1.0636051108