14

 N   -0.0938083276    1.3563051415    0.1265236939
 C    0.0079113157   -0.0052723633    0.0275150570
 N   -0.9777482794   -0.8913662512    0.0243897587
 H   -2.0111829728   -0.8876467735    0.0291481786
 C   -0.4834808702   -2.1890254144    0.0008907649
 C    0.8656490590   -2.0807716413   -0.0144714602
 N    1.1598254367   -0.7054449952    0.0036439308
 C   -1.6054133286   -3.2611535061   -0.0169318807
 O   -2.7254771983   -2.6898887284   -0.0001832407
 O   -1.2419045935   -4.4326516344   -0.0452866038
 H    0.6176392589    1.8909353839   -0.3508228028
 H   -1.0213791038    1.7214274125   -0.0335910113
 H    1.6406575137   -2.8248398364   -0.0453131336
 H    2.0790880201   -0.2960596736    0.0507212492