13

 C    0.0339653265    1.4728942210    0.0097350166
 N   -0.0185812784    0.0155183288    0.0022670529
 N   -0.0037612830   -0.5817247706   -1.1879658309
 C    0.0209417904   -1.8844620086   -1.2098025362
 C    0.0431397758   -2.7225917262   -0.0129619618
 O    0.0647561261   -3.9458546515   -0.0197485268
 C    0.0353611234   -1.8975099745    1.1930749372
 N    0.0104871869   -0.5946043798    1.1856772924
 H    1.0721165342    1.8205091687    0.0023145194
 H   -0.4763572832    1.8386806480   -0.8802721800
 H   -0.4603051122    1.8286006576    0.9127556138
 H    0.0237646374   -2.3501146392   -2.1907531227
 H    0.0499171861   -2.3737686835    2.1688140961