18

 C    0.2705750180    1.4990343572   -0.1396209039
 C    0.1993171672   -0.0168587830   -0.0472440405
 O    1.1824531968   -0.7208918509   -0.1824270732
 N   -1.0496442182   -0.5268897821    0.1991860589
 C   -1.3040543825   -1.9378843824    0.3194391759
 C   -2.0411980064   -2.4428272059    1.6016978370
 C   -2.9537868172   -3.2703994408    0.6811946698
 O   -3.7271092778   -4.1633935191    0.8651012159
 C   -2.4246317463   -2.5591468010   -0.5754420968
 H    0.6789771608    1.7712289624   -1.1163079975
 H   -0.6928169546    1.9977718807   -0.0047334705
 H    0.9691113581    1.8634628560    0.6181681081
 H   -1.8218759946    0.1118744345    0.3009332947
 H   -0.3431656214   -2.4312202864    0.1765892369
 H   -1.4612263102   -2.9902627069    2.3482341754
 H   -2.6024548261   -1.6498150405    2.1103421955
 H   -3.1399431603   -1.8128740602   -0.9415074623
 H   -2.1238402052   -3.1912735016   -1.4140779934