19

 C   -0.0643339972    1.6037831363   -0.1553631476
 C    1.5226005409    1.6996248721   -0.0277731697
 C    2.2911605868    1.7368424857    1.3648077395
 C    1.5579960231    0.3976147861    1.6588900862
 C    1.1202720317   -1.0218673003    2.1371926681
 C   -0.2330659016   -0.3673673251    1.6043667139
 O    0.2599832872    0.8596944864    2.1673311917
 C   -0.0597662733    0.0255392901    0.0805319428
 C    1.4531035936    0.1742744988    0.1054983126
 H   -0.6890343735    2.2147572895    0.4941679267
 H   -0.3149738459    1.8013353273   -1.2018642666
 H    2.0073441470    2.2227737157   -0.8527961350
 H    3.3620102987    1.6442054585    1.1617458810
 H    2.1140390350    2.5282599772    2.0967768270
 H    1.5592457956   -1.8904147381    1.6380335512
 H    1.0527425637   -1.1586861052    3.2166881972
 H   -1.2059123820   -0.6874604313    1.9831955995
 H   -0.5766812486   -0.5867027776   -0.6577981501
 H    2.1798983789   -0.5314079360   -0.2964149684