20

 C   -0.6177131719    1.4231110167   -0.1149303086
 C    0.3926057894    0.3065591219    0.2063863246
 C    1.0706322908   -0.2122743260   -0.9770382225
 C    1.6101526801   -0.6184952707   -1.9762872473
 C    2.2737694918   -1.1212167434   -3.1628183328
 C    3.7734358641   -1.5568475189   -3.0639178804
 C    3.3022674596   -2.9449162984   -3.4785549208
 C    2.2479973049   -3.4467903285   -2.5787253580
 N    1.8549376478   -2.5074004091   -3.6460264369
 H   -0.1201417012    2.2712741246   -0.5928809742
 H   -1.3930115502    1.0603898440   -0.7949695399
 H   -1.0991494545    1.7770277953    0.8015918093
 H    1.1393605888    0.6804525893    0.9189424706
 H   -0.1219851030   -0.5174754255    0.7173019572
 H    2.1186245917   -0.4329824509   -3.9978659395
 H    4.3942097637   -1.0583991473   -3.8100520532
 H    4.2523268602   -1.4748919427   -2.0850369228
 H    3.7865356204   -3.5749206000   -4.2175605573
 H    1.8713066264   -4.4497649983   -2.7537562282
 H    2.2043744811   -3.1154245321   -1.5440009394