15

 C    0.0298769784    1.4297356432   -0.0675270109
 O    0.0068094012    0.0058807532   -0.0058575506
 C    0.5909063139   -0.6332033705   -1.0307928536
 N    1.1623472357    0.0003213771   -2.0514327405
 N    1.6161645409   -0.9965736732   -2.8405089589
 C    1.3462117386   -2.2377460421   -2.3452236157
 C    0.6701434225   -2.0368007731   -1.1510485027
 C    1.7339616474   -3.4169159909   -3.0149707467
 C    2.0710534785   -4.4153663536   -3.5975195210
 H    1.0583231452    1.8050481447   -0.0871298061
 H   -0.4896752273    1.7922814961   -0.9606095374
 H   -0.4806006099    1.7758949618    0.8320562222
 H    2.0973326473   -0.7756058913   -3.6949429846
 H    0.2951111393   -2.7864186324   -0.4765097281
 H    2.3653142582   -5.3000988688   -4.1058226356