18

 O   -0.0763915960    1.4441917642    0.0059203874
 C   -0.0064850396    0.0222047033    0.0130093957
 C    0.6758335006   -0.5869362983    1.2576061819
 C   -0.0048458402   -1.9622708083    1.4544004300
 C   -1.4088726407   -1.7758504032    0.8897819983
 C   -2.1689554140   -0.5319550990    1.3162285831
 C   -1.4070907469   -0.5570638986    0.0135931549
 O   -2.1009743791   -0.5489414117   -1.1951697133
 H    0.8083357409    1.7881107990   -0.1506969802
 H    0.4852014311   -0.3340231977   -0.9060599454
 H    1.7610613942   -0.6659172101    1.1465863454
 H    0.4850537662    0.0739215848    2.1091306750
 H    0.5182073213   -2.7352615653    0.8792765968
 H    0.0015173109   -2.2817590313    2.5021650814
 H   -1.9898610379   -2.6462389270    0.6068380250
 H   -3.2470388729   -0.5820869910    1.2131800444
 H   -1.8191485825    0.0677948937    2.1496758344
 H   -2.2931667654    0.3735621164   -1.3998108349