13

 C    0.0102007953    1.4785279078   -0.0006706091
 N   -0.0120577890    0.0266488048    0.0247593489
 C   -0.1350699857   -0.8453670002   -1.0378213624
 N   -0.1238073390   -2.1124854691   -0.7042288084
 N    0.0146794532   -2.0381884256    0.6527485480
 N    0.1041893804   -2.8997286546    1.6888461467
 N    0.2234598922   -2.1287443517    2.7333174511
 N    0.2171420331   -0.7898792992    2.4358648376
 C    0.0848313814   -0.7818221492    1.1257947504
 H    0.9521775230    1.8507883737    0.4097869822
 H   -0.0875594405    1.8114009532   -1.0348149590
 H   -0.8186307956    1.8811787385    0.5869655565
 H   -0.2317359788   -0.4973995384   -2.0548519825