21

 C   -0.1688832561    1.5822741113    0.0125005051
 C   -0.0353853755    0.0834950720    0.2692621316
 O    0.4102464880   -0.2045555241    1.5928582687
 C   -1.3570605038   -0.6456945879    0.0340914985
 O   -1.9597229680   -0.4511368592   -1.2785115932
 C   -2.2386987237   -1.8573232868   -1.3652052009
 C   -0.9794321314   -2.6528627467   -1.4755516667
 C    0.2354043984   -2.2058150418   -2.2602819318
 C   -1.4456659016   -2.1619520427   -0.1083787182
 H    0.7828350319    2.0869431543    0.1994225387
 H   -0.4780189143    1.7702545585   -1.0193979736
 H   -0.9281153991    2.0219519936    0.6726565501
 H    0.7384223453   -0.3317418390   -0.3804345994
 H   -0.1664064467    0.2676429133    2.2042881324
 H   -2.0737963069   -0.3007506109    0.7982497449
 H   -3.2262437259   -2.1476115099   -1.7059113722
 H   -1.1938622217   -3.7178454225   -1.5587680339
 H    0.2278547832   -1.1237721624   -2.4047378648
 H    1.1697365416   -2.4877041757   -1.7638708449
 H    0.2317405650   -2.6709381961   -3.2519841889
 H   -1.6598441387   -2.8444204373    0.7024769285