19

 O    0.3092239752    0.9524584501   -0.6933422760
 C    0.1341889264   -0.1666887352    0.1211931978
 C    0.0741533963   -0.0312579573    1.6705426271
 C   -1.0515890242   -1.1042967857    1.6726854169
 C   -1.2865670895   -0.8045473145    0.1646577854
 O   -2.1924915285    0.2719852818   -0.0225112274
 C   -1.6030706796   -1.9558485659   -0.8011464253
 C   -2.9794086649   -2.4160070093   -0.6505134958
 C   -4.1311233394   -2.7227051875   -0.4845818730
 H   -0.5273537118    1.4353369889   -0.6626366749
 H    0.8834131324   -0.9091019154   -0.1742146696
 H    0.9869018404   -0.2416554982    2.2310555870
 H   -0.3066855745    0.9519439336    1.9561257912
 H   -0.6692364338   -2.1158245646    1.8361367417
 H   -1.9071990097   -0.9363616321    2.3289896087
 H   -3.0880802136   -0.0862305639    0.0148328706
 H   -1.4397396848   -1.6015363080   -1.8267985333
 H   -0.9045919854   -2.7831074974   -0.6300226913
 H   -5.1393562010   -3.0310667994   -0.3563892098