13

 C    0.0495008103    1.4284429494    0.1018272310
 N    0.1175436608   -0.0186517153    0.0412655363
 C    0.5340686597   -0.5867055973   -1.0208158574
 C    0.5916898514   -2.0498849007   -1.0523806023
 N    0.9835741655   -2.7687498434   -2.0362284285
 O    1.3922891217   -2.0417965854   -3.1855268856
 C    1.3364777305   -0.6981633681   -3.1490853051
 N    0.9561994753    0.0582828015   -2.1991369631
 H    0.6599895414    1.7696304523    0.9463083597
 H    0.3759400445    1.9363009994   -0.8108210003
 H   -0.9830885636    1.7181656592    0.3300054222
 H    0.2785806114   -2.6046665290   -0.1721421108
 H    1.6808952110   -0.2949048726   -4.0999612260