17

 C   -0.0438916864    1.5197344571    0.0491394109
 N    0.1032478395    0.0702716074   -0.0084763819
 C    0.7860178729   -0.5447696221   -1.1400813064
 C    2.3150679641   -0.5914011910   -0.8610331579
 C    2.5168865425    0.0198561504    0.5214912363
 C    1.1160398844   -0.5973024815    0.8620834808
 C    0.7369996526   -0.8726260825    2.2270896689
 N    0.4537369380   -1.0952678789    3.3256070211
 C    1.3653861854   -1.6380076632   -0.3107882622
 H    0.8694776802    2.0854084741   -0.1869528131
 H   -0.8187706714    1.8152607645   -0.6650502056
 H   -0.3853101347    1.8023786145    1.0497008219
 H    0.3633081585   -0.5786653513   -2.1359029295
 H    3.0456306499   -0.7133144041   -1.6495006809
 H    3.2990578977   -0.5040062103    1.0744969046
 H    2.6377370068    1.1003015050    0.6391859476
 H    1.3127636801   -2.7151201980   -0.3521050647