24

 C    0.1073805563    1.5921843943    0.2696293078
 C   -0.0219255343    0.0939566067    0.0584787128
 C   -1.3529205192   -0.3864639057   -0.5010983388
 C   -1.6387225602    0.0810242636   -1.9316484682
 N   -2.8704512853   -0.5222602156   -2.4322711046
 C   -4.1026219181    0.2161979598   -2.1743000938
 C   -3.5209223995    0.1603115033   -3.5435621937
 C    1.2196434123   -0.6691487402   -0.3446467402
 C    0.6696336915   -0.8049024489    1.0563425403
 H    1.0724668217    1.8430272377    0.7210612723
 H    0.0328840276    2.1475840387   -0.6718833220
 H   -0.6784207699    1.9650959256    0.9378994332
 H   -1.3813056963   -1.4818896935   -0.4961899743
 H   -2.1691417921   -0.0536407345    0.1550250944
 H   -1.6815835768    1.1845860539   -1.9754308836
 H   -0.8201755652   -0.2329351973   -2.5907751616
 H   -4.9721359368   -0.3815200876   -1.9160130053
 H   -4.0280608605    1.1649041543   -1.6436938204
 H   -3.0611479925    1.0715836618   -3.9240849688
 H   -3.9558316327   -0.4809299547   -4.3051515016
 H    1.1080302999   -1.5126090921   -1.0183622854
 H    2.1429582862   -0.1155409508   -0.4801741255
 H    1.2201876509   -0.3398391314    1.8676163265
 H    0.1874712332   -1.7386253673    1.3263900605