20

 C    0.0320232373    1.3671268797    0.3946454035
 C    0.0289280248   -0.0992120249    0.0322396167
 C    1.3194333053   -0.8623474377   -0.1214956757
 N    0.4231887128   -1.1065945505    0.9900986264
 C    0.6691112744   -0.9099874292    2.3425099683
 O   -0.0649895710   -0.2411332801    3.0457222161
 C    1.8432105224   -1.6611423862    2.8762896115
 C    2.6276220210   -1.0006170548    3.9999052025
 C    1.7453541573   -2.1642903899    4.3052708565
 H    0.9337529579    1.6397767888    0.9498402783
 H   -0.0114002132    1.9748570834   -0.5149757519
 H   -0.8279134600    1.6122212508    1.0226039353
 H   -0.7993704110   -0.4099387361   -0.6034979793
 H    1.4065119880   -1.6603366123   -0.8549703144
 H    2.2413767949   -0.3196191976    0.0785884220
 H    2.3923333737   -2.2669222140    2.1656803331
 H    3.7027142675   -1.1395526045    4.0027005304
 H    2.2803107129   -0.0200433996    4.3039661475
 H    0.8079467915   -1.9588205606    4.8083404745
 H    2.1983239434   -3.1243868547    4.5236916985