18

 C    0.0020180078    1.3770398195   -0.1315308206
 C    0.2181442503   -0.1120123693    0.0128874283
 C    1.5779981638   -0.7177917152    0.0592076258
 C    0.7143266114   -0.7579064728    1.3167780078
 C    1.0830656395    0.0933358220    2.5263403375
 C    2.1927982954   -0.4746889861    3.2964847764
 N    3.0673298091   -0.9350638104    3.8950640421
 C    0.0994054262   -2.0800407924    1.6309729992
 O   -0.2373116830   -2.8851784704    0.7967521225
 H    0.8233913325    1.9637665439    0.2900939461
 H   -0.0624721063    1.6368519743   -1.1933253482
 H   -0.9295297007    1.7004385009    0.3447390586
 H   -0.5337326480   -0.7295539096   -0.4709333417
 H    1.7398740438   -1.6703112777   -0.4321720570
 H    2.4362885574   -0.0536679796    0.0879830393
 H    1.3647623218    1.1039230621    2.2199135903
 H    0.2209915495    0.2035989361    3.1960490810
 H   -0.0432760704   -2.2861979055    2.7152696026