18

 C    0.2413163351    1.4117288684    0.1518620343
 N    0.2755824079   -0.0373455635    0.0900509595
 C    0.4687357348   -0.6139369700   -1.0174790881
 O    0.6970148933    0.0887204829   -2.1653304935
 C    0.6140763935   -0.5991856516   -3.4172301512
 C    1.3511878952   -1.9224683026   -3.3526918338
 N    0.7535080775   -2.6973507473   -2.2861003786
 C    0.5097117478   -2.1277309701   -1.0523979795
 N    0.3143371518   -2.8570112230   -0.0260336631
 H    1.2537736379    1.8033596040    0.3160926812
 H   -0.1501381538    1.8780914412   -0.7596525421
 H   -0.3683277993    1.7155893999    1.0069498735
 H   -0.4393864585   -0.7681372037   -3.6730930489
 H    1.0572961383    0.0742799191   -4.1538901629
 H    1.2288146273   -2.4549286411   -4.3011610149
 H    2.4282025081   -1.7406209688   -3.2050566809
 H    0.9601317711   -3.6844335589   -2.2337103773
 H    0.1113681119   -2.2453244251    0.7653687065