18

 O   -0.1120268040    1.4008714718   -0.0500757266
 C    0.0143918785    0.0228516226   -0.0628027719
 C    0.7273176178   -0.7706489913   -1.1560737195
 C   -0.1959190356   -1.9794386691   -0.7856850135
 C    0.4510376131   -2.8713284348    0.2883966448
 N    1.7329259659   -2.3537547808    0.8376745554
 C    0.4566165120   -2.0817250725    1.5397027808
 C   -0.2472633608   -0.7824551567    1.2215871381
 C   -1.1168735656   -0.9676737275   -0.0072628427
 H    0.6877779108    1.7703820975    0.3407798486
 H    0.4415570243   -0.3623623439   -2.1298544511
 H    1.8057108152   -0.9176210912   -1.0978985147
 H   -0.6256825614   -2.5295593986   -1.6209404720
 H    0.2842839819   -3.9433250732    0.2741918455
 H    2.2139143379   -3.1143026039    1.3151479430
 H    0.2911450867   -2.5306627785    2.5146442033
 H   -0.6303995160   -0.1704165529    2.0300773244
 H   -2.1888748409   -0.8338577270   -0.0737611219