14

 O   -0.0447689362   -0.0463606386   -0.0081511830
 C    0.0514482326    1.1504200119   -0.0497562607
 C    1.3603179420    1.9001690478   -0.2178215247
 C    1.2950488366    2.8858961249   -1.3763921790
 O    2.4893739402    3.7013274464   -1.3100040967
 C    2.5980436629    4.6331792384   -2.2579244157
 O    1.8148208225    4.8575446077   -3.1386455091
 C    3.8468627049    5.3838677715   -2.0812989023
 N    4.8146182424    6.0066053016   -1.9872884294
 H   -0.8454743353    1.8048387089    0.0503544713
 H    1.5379105552    2.4657968586    0.7072378231
 H    2.1721831883    1.1811807878   -0.3461903304
 H    1.2671107836    2.3826173950   -2.3468399468
 H    0.4204325605    3.5414199181   -1.3118960365