22

 C    0.5442340891    1.1633442562    0.5699946014
 C    0.3123661750   -0.3004171453    0.1877968592
 C    1.1618668975   -0.7371682631   -1.0069285050
 N    0.9284924205   -2.1491487739   -1.3028236216
 C   -0.0824552310   -2.4795925564   -2.3007077341
 C    1.3619734763   -2.7248437393   -2.5743193921
 C    2.1049111681   -1.9343264375   -3.6406078156
 C    3.5861762321   -1.8291960821   -3.3365744238
 O    4.2208441841   -0.8067880149   -3.3506385488
 H    1.5908792437    1.3428652312    0.8396374528
 H    0.2977379562    1.8369993631   -0.2583594299
 H   -0.0732701911    1.4508397235    1.4261166276
 H    0.5392210760   -0.9576227752    1.0345569042
 H   -0.7465592304   -0.4607700828   -0.0516497507
 H    0.9460910539   -0.0765936995   -1.8641103551
 H    2.2257556394   -0.6118990299   -0.7707346687
 H   -0.7537796826   -3.3003414223   -2.0610697375
 H   -0.5486652703   -1.6552107765   -2.8412598603
 H    1.7310073629   -3.7453599437   -2.4665541500
 H    2.0081818218   -2.4790929799   -4.5917499148
 H    1.7034265432   -0.9305068160   -3.7906618639
 H    4.0720966157   -2.8027888357   -3.0899062830