22

 C   -0.0225542777    1.3842916724   -0.0006947157
 O    0.0014572934   -0.0213874949   -0.0007956691
 C    0.6703370758   -0.5596580687    1.1189687560
 C    0.6392828693   -2.0787299022    1.0218558606
 C    1.3448095889   -2.7559701362    2.1998701354
 C    1.3137525117   -4.2750420962    2.1027589113
 O    1.9826454730   -4.8133123449    3.2225156164
 C    2.0065648832   -6.2189930805    3.2224692347
 H    0.9927634943    1.8126411888   -0.0210075477
 H   -0.5571342134    1.7041540134   -0.8986368558
 H   -0.5428644377    1.7863458405    0.8838368630
 H    1.7134741673   -0.1982345168    1.1535987309
 H    0.1860243389   -0.2245283218    2.0533622900
 H   -0.4075769023   -2.4015207607    0.9674730531
 H    1.1071983872   -2.3754551221    0.0752435156
 H    2.3916702811   -2.4331821485    2.2542510092
 H    0.8768960736   -2.4592422794    3.1464826701
 H    0.2706154456   -4.6364660147    2.0681442486
 H    1.7980519198   -4.6101716723    1.1683579907
 H    2.5268818716   -6.6211175379    2.3379732721
 H    2.5410895892   -6.5388561562    4.1204439824
 H    0.9912175972   -6.6472729509    3.2427599780