14

 C    0.0557381289   -1.2229563220   -0.0585140941
 C    0.0199312015   -0.0234022784   -0.0282488224
 C   -0.0105596303    1.4276991831    0.0260503104
 C   -0.2508558752    2.1097252841    1.4518317295
 C    1.1178886275    2.7796176208    1.3137127970
 O    2.0845422180    1.7303328287    1.1604880852
 C    1.3807405272    2.1562178399    0.0117841187
 C   -0.9051273811    1.9907114556   -0.9856692532
 N   -1.5890444036    2.4700057602   -1.7843712849
 H    0.0881838783   -2.2843050046   -0.0905507157
 H   -1.0954830865    2.7988415381    1.4290464599
 H   -0.3481157795    1.4053794810    2.2783090025
 H    1.4615256833    3.7197269139    1.7254458681
 H    1.9340593916    2.4670342196   -0.8656801509