13

 O   -0.0110043533   -0.0050505300   -0.2806777506
 C    0.0001625941    1.1618486451   -0.0243433467
 O   -1.1369233580    1.8843909288    0.2371363613
 C   -0.7412499438    3.2046941605    0.6281784547
 C    0.0565832375    3.1082127309    1.9442294842
 N    1.3531674586    3.0449170361    1.1870837675
 C    0.6269580997    3.4856480799   -0.0453091485
 C    1.1648557793    2.1126980808    0.0143063760
 H   -1.5899256398    3.8757057217    0.5238989845
 H    0.0539875672    4.0362308154    2.5198666341
 H   -0.1648057743    2.2540067670    2.5908063569
 H    0.9490313918    4.2928405258   -0.6909470876
 H    2.0935414611    1.8123287180   -0.4506262459