19

 O    0.0076629575   -0.0736616812   -0.0489787530
 C   -0.0098723396    1.1249658760    0.0870135073
 C   -1.3211737908    1.9067085302    0.1873710972
 N   -1.2354427707    2.9601469178    1.1989900324
 C   -0.1430848583    3.8956059177    0.9374623331
 C    1.1694656865    3.1458988087    1.0493109546
 C    2.3858042543    3.8660440227    1.4941980919
 N    1.7304310696    2.8872808986    2.3821185077
 C    1.2572330039    1.9742293178    0.0834749885
 H   -1.5269791452    2.2990665411   -0.8313603606
 H   -2.1175364287    1.2037658722    0.4403214873
 H   -2.1186360256    3.4552595634    1.2493656668
 H   -0.2084731649    4.3664890380   -0.0641613376
 H   -0.1825685370    4.7006474509    1.6791593684
 H    3.3633727453    3.5659679527    1.1256899112
 H    2.2973501146    4.9260602594    1.7220580604
 H    1.1792393846    3.3603156883    3.0942428625
 H    2.1149800106    1.3361721627    0.3022125545
 H    1.3706201141    2.3595430428   -0.9415158826