17

 O    0.0653472954    1.3877257873    0.1769372464
 C    0.1393047342   -0.0018777503   -0.0966227038
 C   -1.2435571727   -0.6238527411   -0.0307473959
 C   -1.5310466527   -2.1152383167   -0.0041826776
 C   -1.4756159178   -2.5479937627    1.4769515399
 C   -1.1403380854   -1.2986386319    2.2657598012
 N   -1.9925944213   -0.4918002239    1.2991076293
 C   -2.6736127650   -1.8345936240    0.9266940914
 H   -0.5644195685    1.4946649789    0.9002736508
 H    0.5391285643   -0.1099066291   -1.1119003027
 H    0.8446721915   -0.5097836024    0.5780685189
 H   -1.8776720676   -0.1284792015   -0.7740971952
 H   -1.4868796559   -2.8449458259   -0.8031568883
 H   -1.3857380792   -3.5921095417    1.7491750402
 H   -1.6301214993   -1.2818040606    3.2427572560
 H   -0.1021962937   -0.9712184364    2.3761754804
 H   -3.7376877264   -2.0192297880    0.9058534988