24

 C   -0.2662201007    1.3804710263    0.2515607189
 C    0.0085693868   -0.1225307809    0.1093388624
 C    0.6290953323   -0.5646775725   -1.2249031440
 C    1.9294369841    0.1898821001   -1.5209369470
 C    0.8350873351   -2.0771773088   -1.3919771322
 C   -0.4272235564   -2.8324291818   -1.4724883075
 N    0.0463279451   -2.1413425602   -2.6873102331
 C   -0.2693756420   -0.6710282727   -2.5189469548
 C   -1.7434764245   -0.2981711110   -2.5363857844
 H    0.6560172816    1.9682862543    0.2337424018
 H   -0.9121040610    1.7522362853   -0.5501637710
 H   -0.7680851846    1.5892379770    1.2015161867
 H    0.6869577010   -0.4397063477    0.9136672884
 H   -0.9245816093   -0.6695134231    0.2798059090
 H    2.6301237851    0.1116279107   -0.6809719821
 H    2.4229888193   -0.2216960637   -2.4070864688
 H    1.7462077114    1.2529025483   -1.7059079200
 H    1.7986551621   -2.5714576460   -1.2971358188
 H   -0.3556651784   -3.9125649199   -1.5612132496
 H   -1.3203520677   -2.4904357466   -0.9587465050
 H    0.2232937566   -0.1546879274   -3.3485039041
 H   -2.3004065321   -0.6820329620   -1.6774233116
 H   -1.8679541521    0.7891918870   -2.5523579982
 H   -2.2077547516   -0.7008638550   -3.4432014052