18

 C   -0.4648999412    1.1873327145   -0.1439614587
 N    0.4326326892    0.0587366650    0.1207934706
 C    0.7990239523   -0.7200690209   -0.9643459077
 C    0.6370612585   -2.0473401956   -1.2170365317
 N    0.0776048193   -2.9932932418   -0.3487788132
 C    1.2338829168   -2.3188041011   -2.4983904950
 C    1.7209945720   -1.1215006252   -2.9354535308
 N    2.3190829083   -0.7274482866   -4.1262139192
 O    1.4956654027   -0.1377974548   -2.0475302447
 H   -0.0344976725    1.9476168957   -0.8116946276
 H   -1.3817315175    0.8111772814   -0.6069997182
 H   -0.7292198590    1.6675447231    0.8036760540
 H    1.2199419887    0.3521985264    0.6910253479
 H   -0.4127082825   -2.5335957976    0.4100260799
 H   -0.5477093862   -3.6356066149   -0.8199188393
 H    1.3009277234   -3.2700794218   -3.0018736281
 H    2.7754439139   -1.4921369034   -4.6043870393
 H    2.9596326640    0.0457979577   -3.9973658488