21

 C    0.0246341183    1.5005763087   -0.2652768458
 O   -0.1867250978    0.1080736744   -0.2757838768
 C    0.7097939599   -0.6267086411   -1.0970810834
 C    2.0679767262   -0.8168440095   -0.4165060449
 C    0.0392661108   -1.9701823309   -1.4194234422
 C   -0.7823373255   -2.6538912333   -0.3355215216
 C   -1.4771804594   -2.0358392184   -1.5140257814
 C    0.7894642369   -2.8005674378   -2.3227177425
 C    1.4240144654   -3.4775572402   -3.0894931049
 H    0.9861230103    1.7789344961    0.1891886648
 H   -0.0123080410    1.9236235451   -1.2810251163
 H   -0.7790582271    1.9417605020    0.3296091931
 H    0.8515472921   -0.0865055211   -2.0477952555
 H    2.5559345558    0.1441361952   -0.2313038985
 H    1.9388817960   -1.3315709058    0.5402724072
 H    2.7280147084   -1.4155837393   -1.0489266037
 H   -0.7226256658   -3.7336538948   -0.2723649226
 H   -0.8507331917   -2.1313339139    0.6108017435
 H   -2.0061341156   -1.1062243515   -1.3481265216
 H   -1.8933076428   -2.6894354389   -2.2711425360
 H    1.9791915865   -4.0821934051   -3.7626353508