21

 C   -0.7371737899    1.3556574038    0.0180033836
 C    0.0468333416    0.0534896581   -0.0653402026
 C    1.4642513035    0.0845354433   -0.6973375056
 C    1.9270989797   -0.9444951876    0.3623352381
 O    3.2214088658   -0.8538532515    0.8936380981
 C    0.6684253232   -0.5782174030    1.2318147185
 C    0.8888186636    0.3806919435    2.3758831417
 C    1.9257580498    0.2055713532    3.3998903126
 O    2.0716742577    1.2106320158    2.3788385388
 H   -0.1520227554    2.1481140653    0.4963574685
 H   -1.0049668263    1.7047996321   -0.9852000998
 H   -1.6688981913    1.2352298889    0.5828675916
 H   -0.5659385559   -0.7061462494   -0.5623837023
 H    1.5718918297   -0.1806571297   -1.7519585454
 H    1.9476678185    1.0523252809   -0.5240189444
 H    1.8242264839   -1.9667412883   -0.0137378117
 H    3.3039440959    0.0473275436    1.2358642865
 H    0.1128133900   -1.4346896787    1.6306269863
 H   -0.0023279600    0.9301598579    2.6832906261
 H    1.7644519144    0.5966251858    4.4025755702
 H    2.6171092716   -0.6285664241    3.3152840110