15

 O   -0.0021951759    0.0191536596   -0.4844189892
 C    0.0166800146    1.1856218454   -0.2104850293
 O   -1.1134015307    2.0157705694   -0.1432230467
 C   -0.6496541944    3.2390533228    0.1937139445
 N    0.6218554610    3.3114928838    0.3525754230
 N    1.0509334441    2.0259327626    0.1008935576
 C    2.4318859765    1.6459253443    0.1661451226
 C    3.5017433172    2.6031224591   -0.2741834295
 C    3.3384696508    2.2623493915    1.1921356002
 H   -1.3553553978    4.0461712666    0.3029575097
 H    2.5244943850    0.5930400389   -0.0684032770
 H    4.3477522074    2.2009696800   -0.8196339682
 H    3.1781214466    3.5888261368   -0.5870982598
 H    2.9088120285    3.0276724944    1.8277087361
 H    4.0704390172    1.6225746147    1.6715874662