17

 C   -0.0295985181    1.5249453145   -0.1027004198
 C   -0.0416745616    0.0166841997    0.0588015834
 O    1.2173981105   -0.6542381158   -0.1217756526
 C    0.6456398219   -0.6810445675    1.1974717365
 C    1.4060238187    0.0675907865    2.2756330095
 C    0.1452011386   -1.9669927313    1.6309025266
 C   -0.2438855776   -3.0225523208    2.0530772460
 C   -1.1800323312   -0.6216945198   -0.5645688722
 C   -2.1479196713   -1.0896875404   -1.1012283335
 H    0.8653762514    1.9698368894    0.3317627678
 H   -0.0540659699    1.7734680333   -1.1676308240
 H   -0.9149772476    1.9637937925    0.3664480462
 H    1.8135942013    1.0071574714    1.9031193014
 H    0.7526232764    0.2707840761    3.1290755999
 H    2.2365831659   -0.5515719975    2.6267011341
 H   -0.5981803613   -3.9609870045    2.4021291291
 H   -2.9951519860   -1.5276944857   -1.5685277884