14

 C   -0.0743793645    1.5918617198    0.1591058631
 C   -0.1725545083    0.0819427637    0.2992209678
 C   -1.3095793609   -0.6641212436   -0.2503155877
 O   -0.0338267143   -0.6798697024   -0.8945152728
 C    1.3380061305    2.0569832464    0.0361957893
 N    2.0692546250    2.5017238100    1.0184805098
 O    3.2685304741    2.7791539374    0.4600103908
 N    3.2084184277    2.4803383355   -0.9018077958
 N    2.0565569409    2.0488223309   -1.1501752772
 H   -0.6287852443    1.9071605914   -0.7289901161
 H   -0.5211486466    2.0667556560    1.0377637682
 H    0.3525666677   -0.3312310837    1.1614358539
 H   -1.6147091566   -1.6011707726    0.2119017770
 H   -2.0950669104   -0.1294362589   -0.7829129302