18

 C   -0.6491262902    1.2462136540   -0.0444403675
 C    0.0905305208   -0.0809029507   -0.0777866476
 C    1.4549482700   -0.1842265600   -0.7749933622
 O    1.9277023355    0.3471524265   -1.7353453901
 C    2.0119936358   -1.1190894598    0.3093143765
 C    0.7980749263   -0.6843797643    1.2102112318
 C    1.1979139978    0.3629231078    2.2583165366
 C    0.0671809947   -1.7842101912    1.8267207386
 N   -0.5192812611   -2.6566667678    2.3088752747
 H   -0.0359480182    2.0452193775    0.3799556068
 H   -0.9143096166    1.5402184332   -1.0640207938
 H   -1.5724175435    1.1713516883    0.5376728219
 H   -0.5524788299   -0.8600578192   -0.5066990737
 H    1.9641165802   -2.1676488767    0.0026836077
 H    3.0113573962   -0.9012112373    0.6917718311
 H    1.7759105034    1.1652878639    1.7900070283
 H    0.3194656876    0.8036330208    2.7362631196
 H    1.8175574810   -0.0935210250    3.0347494913