17

 C    0.0241539746   -1.1847626567   -0.2818631687
 C    0.0330360808    0.0042036579   -0.1045863810
 C    0.0363220091    1.4399419177    0.0887806878
 C   -0.8201150769    2.2254392534   -0.9207405187
 O   -0.2541531173    3.5250254358   -0.9638735807
 C    1.1569172189    3.3517354852   -0.9072760931
 C    1.3867046832    2.2367107300    0.1115053616
 C    0.9945407177    2.5632552600    1.5638538095
 O   -0.2484885081    1.8370197376    1.4529945247
 H    0.0141170884   -2.2367267962   -0.4287278806
 H   -0.7750506126    1.7347375433   -1.9056136684
 H   -1.8595693441    2.3070906573   -0.5967015329
 H    1.5571792101    3.0585017864   -1.8915196324
 H    1.5998000125    4.3098410664   -0.6211043351
 H    2.3075031801    1.6745228573   -0.0332939898
 H    1.6462482454    2.1313440688    2.3320518109
 H    0.8272221984    3.6249102257    1.7793773169