19

 C   -0.3502507971    1.4706500489    0.2172972493
 C    0.1292851388    0.0421282442   -0.0749644312
 C    0.9560076560   -0.5298872459    1.0467553002
 C    2.3353012278    0.0211840115    1.4226846418
 N    3.0778407635   -1.0654755464    2.0750451410
 C    2.3600484142   -2.1266480229    2.0427139676
 N    2.7966642330   -3.3670543721    2.4419858278
 C    0.9883248857   -1.9430566868    1.4571972478
 O    0.2340325001   -0.9742433816    2.2113962980
 H    0.4921493775    2.1586086536    0.3428347986
 H   -0.9694480689    1.8485496167   -0.6012983952
 H   -0.9456143517    1.4958535024    1.1348100084
 H   -0.7344946842   -0.6105316840   -0.2410386202
 H    0.7255457363    0.0270486921   -0.9958354663
 H    2.8769049497    0.3612227827    0.5296128946
 H    2.2558529461    0.8799177318    2.0992216023
 H    3.6674527260   -3.3512005372    2.9551299797
 H    2.1010907453   -3.9798306084    2.8400989750
 H    0.4199762718   -2.7478699987    0.9982401909