16

 C    0.0824072839    1.0882970081   -1.0417858821
 C   -0.0353164098    0.1011607268    0.0907970536
 O    0.8715403981   -0.1356644446    0.8607133491
 C   -1.3739226388   -0.6102449685    0.2765884833
 O   -1.2026240783   -2.0552018333    0.2081053130
 C   -1.4172661482   -2.2158796389    1.5704535436
 N   -1.2990258009   -3.2204164584    2.3028317735
 C   -1.8019944718   -0.7540549969    1.7896041592
 O   -1.1821432358   -0.0101269986    2.7748359133
 H    1.0699987529    1.5499468039   -1.0424108538
 H   -0.0961593963    0.5820194841   -1.9978268918
 H   -0.6909330200    1.8601611195   -0.9461530596
 H   -2.1392524566   -0.2787848078   -0.4289333215
 H   -0.9769489097   -4.0387344597    1.7835611687
 H   -2.8812093606   -0.6272136819    1.9080192199
 H   -0.2288944881   -0.1521341438    2.6840598717