14

 O    0.0478263122    0.1684265177    0.6170211098
 C   -0.0170220077    1.1918631516    0.0086256158
 O   -1.1919501644    1.8453906168   -0.1557478495
 C   -1.3859570103    2.7423776897   -1.2619429542
 C   -0.2238404446    3.6876703106   -1.4230956482
 C    0.4708174254    4.2027540081   -0.1770894811
 C    1.0771790975    3.0977066171   -0.9955836562
 O    1.0892311647    1.7653168406   -0.5186695776
 H   -1.5281752675    2.1527494448   -2.1767927061
 H   -2.3217416773    3.2612772614   -1.0393515508
 H   -0.2535957573    4.3122000298   -2.3098706840
 H    0.9460932911    5.1759568873   -0.2173137111
 H    0.0411565784    3.9426202505    0.7839830076
 H    1.9901465398    3.2723776741   -1.5500041244