22

 C   -0.0139390720    1.3945565666    0.0111934756
 O   -0.0008436698   -0.0116160087    0.0025786452
 C    0.6341978513   -0.5487678731   -1.1361550197
 C    0.5854487672   -2.0682305971   -1.0482562445
 C    1.2738317434   -2.7420087387   -2.2483526683
 C    1.2650115860   -4.2460631294   -2.1623193292
 C    2.0299540440   -4.9410507959   -1.0670835855
 N    0.5805855911   -4.8569167631   -3.0531808304
 O    0.6192385635   -6.2517327307   -2.8732034388
 H    1.0050200897    1.8145004584    0.0080263505
 H   -0.5538184965    1.8053105784   -0.8572207631
 H   -0.5226952876    1.7126171024    0.9245690964
 H    0.1334519548   -0.2006885442   -2.0569784468
 H    1.6815712846   -0.2008029079   -1.1922901999
 H    1.0587983200   -2.3756407986   -0.1088648261
 H   -0.4609891079   -2.3881299591   -0.9953586710
 H    0.7789793813   -2.4487892874   -3.1790608802
 H    2.3158378519   -2.3957872475   -2.3065724160
 H    1.3458682928   -5.3437183220   -0.3115111968
 H    2.5823590953   -5.7922011224   -1.4736375087
 H    2.7241027031   -4.2585992980   -0.5719166269
 H    0.0986123137   -6.5635757820   -3.6204982360