21

 C   -0.0780808543    1.6259470113    0.0834043076
 C    0.0495330216    0.1083899937   -0.0906389389
 C    0.6904193988   -0.5571496554    1.1163927403
 C   -0.0895597044   -0.6421494739    2.4543101460
 N    0.4424747436   -2.0042035188    2.6427585913
 C   -0.3576355727   -3.0107828017    3.3093132747
 C    0.7758020814   -2.1215584434    1.2085350258
 C   -0.2282167693   -2.8205547724    0.3904587785
 N   -1.0312024439   -3.3877252874   -0.2193556557
 H    0.9015339968    2.0939796100    0.2302644824
 H   -0.5386436596    2.0840416694   -0.7965126308
 H   -0.6986428420    1.8764809166    0.9506543725
 H   -0.9387071521   -0.3294322484   -0.2715147360
 H    0.6489183502   -0.1113515346   -0.9832496005
 H    1.6922734770   -0.1540073189    1.2885964002
 H    0.1697291357    0.0598068024    3.2530321638
 H   -1.1804338938   -0.6142057861    2.2931053302
 H   -1.3433674614   -3.1738359533    2.8421618631
 H    0.1793353710   -3.9648520596    3.3179143054
 H   -0.5136296729   -2.7040293767    4.3483784558
 H    1.7524713905   -2.5776916428    1.0114669343