24

 C    0.3741481314    1.8414833531    0.1150304746
 C    0.3575896963    0.3216730125   -0.0896918088
 C    0.7343508090   -0.4553604021    1.1688069461
 C   -0.2733680790   -0.5971104396    2.3649684460
 C   -1.7584379777   -0.3965454331    2.0684247541
 C    0.1585241729   -2.0883675695    2.4998686684
 C    0.8841984481   -2.0146606242    1.1235828113
 C    0.1852255306   -2.7559458870   -0.0144769753
 H    1.3699295759    2.1865479493    0.4156416558
 H    0.1015374676    2.3710892164   -0.8034119810
 H   -0.3280172205    2.1502533405    0.8965345803
 H   -0.6296502080    0.0118844084   -0.4516211958
 H    1.0648374252    0.0616270375   -0.8887880475
 H    1.6696219325   -0.0319497465    1.5556547490
 H   -0.0068288666    0.0208539464    3.2283276798
 H   -2.0990152296   -1.0055591169    1.2248479991
 H   -2.3576884430   -0.6859974592    2.9391803587
 H   -1.9935965996    0.6482178741    1.8384181527
 H    0.8392524074   -2.2663783709    3.3365774487
 H   -0.6598519373   -2.8130459906    2.5667465728
 H    1.9284859495   -2.3427213708    1.1563412177
 H   -0.8755204657   -2.4963461804   -0.0907033673
 H    0.6493854477   -2.5394151699   -0.9828068026
 H    0.2446514830   -3.8384336474    0.1458671633