17

 O    0.2712781866    1.1257419858   -0.5326887875
 C    0.1317773291   -0.1131185510    0.1169612962
 C    0.0187428713   -0.1063485363    1.6776451667
 C   -1.2744210537   -0.9186152803    1.5181267331
 O   -1.9609293926   -1.5604465873    2.2604558978
 C   -1.3056029628   -0.6879695731    0.0074786785
 C   -2.4489483782    0.1510630551   -0.6212993471
 O   -2.8139856543   -0.9215281705   -1.5092349854
 C   -1.7711414347   -1.7644261045   -0.9875466051
 H    1.1729111774    1.4385465292   -0.4094784914
 H    0.8778568933   -0.8401235091   -0.2335290237
 H    0.8189197337   -0.5576231181    2.2690660494
 H   -0.1886325095    0.9016632200    2.0540207137
 H   -3.2632795280    0.4148875112    0.0635830359
 H   -2.1006838302    1.0398273080   -1.1560545529
 H   -1.0323687634   -2.0372456503   -1.7524021927
 H   -2.1688189640   -2.6717312489   -0.5164257552