16

 C   -0.0985973334    1.4859557601   -0.0191496539
 C   -0.0353616494    0.0335835485    0.0090894284
 C    0.0055745866   -1.1717535110    0.0335907610
 C    0.0610731978   -2.5837705189    0.0615674943
 C    1.1666584345   -3.3827162224   -0.0247445140
 C    2.6173879265   -3.1216611384   -0.1688324449
 O    0.7405794840   -4.6806702422    0.0463361745
 C   -0.6073681808   -4.5951885877    0.1724968540
 N   -1.0762533604   -3.3966659899    0.1888575888
 H    0.4738166739    1.9280877279    0.8041921416
 H    0.3034555536    1.8864459732   -0.9566969407
 H   -1.1335973043    1.8326950971    0.0727869922
 H    3.1850779446   -3.5298797766    0.6749267539
 H    3.0178029729   -3.5713712077   -1.0844040240
 H    2.7835161817   -2.0433458280   -0.2100555712
 H   -1.1456944680   -5.5271979740    0.2456322400