21

 C    0.1417821395    1.6479810657   -0.1455998178
 C   -0.0271086894    0.1293047929   -0.1233900441
 C    0.7797424093   -0.6138838775   -1.2128613298
 C    1.0304672070   -1.9841336971   -0.5875220376
 N    1.3292320332   -1.6321176412    0.8011607073
 C    1.4524825161   -2.7258627389    1.7326567564
 C    0.1981464629   -3.4940481135    1.9469780077
 N   -0.8051737871   -4.0548862212    2.0721044119
 C    0.4302034301   -0.5381695817    1.2027525423
 H    1.1903759204    1.9262252340    0.0104996241
 H   -0.1768843416    2.0664147128   -1.1061346168
 H   -0.4528064953    2.1284107336    0.6385625598
 H   -1.0878945120   -0.1034626341   -0.2695704351
 H    0.2485086054   -0.6696515893   -2.1661816520
 H    1.7362067861   -0.1081297668   -1.3855495357
 H    0.1350889752   -2.6251966110   -0.6801426794
 H    1.8747670262   -2.5224310051   -1.0323014730
 H    2.2203409940   -3.4245779049    1.3814291159
 H    1.7866697602   -2.3481442157    2.7057371101
 H    0.9694506080    0.1614435343    1.8540482274
 H   -0.4410677686   -0.9069587351    1.7661814981