17

 O    0.0956422422    1.3829226850   -0.3949021950
 C    0.0196853611    0.0698699162    0.1225144757
 C   -1.3933753162   -0.4999767999    0.0367930482
 C   -1.8433478616   -1.1262065837   -1.2633309260
 C   -1.5845577349   -2.0267734348   -0.0737723228
 C   -0.4558117910   -2.9092978336   -0.0407899672
 C    0.4806408062   -3.6637600263   -0.0057525014
 C   -2.3581844143    0.2275695526    0.8163360253
 C   -3.1250805821    0.8802598261    1.4760104261
 H   -0.5202852157    1.9264028135    0.1100895127
 H    0.6971367789   -0.5428782862   -0.4765238784
 H    0.3626020464    0.0242628847    1.1668079103
 H   -2.8733829795   -0.9880089056   -1.5685830827
 H   -1.1180834235   -1.1428226461   -2.0684875321
 H   -2.4686151486   -2.4004853469    0.4332540433
 H    1.3078405332   -4.3288234361    0.0243791130
 H   -3.8160149005    1.4378953011    2.0587732110