18

 C    0.2422940112    1.4461439545    0.2011734841
 C   -0.1499904637   -0.0025218233   -0.1144297444
 C    0.5644302428   -0.5432256390   -1.3337906984
 C    1.9520395241   -1.1153065075   -1.2435571627
 C    0.7904338008   -2.0545315023   -1.5090482550
 N    0.4348444528   -3.0385169362   -0.5180753064
 C    0.6526716829   -2.5454288195   -2.8659342325
 N    0.5183992823   -2.9108454093   -3.9552403849
 H    1.3164253808    1.5306237225    0.3954109891
 H    0.0035708783    2.1111294896   -0.6353468727
 H   -0.2911583384    1.8138131331    1.0828098962
 H    0.0647895668   -0.6386234851    0.7519097977
 H   -1.2341548516   -0.0610548002   -0.2757886442
 H    0.3410489315   -0.0158567069   -2.2575087756
 H    2.6569375428   -0.9352037067   -2.0460963020
 H    2.4052822732   -1.1993054503   -0.2597684516
 H    0.9338244799   -2.8966736267    0.3497826729
 H   -0.5605575465   -3.0381746069   -0.3236649496