25

 C    0.0163936656    1.4137930050   -0.8269894120
 C   -0.2413241404    0.5730374680    0.4304821649
 C   -1.4826235416   -0.2901975588    0.3084070917
 C   -1.4819908521   -1.6922970236   -0.2993475141
 C   -0.2444706238   -2.3840987058   -0.8364443990
 C   -0.4106702086   -3.9075356356   -0.9124509568
 C   -1.7681078165   -1.5064647541    1.1670198976
 C   -0.8223144328   -1.9664735466    2.2545822746
 O   -3.1230740109   -1.7348391058    1.4902468437
 H    0.8978237834    2.0513904860   -0.7048621414
 H    0.1791812772    0.7763696072   -1.7020272317
 H   -0.8377584808    2.0634979417   -1.0476352767
 H    0.6404205849   -0.0415950827    0.6391576435
 H   -0.3508202105    1.2419449147    1.2949575525
 H   -2.3805086825    0.2793716661    0.0747733577
 H   -2.3803429044   -1.9202201783   -0.8686873850
 H   -0.0241488349   -1.9938964812   -1.8388705284
 H    0.6327836392   -2.1474094746   -0.2252496509
 H   -1.2616062035   -4.1789832287   -1.5465157620
 H    0.4823553757   -4.3840240464   -1.3294964758
 H   -0.5907024317   -4.3355960055    0.0788745982
 H    0.2278098748   -1.8526610093    1.9776076643
 H   -0.9815538171   -1.3869917945    3.1730909360
 H   -1.0046288561   -3.0197718249    2.4904838831
 H   -3.3507456825   -1.1526262123    2.2242143560