20

 C    0.0215289665    1.5871266597    0.0285452559
 C    0.0184405247    0.0570218565    0.0411305463
 C   -1.4020593553   -0.5355663262   -0.0376396522
 C   -1.4341706886   -2.0341290309   -0.0174484597
 C   -1.5746163114   -2.8996624950   -1.0545384597
 O   -1.5374399053   -4.1724110103   -0.6335509850
 N   -1.3678849349   -4.1765965089    0.7478756585
 C   -1.3062847949   -2.9160250757    1.1076375692
 C   -1.1378976589   -2.5604355742    2.5504868711
 H    1.0403784209    1.9826310107    0.0805994553
 H   -0.4407721530    1.9769426327   -0.8852796144
 H   -0.5372952911    1.9927753020    0.8793430244
 H    0.6085280873   -0.3268249407   -0.7997152253
 H    0.5143590779   -0.3068360313    0.9493591503
 H   -1.9982914481   -0.1437206847    0.7969963843
 H   -1.8885006194   -0.1743282153   -0.9515999946
 H   -1.7124397240   -2.7593299137   -2.1162469985
 H   -0.1942082195   -2.0323149214    2.7228711133
 H   -1.9461935868   -1.9038579023    2.8900246342
 H   -1.1446363961   -3.4656216510    3.1604544765