19

 C   -0.3047742453    1.4671288940   -0.0549110537
 C   -0.2005288279   -0.0491571758    0.0013083904
 O   -0.3524055971   -0.6977733867    1.0215701766
 N    0.0703604213   -0.6522317133   -1.1881260504
 C    0.4925590646   -0.1699762601   -2.5064228758
 C    0.7649989154   -1.6417823462   -2.8706640983
 C    0.5316101588   -2.3146394520   -4.1617639431
 N    1.8964473276   -2.1773419492   -3.6044715773
 C    0.3829566630   -2.0620669005   -1.4423777895
 H    0.6663344187    1.9146413515   -0.2945516020
 H   -1.0148326266    1.7920518881   -0.8222267164
 H   -0.6306970740    1.8280742573    0.9200504127
 H   -0.2917260590    0.3342270051   -3.0844601438
 H    1.3869670140    0.4685600383   -2.4876597116
 H    0.1512563862   -3.3322747205   -4.1875011293
 H    0.2477869384   -1.7015400121   -5.0140007803
 H    2.4017362990   -1.4337161333   -4.0810047898
 H    1.2140222174   -2.4454552028   -0.8409730952
 H   -0.4752528043   -2.7345250917   -1.3436932232