14

 C    0.9567773520    0.1111897863    0.3933847276
 C   -0.5107800357    0.1929760910    0.0427470654
 O   -1.2472045765    1.0459443879    0.4690179589
 C   -1.0643440885   -0.8560932593   -0.9549351811
 C   -0.4651777897   -2.1751891856   -0.8880739767
 C    0.0344057887   -3.2757353510   -0.8201575387
 C    0.5971486509   -4.5118945064   -0.7417258881
 C    1.0975008234   -5.6086842095   -0.6719835219
 H    1.1505138591   -0.8074463749    0.9571143445
 H    1.5678993286    0.0525802792   -0.5139139475
 H    1.2418347482    0.9796456010    0.9874611910
 H   -2.1476567984   -0.8995149548   -0.8031352656
 H   -0.9085730302   -0.4295695143   -1.9577540657
 H    1.5354122082   -6.5739964096   -0.6109765522