17

 C    0.3990756878    1.3266540401    0.0654281684
 N    0.1508904684   -0.1040938772    0.0772613248
 N    0.0104601671   -0.7391359975   -1.1043077216
 C   -0.1894542640   -2.0162150124   -0.7921571759
 C   -0.1868629950   -2.2141914664    0.5987931246
 C    0.0418481292   -0.9578205878    1.1359156568
 C    0.1656538208   -0.6159329138    2.5668905703
 C    1.1561184515    0.3118479595    3.1415453812
 O   -0.2164477718    0.6914369512    3.0240796453
 H    1.4714913037    1.5391972508   -0.0099412887
 H   -0.0993360752    1.7432082370   -0.8100543756
 H   -0.0032014818    1.7689810149    0.9757209578
 H   -0.3403600978   -2.7418207919   -1.5777452591
 H   -0.3366446143   -3.1301502800    1.1480010282
 H   -0.1805927497   -1.4216230510    3.2131621454
 H    1.5106140180    0.1514926693    4.1585299362
 H    1.8464552931    0.8377544954    2.4849190818