21

 C   -0.1441903042    1.5745005263    0.1668804102
 C    0.1338890444    0.0798358127   -0.0325863470
 C    0.8386960669   -0.5477047952    1.1579685098
 C    0.0102255358   -0.9387707979    2.4164941242
 O   -0.6013824551   -2.0530440814    1.6605814471
 C    0.8386704768   -2.0958050573    1.3121055109
 C    1.1315682616   -1.9554056845    2.8204328683
 O    2.4044137907   -1.5395224948    3.1966619024
 C    2.5134233494   -1.2508816600    4.5766286326
 H    0.7818513696    2.1335115816    0.3424137966
 H   -0.6317155477    2.0062428854   -0.7125187815
 H   -0.8012467394    1.7453843771    1.0265993573
 H   -0.8011197986   -0.4577756249   -0.2156177757
 H    0.7601542810   -0.0569356764   -0.9238554426
 H    1.7989002406   -0.0748082812    1.3812583779
 H   -0.6544730438   -0.3363445229    3.0371145316
 H    1.1651157557   -2.8683586231    0.6147923514
 H    0.7556522767   -2.7887499769    3.4268296513
 H    1.8758230602   -0.4041940845    4.8697705191
 H    2.2392820123   -2.1206192879    5.1920998932
 H    3.5565334970   -0.9928756440    4.7714595429