19

 C   -0.1836492095    1.5359991547    0.2768297619
 C   -0.1499249541    0.0317271529    0.2547903691
 O    1.0115200340   -0.5912077507   -0.2960467728
 C    0.7853671888   -0.7480333897    1.0927039372
 C    1.7147296210   -0.3103693905    2.2376547004
 C    1.3225657912   -1.6018404837    3.0347376550
 C    0.5223721174   -1.4243980094    4.3236078308
 C    0.4999388408   -2.0617042117    1.8056158990
 O   -0.1189987532   -3.0495237012    1.5347530932
 H    0.7822259183    1.9469733390    0.5805838526
 H   -0.4244701016    1.9249958365   -0.7179664702
 H   -0.9533697890    1.8910731551    0.9704771411
 H   -1.0806916680   -0.4659302781   -0.0225362279
 H    2.7656623890   -0.2737173644    1.9437645778
 H    1.4456569571    0.6317078074    2.7217728343
 H    2.1724798925   -2.2711806397    3.2058076339
 H   -0.3264573409   -0.7485632031    4.1729709543
 H    0.1287207529   -2.3859272363    4.6659988404
 H    1.1473679332   -1.0066708971    5.1189365997