17

 O   -0.0438158055    1.4780669970   -0.1661749952
 C    0.0308123393    0.0766134996   -0.1187050338
 C   -1.3538020742   -0.5724261944    0.0321487010
 C   -1.3820859702   -2.1074832649    0.0946257850
 C   -2.6207462692   -2.3742710538    0.9574825591
 O   -2.7229747540   -1.2379696930    1.8411842137
 C   -2.0247556823   -0.1887670145    1.3374751135
 N   -1.9300049842    0.9468510138    1.8918137663
 H   -0.5551182720    1.7403199955    0.6188854375
 H    0.4902691511   -0.2582132066   -1.0558404253
 H    0.6742892883   -0.2779862206    0.7057924305
 H   -1.9890717455   -0.2097849224   -0.7865588560
 H   -1.4454266976   -2.5840312684   -0.8853322362
 H   -0.4829482730   -2.4805516235    0.5978859381
 H   -3.5360021260   -2.4321896420    0.3562346899
 H   -2.5517379139   -3.2694315926    1.5789099794
 H   -2.4502053011    0.9860538205    2.7683168823