21

 C    0.0020594848    1.6610067655    0.2403378033
 C    0.0328794962    0.1304343357    0.1199748847
 C    0.8541851867   -0.4269074447   -1.0882573678
 C    1.8875415418   -1.2889908269   -0.3320436970
 C    1.0009863598   -2.0169750885    0.7193294231
 C    0.8299049584   -0.5700765003    1.2728215514
 C    2.3076292859   -0.3493048097    0.8327658598
 C   -1.4046740806   -0.3585657375    0.1512359652
 O   -1.9118708891   -1.1376924065   -0.6155388006
 H    1.0084153799    2.0730239530    0.3455958263
 H   -0.4516050487    2.1150675612   -0.6472416890
 H   -0.5806283111    1.9792063985    1.1128697143
 H    0.2197818730   -1.0134678430   -1.7566036875
 H    1.3233796848    0.3756256650   -1.6652156873
 H    2.6222127122   -1.8241899700   -0.9340425471
 H    0.1157153584   -2.5517792780    0.3685446414
 H    1.5829824305   -2.6471226725    1.3953537546
 H    0.4919440930   -0.3706369176    2.2912907253
 H    3.0100897626   -0.8204288822    1.5245179928
 H    2.6463048370    0.6619987106    0.5931633243
 H   -1.9988676458    0.0687547980    0.9943664897