21

 C   -0.1276813956    1.5672894611   -0.0092150559
 C   -0.0731910039    0.0404212282   -0.0068417439
 C   -1.4318184103   -0.5618236866   -0.3614351955
 C    1.1645603029   -0.6054685755   -0.6854775924
 C    2.0846776234   -0.3185441238    0.5393990801
 O    2.5701301941   -1.6888708433    0.6593715806
 C    1.1648196641   -1.8202927856    0.2909835355
 C    0.6862661084   -0.6216802335    1.1835244806
 C    0.3545051130   -0.6606577391    2.6475310224
 H    0.8379671475    2.0154095795    0.2451392010
 H   -0.4200622108    1.9469389373   -0.9950535828
 H   -0.8661495072    1.9357180130    0.7124720363
 H   -1.7569334329   -0.2355993662   -1.3561090165
 H   -1.4109532395   -1.6561496020   -0.3622596617
 H   -2.2012793820   -0.2440080016    0.3518875776
 H    1.4626415977   -0.6144860165   -1.7347177666
 H    2.7860839083    0.4947814660    0.7223138386
 H    0.7541569875   -2.8225390118    0.1735703780
 H    1.1236632542   -1.2208963349    3.1896310415
 H    0.3039249008    0.3476786147    3.0729338281
 H   -0.6107565097   -1.1472166391    2.8258563850