20

 C    0.0131944310    1.5366574261   -0.1997565312
 C    0.0345863166    0.0334359940   -0.0213892819
 C    1.3270586454   -0.7430763114   -0.0666061242
 C    0.5580599229   -0.6440367992    1.2287626728
 C    1.0965098951    0.1285104732    2.4132448915
 C    1.9758607777   -0.7498325365    3.3278386966
 O    3.0991689708   -1.3112979642    2.6783806373
 C    2.3866634777    0.0143046898    4.5269842501
 N    2.7246659936    0.6366918306    5.4402136794
 H    0.9107569313    2.0128536715    0.2054012018
 H   -0.0379491563    1.7958251679   -1.2627730816
 H   -0.8546623479    1.9885345363    0.2935495139
 H   -0.8214565420   -0.4659240679   -0.4683314221
 H    1.3616893558   -1.6958048886   -0.5828468006
 H    2.2457421899   -0.1688757682   -0.1438299215
 H    0.0179387843   -1.5428726677    1.5193836661
 H    1.6896021616    0.9913809966    2.0892290312
 H    0.2760624679    0.5296596236    3.0216918899
 H    1.3871777303   -1.6092923047    3.6691874332
 H    3.6589125944   -0.5914041313    2.3653870795