16

 C   -0.2553468760    1.4070082818   -0.0101472267
 N    0.0651244749   -0.0155530013    0.0291929356
 C    1.2177351595   -0.4637104019   -0.8486982970
 C    2.2220113717   -0.1316459824    0.2919744398
 C    0.9732360391   -0.4632885207    1.1583150762
 C    0.8029496396   -1.9668098841    0.9125253499
 O    0.5971415850   -2.8771842057    1.6583703317
 C    0.9933447267   -1.9671386618   -0.6503553912
 O    0.9725718692   -2.8778318675   -1.4234199946
 H    0.6064378138    2.0852984286    0.0946994594
 H   -0.7491006829    1.6266253974   -0.9614030697
 H   -0.9630352654    1.6269927641    0.7946484805
 H    1.2899318283   -0.0860468039   -1.8666706499
 H    3.1158209034   -0.7548563221    0.4009914217
 H    2.4998648354    0.9221226458    0.3256004935
 H    0.7989438877   -0.0851980763    2.1636904009