22

 C    0.1574219419    1.3819411967   -0.0932402661
 O    0.0634535149   -0.0203645614   -0.0603219321
 C    0.7135114180   -0.5870983949    1.0528784851
 C    0.5873575978   -2.1023050886    1.0175318446
 C   -0.8491146157   -2.5912126177    0.8640269057
 O    1.3924571053   -2.5547642081   -0.0938468354
 C    1.9218500931   -3.7921281040   -0.0291988608
 C    2.7166491119   -4.0726576325   -1.2802714017
 N    1.7357064897   -4.5525816287    0.9723029860
 H    1.2041532545    1.7208813603   -0.1517009390
 H   -0.3745554683    1.7255390393   -0.9837447721
 H   -0.3013948003    1.8447581959    0.7956685164
 H    1.7805792234   -0.3104656754    1.0626950190
 H    0.2663472131   -0.2192511811    1.9931369404
 H    1.0226745382   -2.5076592354    1.9358285932
 H   -1.2805244936   -2.2134054761   -0.0649266762
 H   -0.8715765387   -3.6822939685    0.8676348917
 H   -1.4583371133   -2.2313806006    1.6997169048
 H    2.0654771483   -4.0146618439   -2.1578049294
 H    3.4968691538   -3.3164308025   -1.4083745085
 H    3.1765113340   -5.0613909755   -1.2403319658
 H    2.2226901219   -5.4359305872    0.8435884700