12

 C    0.0189339512   -1.2101005038   -0.0040578955
 C   -0.0024267227   -0.0053082722    0.0028964781
 C   -0.0095556277    1.4090422378    0.0108288015
 C   -1.1300745018    2.2237158157    0.0301333088
 N   -0.7045218576    3.5207299656    0.0317083938
 C    0.6692556156    3.5673265356    0.0138350809
 C    1.1317505067    2.2772400871    0.0005842070
 H    0.0337387255   -2.2711433573   -0.0101282935
 H   -2.1767609915    1.9688981251    0.0425262289
 H   -1.3095243218    4.3228573056    0.0441116467
 H    1.1933232249    4.5091021034    0.0121564261
 H    2.1630085193    1.9631239772   -0.0147639729