15

 O    0.0491835994    0.0940286591    0.5640330667
 C   -0.0140742258    1.1866888948    0.0776137293
 C   -1.3310764500    1.9485243408   -0.1629724511
 N   -1.1685508159    3.2752625566   -0.7721408279
 C   -0.1898721699    3.1101004940   -1.9148351810
 C    0.9448854192    3.1497716219   -0.8793714466
 C   -0.0435882271    3.9595392047   -0.0257726270
 O    1.1201313985    1.8397522063   -0.3038763711
 H   -1.9655616662    1.3221105189   -0.7983295869
 H   -1.8417142954    2.0412780512    0.8010244730
 H   -0.3041094937    2.2016201820   -2.5118813030
 H   -0.2182758359    3.9906977340   -2.5613013174
 H    1.9447079029    3.5143204537   -1.1207192135
 H   -0.0395999398    5.0282309557   -0.2539366308
 H   -0.0277919404    3.8061328963    1.0563860974