19

 C   -0.0151242987    1.5680169884    0.0113253743
 O    1.3058716861    2.1151339157   -0.0006554526
 C    2.3264206782    1.1115230915   -0.0192041182
 C    2.1831712693    0.2346137555    1.2428052949
 C    0.9602359592   -0.6579479097    1.0004386180
 O    1.3088941430   -1.6298469660   -0.0240162994
 C    0.9360057287   -0.6454322003   -1.0277639419
 C    2.1528787534    0.2503305904   -1.2882154399
 C    0.0074521690    0.0489980511    0.0018811033
 H   -0.5417710912    1.9370174265    0.9034703461
 H   -0.5622758772    1.9475138059   -0.8639390452
 H    3.2675538197    1.6656312370   -0.0270560079
 H    3.0611086356   -0.3981375513    1.4078672452
 H    2.0521316713    0.8854010904    2.1135847026
 H    0.5535244454   -1.1289712541    1.8991636330
 H    0.5079102572   -1.1053720572   -1.9222900247
 H    2.0010851548    0.9118203041   -2.1474904764
 H    3.0265716228   -0.3801160340   -1.4820825546
 H   -0.9966905367   -0.3772310538    0.0112641231