19

 O    0.2492313590    0.7717858725   -0.8953477148
 C   -0.0240039878   -0.0171914448    0.2797044027
 C   -1.4345199122   -0.5657369266    0.3061224354
 C   -1.9801118670   -1.2050592135   -0.9664352703
 O   -1.1064552930   -1.3618474408   -2.0502732265
 C   -1.6691076072   -2.0750631463    0.2147799354
 O   -0.5580517419   -2.9101215041    0.0576518887
 C   -2.7395896704   -2.7402196827    1.0430296676
 O   -3.1250133514   -3.9814323083    0.4887922842
 H   -0.3358053748    1.5367821980   -0.8772250164
 H    0.6973153024   -0.8363741035    0.2464344901
 H    0.1791355692    0.5696851466    1.1835479121
 H   -2.1556389413   -0.0042789005    0.8945823738
 H   -3.0168856379   -1.0249702619   -1.2434388097
 H   -0.5384227800   -0.5731794274   -2.0671497794
 H   -0.3056419100   -2.8221072752   -0.8767207934
 H   -2.3736483343   -2.8578357933    2.0767655992
 H   -3.6327031823   -2.1072912770    1.0787203198
 H   -2.3001341290   -4.4443163411    0.2973862315