10

 O   -0.3648647087    0.0586639378    0.0054409280
 C   -0.0817666350    1.2226307441    0.0085944765
 N    1.2042599293    1.7641661477   -0.0008449053
 C    2.4242827096    1.0738830734   -0.0156524876
 O    2.5390744616   -0.1240501243   -0.0231915382
 C    3.5591213284    1.9872726496   -0.0209695090
 C    4.5124522357    2.7199670788   -0.0256032410
 H   -0.8324985324    2.0384488441    0.0196980667
 H    1.2666204597    2.7725804544    0.0038911492
 H    5.3670045218    3.3527000245   -0.0297077493