19

 C   -0.1269077074    1.5079664620    0.0236435664
 C   -0.0276722070   -0.0003468414    0.0845904438
 C    1.3032426636   -0.6964266035   -0.1736849365
 C    0.6991028759   -0.6796293738    1.1973144329
 C    1.3406670321   -0.1639006259    2.4687523113
 C    0.4203999058   -0.7098793790    3.5839851264
 O   -0.6792146061   -1.3790160757    2.9676200677
 C    0.2942636619   -1.9096190422    2.0157621775
 C    1.4750985553   -1.5882489162    3.0134415081
 H    0.7798282605    1.9793334100    0.4176140116
 H   -0.2605665325    1.8578469734   -1.0059668389
 H   -0.9732471954    1.8726152624    0.6157278173
 H   -0.9051491421   -0.5256320030   -0.2869891783
 H    1.3013267239   -1.6262778829   -0.7350479338
 H    2.1723654668   -0.0714939539   -0.3581502812
 H    2.0123126468    0.6724327199    2.6127024475
 H    0.2850280807   -0.2569073289    4.5572771458
 H    0.0023964133   -2.8600066932    1.5729300899
 H    2.3053711439   -2.1483490383    3.4195710827