20

 C   -0.3906931743    1.5474073968   -0.0268346431
 C    0.0223474322    0.0859576472    0.0407464871
 N    0.9651108441   -0.4366047228   -1.0184009593
 C    2.3840632560   -0.2282897530   -0.5910748262
 C    2.7663114069    0.8385085001    0.4292293124
 C    1.9450766751    0.4648377970    1.6910128381
 C    0.9000755015   -0.5326490758    1.1711683900
 O    0.2676649884   -1.3139646540    2.1477772438
 C    1.6024565158   -1.3111935841    0.0298660199
 H    0.4379689418    2.2416454648    0.1294490779
 H   -0.8195621168    1.7587315101   -1.0121449293
 H   -1.1599848130    1.7642657649    0.7230219935
 H   -0.8714206273   -0.5416794659   -0.0470553070
 H    3.0662737139   -0.4380356801   -1.4086538463
 H    3.8424146411    0.7886984529    0.6236378562
 H    2.5606090474    1.8497522552    0.0667037458
 H    2.5710959744   -0.0390433282    2.4350574365
 H    1.4836208813    1.3341771783    2.1733822857
 H   -0.0659511589   -0.7290463111    2.8360836723
 H    1.7159482203   -2.3837565122   -0.0705893979