25

 C    0.0311328833    1.6207414302    0.0050982263
 C   -0.1113528932    0.0945115184   -0.0179521315
 C    0.6688961867   -0.5520584226   -1.1554018001
 C    2.2224652444   -0.5831534231   -1.1234873637
 C    2.1732095439   -1.9727896599   -1.8136279906
 C    3.2071318950   -3.0314828267   -1.4604602851
 C    0.6796230429   -2.0959833176   -1.3488711673
 C    0.4716210711   -2.9097108374   -0.0745102330
 O   -0.2529683580   -2.4908252602   -2.3436293496
 H    1.0782029873    1.9199725830    0.1234795441
 H   -0.3356992876    2.0651116675   -0.9268059302
 H   -0.5360390979    2.0615758906    0.8309314760
 H    0.2238328037   -0.3138771630    0.9439498473
 H   -1.1723467461   -0.1710701772   -0.1130979632
 H    0.3394105799   -0.1255349286   -2.1101117872
 H    2.7607457302    0.2173337992   -1.6357237795
 H    2.6044389530   -0.6549246580   -0.0981745646
 H    2.1436065135   -1.8308256281   -2.8994940722
 H    3.2746185234   -3.1918343464   -0.3793331960
 H    2.9735203821   -3.9957657916   -1.9273252200
 H    4.2022102721   -2.7340751166   -1.8098095366
 H    1.1407064657   -2.5973877489    0.7324705908
 H   -0.5592683324   -2.8053990849    0.2757082531
 H    0.6630635994   -3.9740128324   -0.2607112040
 H   -0.2615310725   -3.4532494856   -2.3863281131