21

 C    0.1796246617    1.3837774833    0.2515915903
 C   -0.1300846979   -0.0498672915   -0.1998528804
 C    0.6314716211   -0.4691174877   -1.4248203023
 C    0.4533960630    0.0155968648   -2.8660844780
 C    1.3403291165   -1.1876806296   -3.2882861076
 C    2.7373574523   -0.8409493214   -2.7033049944
 C    2.1015074657   -1.0024160186   -1.3254104396
 C    0.9801548807   -1.8537673714   -1.8768080221
 O    0.4188252740   -3.0445386271   -1.4949283993
 H    1.2409374496    1.4988938267    0.4948895018
 H   -0.0593644273    2.1069660963   -0.5354003827
 H   -0.4027567955    1.6525912736    1.1384322367
 H    0.0903598269   -0.7510856868    0.6148491324
 H   -1.2064116021   -0.1467590107   -0.3953348694
 H   -0.5844809934   -0.1032133947   -3.1924202480
 H    0.8129675351    1.0144085768   -3.1414423151
 H    1.2384255208   -1.6415712235   -4.2720980050
 H    3.4768136373   -1.6228036843   -2.9022700804
 H    3.1560762475    0.1342483086   -2.9777956095
 H    2.5803647683   -1.0694728340   -0.3560143809
 H    1.0901196858   -3.7343364488   -1.5489703363