21

 C   -0.0462440939    1.5118568549    0.0432069757
 C    0.0398038433    0.0052131243   -0.0121489753
 C   -0.5602737660   -0.8070432164    1.1124183129
 C    0.9481753648   -0.7904367092    0.9190320905
 C    1.4946998655   -1.9081968452    0.0975516123
 C    1.0068613512   -1.8780872170   -1.1465691585
 C    0.1142663308   -0.7039789123   -1.3604396634
 C   -1.0754251069   -0.7822845567   -2.2965649510
 C    0.1232777226    0.0387573011   -2.6832486971
 H    0.7908260012    1.9836523546   -0.4825189065
 H   -0.9760349803    1.8811930133   -0.4075100228
 H   -0.0294142642    1.8623082415    1.0798377054
 H   -0.9625786942   -0.2508229887    1.9538009102
 H   -1.0872217080   -1.7268893239    0.8804392410
 H    1.5643019024   -0.3051962637    1.6692897181
 H    2.1672310857   -2.6603270999    0.4930482056
 H    1.1964732013   -2.6099089159   -1.9243336749
 H   -1.2555006557   -1.7171116736   -2.8170028923
 H   -1.9778820034   -0.2578198508   -1.9985204467
 H    0.0285246235    1.1186542584   -2.6635871121
 H    0.7777554705   -0.3347444447   -3.4638350809