13

 O    0.3531401207    1.5389940236   -0.0495159709
 C    0.0951438799    0.1522107333   -0.0033147434
 C    0.5898246407   -0.5729398533   -1.2680600309
 C   -0.2477689707   -0.1977289147   -2.4775676282
 O   -1.3574147934    0.2630285809   -2.4238428839
 C    0.3901623899   -0.4786853188   -3.7790722144
 N    0.9095037359   -0.7057651122   -4.7868568904
 C    0.6738174590   -0.4724577034    1.2010315276
 N    1.1616421819   -0.9457859972    2.1352010421
 H    1.2969417387    1.6852063907    0.0854132833
 H   -0.9942584750    0.0590265734    0.0426618860
 H    1.6465379156   -0.3550483046   -1.4573601802
 H    0.5193246066   -1.6627224376   -1.1475197567