13

 C   -0.0941203694    1.6129760182    0.0134252322
 C    1.4042727182    1.2975401849    0.0341573395
 C    1.2545045365    0.0770944908    0.9924171628
 C    2.0071088380   -0.7843533623   -0.0142894282
 N    1.2160358560    0.1155238023   -0.9594638659
 C    0.0223051141    0.0862229400    0.0375433526
 H   -0.5125396695    2.0928258514    0.9017015628
 H   -0.4819050320    2.0528125198   -0.9090892420
 H    2.2642560988    1.9629845120   -0.0637927019
 H    1.2591867601    0.0748174724    2.0880723340
 H    3.0917615772   -0.6573178928   -0.0982221342
 H    1.7388039038   -1.8432053929   -0.0949054467
 H   -0.7503632317   -0.6793742437   -0.0564053649