25

 C   -0.0631238698    1.4791535008   -0.1883332627
 C   -0.0360557528   -0.0229305376    0.0397325796
 O   -1.3591174260   -0.5121354992   -0.0161606977
 C   -1.4543632951   -1.9086880077    0.1681979869
 C   -2.9196046794   -2.3283111677    0.0821755548
 C   -3.7387733796   -1.6812306036    1.1933072492
 C   -3.4690960028   -2.1865599688   -1.3736616060
 C   -3.2060785583   -3.6990160803   -1.6060008401
 C   -3.0350357319   -3.8784839079   -0.0729183241
 H    0.9503008684    1.8898972334   -0.1507099922
 H   -0.4962544925    1.7105843169   -1.1656260384
 H   -0.6669165659    1.9724907031    0.5786862682
 H    0.5855810047   -0.5190554658   -0.7255486994
 H    0.4161754906   -0.2575940685    1.0186985410
 H   -0.8577141547   -2.4325288822   -0.5988086210
 H   -1.0395390784   -2.1966688398    1.1510459190
 H   -3.6697093507   -0.5909666479    1.1397379991
 H   -4.7936227605   -1.9652781095    1.1192135895
 H   -3.3773510141   -1.9919522893    2.1815143089
 H   -4.5357278097   -1.9446639388   -1.3818486813
 H   -2.9484291386   -1.4728853451   -2.0158185346
 H   -4.0037257255   -4.2730962978   -2.0829146780
 H   -2.2803125169   -3.8866745782   -2.1563863523
 H   -2.1847945801   -4.4749379219    0.2733789968
 H   -3.9390964306   -4.2644615164    0.4068509648