17

 C   -0.0684520274    1.5717390385    0.4604101554
 C   -0.0660180431    0.0987267384    0.0344302786
 C    0.9831146174   -0.7134767362    0.8163644116
 C   -1.4258314884   -0.5279238468    0.1626996189
 C   -2.5840678774   -0.0575969120    0.7391458728
 N   -3.4745074972   -1.0637291909    0.5615323916
 N   -2.9204935455   -2.1033179111   -0.0856596362
 N   -1.6838472257   -1.7804562774   -0.3261412876
 H    0.9210541843    2.0144666927    0.3134851952
 H   -0.7893053957    2.1582268720   -0.1182907140
 H   -0.3198720941    1.6751469939    1.5225486270
 H    0.2073958478    0.0489177771   -1.0278506628
 H    0.7779928096   -0.6784990000    1.8921947050
 H    0.9710977937   -1.7600709113    0.5032010011
 H    1.9869545221   -0.3099153539    0.6482460813
 H   -2.8410564544    0.8633565705    1.2331374240
 H   -4.4420155161   -1.1125402336    0.8375545280