15

 O    0.1272696045    1.4082355888    0.0476723130
 C    0.0124340055    0.0302090204    0.0545867216
 C   -0.4795030015   -0.7494698395    1.2234306971
 C   -1.3454925962   -0.6894763498   -0.0416467256
 C   -2.5738170406    0.0918735218   -0.0427522257
 N   -3.6616324887   -0.1060947079   -0.7329791302
 C   -4.4418255984    0.9532554178   -0.3454700237
 N   -3.9082508586    1.7688362100    0.5195487004
 O   -2.6399095682    1.1923214321    0.7353370835
 H   -0.6039246872    1.7955819595    0.5445996090
 H    0.7995438296   -0.4059635492   -0.5510302584
 H   -0.0213005666   -1.7026541890    1.4623682868
 H   -0.8458704248   -0.1934368968    2.0800986939
 H   -1.4088336374   -1.5703048618   -0.6674740978
 H   -5.4414002215    1.1203922336   -0.7206116538