25

 C    0.0481452285    1.4530720481   -0.3055292426
 C   -0.0458614329   -0.0089117200    0.1384272772
 C   -1.4214945544   -0.6316687818   -0.1248255835
 C   -1.5188586275   -2.0924254214    0.3249714131
 C   -2.8884901791   -2.7022234415    0.0617245136
 O   -2.8821754374   -4.0423345392    0.5268616253
 C   -4.0981349116   -4.6941336625    0.3498579703
 C   -4.3998950616   -5.3493536354   -0.9754614415
 C   -4.0456091834   -6.1822750637    0.2423996359
 H    1.0409980373    1.8687623268   -0.1070173569
 H   -0.1461957156    1.5545636850   -1.3792299502
 H   -0.6842910811    2.0749282060    0.2213683489
 H    0.7222875715   -0.5999902982   -0.3774267121
 H    0.1842066014   -0.0834695961    1.2093870006
 H   -2.1906723205   -0.0372204402    0.3881086192
 H   -1.6507099849   -0.5600842951   -1.1974025209
 H   -0.7621146153   -2.6969294887   -0.1902259249
 H   -1.3024955322   -2.1721106728    1.3974018656
 H   -3.6721084099   -2.1251833196    0.5818509511
 H   -3.1278668551   -2.6736114624   -1.0135381539
 H   -4.9315702209   -4.2443066601    0.8926030767
 H   -5.4221128420   -5.3568262539   -1.3377833244
 H   -3.6422624311   -5.2633143371   -1.7463803921
 H   -3.0585879537   -6.6297897473    0.2629938307
 H   -4.8216384787   -6.7654590391    0.7250027347