20

 C    0.0147640083    1.4592972173    0.0445402166
 O   -0.1038857754    0.0557655620    0.0774052954
 C    0.6400071909   -0.5645571311    1.1152894939
 C   -0.0210214801   -1.9245101969    1.3690911649
 N    0.7313958515   -2.7342244449    2.3427294365
 C    1.4346812982   -3.9069885221    1.8190790773
 C    2.1938446131   -2.6893009811    2.2301628512
 C    2.8004022558   -1.7697758531    1.2358461949
 C    2.0911431073   -0.7589447918    0.7361771518
 H    1.0485586916    1.7924090685   -0.1327048071
 H   -0.6097680197    1.8168640260   -0.7777943229
 H   -0.3346819735    1.9172646252    0.9831589430
 H    0.5713860378    0.0503359452    2.0294428236
 H   -1.0351107257   -1.7751980378    1.7535090192
 H   -0.1081927933   -2.4220738721    0.3945675769
 H    1.4227128948   -4.7895429154    2.4541625716
 H    1.3585411604   -4.1066120073    0.7517906985
 H    2.7036785910   -2.7237979045    3.1938607656
 H    3.8427455581   -1.9222861474    0.9670548245
 H    2.5225033690   -0.0614003188    0.0243872647