18

 C   -0.2367009340    1.4054079583    0.1314745440
 C    0.2483681360   -0.0440818679   -0.0331261613
 N    0.8820970427   -0.5611330127    1.1660791896
 C    0.1627468628   -1.0686641151    2.1000131493
 N   -1.2382685815   -1.1879292116    2.0938945488
 N   -2.0250757302   -1.7578920416    3.0267450186
 C   -1.4324865188   -2.2327523931    4.0788911727
 C   -0.0097248579   -2.1683911567    4.2685816439
 C    0.7578731388   -1.6036715765    3.3122516420
 H    0.5951931471    2.0447076582    0.4397909542
 H   -0.6409790577    1.7907427733   -0.8103140963
 H   -1.0169561253    1.4884663102    0.8957536807
 H   -0.5871756739   -0.6769464023   -0.3868595244
 H    0.9934788673   -0.0719391472   -0.8361376579
 H   -1.7553661730   -0.8407575559    1.3030753780
 H   -2.0818979498   -2.6842936866    4.8201646741
 H    0.4258836573   -2.5763227547    5.1741923544
 H    1.8357407801   -1.5260701679    3.3844948395