17

 O   -0.1297977729    1.4869505260   -0.0504846784
 C    0.0289979034    0.0750624332   -0.0089429355
 C   -1.3719156467   -0.5227178961    0.0474147237
 C   -1.3810188116   -2.0747323487    0.0173809186
 O   -0.6983032272   -2.5620042258   -1.1467364025
 C   -0.6707964994   -2.6235265965    1.1832749191
 C   -0.1028550836   -3.0456564155    2.1527578584
 C   -2.7763510539   -2.5492510414    0.0217078549
 C   -3.9233467453   -2.9025657484   -0.0318384151
 H    0.7457574038    1.8824544475   -0.0870778151
 H    0.5523889826   -0.3014448462   -0.8982923863
 H    0.6031207800   -0.2398447280    0.8742278793
 H   -1.8870723981   -0.1780900720    0.9489623126
 H   -1.9504337098   -0.1667759930   -0.8122774437
 H   -1.2821153646   -2.4042762452   -1.8981221049
 H    0.3987899183   -3.4321185533    3.0056832645
 H   -4.9331583648   -3.2311449568   -0.0633227696