19

 C    0.0625798522    1.6580537244    0.1059346289
 C    0.0751305456    0.1559277221    0.1244594687
 O   -1.2388504615   -0.4291062140   -0.0511587464
 C   -1.0430499800   -1.3346875638    1.0651363991
 C    0.3831523509   -0.8154231671    1.2916868317
 O    1.3759123059   -1.5100401036    0.5148879909
 C    1.1579750557   -0.6377496887   -0.6074374522
 C    1.2014247380   -1.1171334902   -2.0142126959
 C    2.2828098429   -0.1852632839   -1.4789860825
 H    1.0573722054    2.0591846965    0.3193430121
 H   -0.2501145694    2.0199553699   -0.8803966953
 H   -0.6448412852    2.0471115231    0.8432821843
 H   -1.7516977927   -1.1216796734    1.8755260498
 H   -1.1080785093   -2.3888099242    0.7760702328
 H    0.7259982581   -0.5632848968    2.2960395300
 H    1.4726295493   -2.1556410706   -2.1699978662
 H    0.4674546784   -0.7270219758   -2.7114818964
 H    2.2985019348    0.8454466424   -1.8185651166
 H    3.2588038811   -0.6144394362   -1.2787770668