14

 N    0.0956595930    1.4453656337    0.2876982561
 C   -0.0369683255    0.0335848105   -0.0215436245
 C   -1.4803548237   -0.4422419080   -0.2276784794
 C   -1.3646520191   -1.5526511080   -1.2557681605
 O   -2.1502851773   -2.3883453930   -1.5712426037
 O   -0.1202613973   -1.4627859313   -1.8687465289
 C    0.6418603890   -0.4555379554   -1.2991716141
 N    1.7207301489   -0.0201829115   -1.7719790357
 H    1.0835374221    1.6645987741    0.3866713730
 H   -0.2214251702    1.9961830490   -0.5070646293
 H    0.4086234020   -0.5314021348    0.8075504541
 H   -1.9849954452   -0.7966910999    0.6707758911
 H   -2.0968706028    0.3560444180   -0.6586387962
 H    1.9753304760   -0.4995552336   -2.6366835720