17

 C   -0.0199378236    1.4715481259    0.0679554467
 C   -0.0007449507   -0.0203723121   -0.0203491080
 C   -0.0345920461   -0.7842951618   -1.1338898897
 C    0.0022866665   -2.1981148216   -0.7610729593
 C    0.0599079991   -2.2667903964    0.6179101723
 C    0.0642744094   -0.9022343918    1.2343459835
 N    0.0934348356   -3.5716653337    0.9497376581
 N    0.0607712637   -4.3764261709   -0.1449175622
 C    0.0052158302   -3.5418491426   -1.1875259780
 H    0.8756512230    1.8622857968    0.5690026676
 H   -0.0688083133    1.9223910757   -0.9271078905
 H   -0.8817041332    1.8353022569    0.6431285829
 H   -0.0819685049   -0.4013454335   -2.1458658116
 H    0.9662273985   -0.6942767485    1.8248105412
 H   -0.7923050021   -0.7212637005    1.8968676549
 H    0.1373237031   -4.0013381215    1.8578205104
 H   -0.0294693650   -3.9531005405   -2.1856119582