18

 N   -0.9087250363   -0.6467665090   -1.2805402487
 C   -0.5650568597    0.3085542524   -0.7262775117
 C   -0.1153416617    1.4988241038   -0.0250264135
 C   -0.0719170354    1.4679849999    1.5364680702
 C    1.3320797062    2.1389320458    1.5095041150
 C    2.4752543938    1.3665894702    2.1937901202
 C    2.9250739099    0.4102393617    1.1114119068
 C    2.3609407699    0.6578038023   -0.0715425469
 C    1.4209849942    1.8315234645   -0.0231664320
 H   -0.6909621932    2.3561748962   -0.3851507124
 H   -0.8762714507    2.0105629900    2.0358576034
 H   -0.0393590937    0.4483183741    1.9254060005
 H    1.3006971399    3.1975431766    1.7709723700
 H    3.2964507627    2.0247038179    2.5083845530
 H    2.1346966482    0.8469046324    3.0987532428
 H    3.6453113277   -0.3789645991    1.2986824628
 H    2.5457544948    0.1002548093   -0.9826641035
 H    1.7007624735    2.6309182409   -0.7158254859