19

 C   -0.1235777118    1.5689554277   -0.1550956206
 C   -0.0738147865    0.0425332284   -0.0247276879
 C    0.8233823995   -0.6087613729   -1.1471156245
 C    2.0373375669   -0.5968674512   -0.1362735909
 C    0.9723229097   -0.4967641227    0.9218467273
 C    0.4876128527   -1.1056477637    2.0080286940
 C   -1.0023008620   -1.0484289274    1.9475535464
 O   -1.7865770121   -1.4096197666    2.7918757288
 C   -1.3809588778   -0.5523770189    0.5202985862
 H    0.8612752907    1.9939190571   -0.3735004257
 H   -0.7987485075    1.8570095368   -0.9681753656
 H   -0.4908965566    2.0269109068    0.7688459755
 H    0.5165161365   -1.6300773708   -1.3822386830
 H    0.9475804325   -0.0374287530   -2.0704354994
 H    2.7007561358   -1.4628905583   -0.1016004700
 H    2.6394313627    0.3093055413   -0.2485208109
 H    1.0157512540   -1.6720809647    2.7641814856
 H   -2.2289668140    0.1360505659    0.5551703148
 H   -1.6970597726   -1.4331975838   -0.0506658202