17

 C   -0.8209827695    1.2626529609    0.1758100192
 C   -0.0952651336   -0.0645204248    0.0260969996
 N    0.6492502302   -0.3583450996   -1.2597399680
 C    1.0311090700    0.7384078191   -2.0569261365
 N    2.2635939648    1.0524293069   -2.1275131208
 C    3.0058848279    0.1556134329   -1.2259843457
 C    1.9200620402   -0.7112886769   -0.5394551883
 C    1.2532826299   -0.2444768814    0.7669170953
 O    1.6266882746   -0.0269926618    1.8795793468
 H   -0.1622834312    2.1100435738   -0.0348968149
 H   -1.6879081872    1.3190544569   -0.4891741732
 H   -1.1759516483    1.3571775925    1.2059948835
 H   -0.7733713734   -0.8959542250    0.2524142186
 H    0.2621172947    1.2644536009   -2.6150916078
 H    3.6960985031   -0.4647604422   -1.8065211980
 H    3.6061635199    0.7391616071   -0.5202321327
 H    2.1442426180   -1.7813615292   -0.5457164773