15

 C    0.1485948783    1.3055650303   -0.2263922887
 N   -0.3422879102    0.0368939337    0.3066635843
 C    0.5031685994   -0.7003784736    1.1285631135
 N    0.7369500265   -1.9820437809    1.0340867752
 C    1.5497248770   -2.2986504620    2.1219242091
 C    1.8047285011   -1.1741349595    2.8458205880
 O    2.5244865807   -0.8716571698    3.9566806006
 N    1.1401337310   -0.1420684885    2.2125196731
 H    1.0998235909    1.2204676505   -0.7735596142
 H   -0.6072289968    1.7192918278   -0.8980840363
 H    0.2864348219    2.0298778051    0.5833536709
 H   -0.6872067096   -0.5795754410   -0.4182257975
 H    1.9036025578   -3.3032340610    2.2927011431
 H    2.9399425855   -1.6791228547    4.2742515604
 H    1.0605569163    0.7972369038    2.5621294684