17

 C    0.0869794990    1.5640181173    0.0848500569
 C    0.0740255046    0.0628070913    0.0620250485
 C   -1.2453500018   -0.7331818369   -0.0373240815
 O   -0.8438316700   -1.6262611159    1.0351889502
 C    0.3972141671   -0.9402552530    1.2301921905
 C    1.5325526337   -1.4051500392    0.3059653479
 O    1.1134291578   -0.5055517826   -0.7518146137
 C    0.6829360170   -0.5635487782    2.6481644811
 O    1.7390060461   -0.1044491828    3.0094072084
 H    1.0517421502    1.9343844252    0.4410177403
 H   -0.0702051574    1.9454723049   -0.9304009580
 H   -0.7047406949    1.9589951252    0.7279937575
 H   -2.1520551420   -0.1780804350    0.2322635331
 H   -1.3884648296   -1.2541532646   -0.9890578044
 H    2.5276371405   -1.1438754610    0.6806497008
 H    1.4852829513   -2.4583357612    0.0132074924
 H   -0.1723150619   -0.7156635434    3.3414414301