20

 C   -0.1952396647    1.3071789361   -0.0969652057
 O    0.2670414763   -0.0148703546    0.0658345582
 C    0.8149623716   -0.5670231108   -1.1060951762
 C    1.2620269499   -1.9986879005   -0.7959418207
 C    0.0603210382   -2.5618213696   -1.4832567187
 C   -0.2455564921   -1.1627515586   -2.0965649204
 C    0.3393327417   -1.2373584001   -3.5090903207
 C    1.5939200879   -2.1236172920   -3.2850190876
 N    1.3924777691   -2.8322919510   -1.9991814432
 H    0.6121544102    1.9809552669   -0.4239298940
 H   -1.0157007713    1.3759524853   -0.8269708785
 H   -0.5634415642    1.6428100541    0.8754046501
 H    1.5525952870    0.1279350476   -1.5419455461
 H    1.7800662659   -2.3071034613    0.1055563725
 H   -0.6171365421   -3.3651091932   -1.2210068588
 H   -1.2500962695   -0.7506355134   -2.0075500966
 H   -0.3630234638   -1.7140890560   -4.2012918696
 H    0.5900269850   -0.2506405412   -3.9120401661
 H    1.7139351246   -2.8730743075   -4.0722421305
 H    2.5186251803   -1.5400133603   -3.2428098876