14

 C   -0.0576415164    1.5732681743   -0.0324149190
 C   -0.0293180825    0.0263749293   -0.0271022866
 C   -1.3934825334   -0.5210025611    0.0263512585
 N   -2.4689839169   -0.9372943073    0.0865394411
 C    0.7216510252   -0.5255657365   -1.2044476046
 C    1.8159546736   -1.3255510622   -1.3076068265
 N    2.0773100417   -1.4689101803   -2.6499627348
 N    1.2458353847   -0.8337292411   -3.3393613198
 O    0.3266075989   -0.1904965557   -2.4293666921
 H    0.9646703815    1.9583471488   -0.0165561448
 H   -0.5592935003    1.9416745492   -0.9288680948
 H   -0.5901155034    1.9401629839    0.8472724259
 H    0.4903733254   -0.3188709585    0.8737465820
 H    2.4169422920   -1.7982425827   -0.5501045843