17

 O    0.0850561437    0.0276653264    0.0780303523
 C    0.0160497005    1.2316355168    0.0345397299
 C   -1.3157213655    2.0575512846    0.0431707411
 C   -0.8333472642    3.4402029476   -0.3945081402
 C   -0.9110909518    4.8532053538    0.2435623331
 C   -0.2336678601    4.9192950409    1.5744784536
 C    0.6402364749    4.8689713704    0.3250840911
 C    0.6400150064    3.4281374869   -0.0733087491
 C    1.1548810476    2.2047247087    0.0801192847
 H   -2.0716862442    1.5889521890   -0.5897485974
 H   -1.6904256798    2.0548970507    1.0737030645
 H   -0.9615597650    3.5694070311   -1.4762806997
 H   -1.5668165046    5.6435732214   -0.1001642266
 H   -0.2601618454    5.8896208362    2.0610612964
 H   -0.2435760787    4.0769678141    2.2598340500
 H    1.3544290672    5.6488185090    0.0971760436
 H    2.1656458391    1.8989787023    0.3153490930