17

 N    0.0345161675   -1.1257160556    0.0124252954
 C    0.0304308545    0.0286003254    0.0029032696
 C   -0.0168713031    1.4922508784   -0.0101545432
 O    1.3023380578    1.9962257155    0.0152228872
 C    1.3676495936    3.3840871400    0.0045045317
 C    0.8521238416    4.4235448299    1.0337983134
 N    1.5890175565    5.2799177798   -0.0071589093
 C    2.6717243127    4.1827196476    0.0269222042
 C    0.8994835761    4.4050993851   -1.0650889498
 H   -0.5555505101    1.8187402194   -0.9123981810
 H   -0.5952368487    1.8332880041    0.8616284877
 H   -0.2190093144    4.6341146038    1.0825857944
 H    1.3165721523    4.4428377029    2.0221922861
 H    3.2610029549    4.1800494470    0.9461875401
 H    3.3018735156    4.1641410343   -0.8646331575
 H    1.4080385405    4.4072091894   -2.0317189291
 H   -0.1682731473    4.6143695131   -1.1658262700