18

 C    0.0359956796    1.3800946019   -0.3969349834
 C   -0.0864565980    0.1904821449    0.5733141101
 C   -1.3834045427   -0.4732304007    0.5014821523
 C   -2.4611008899   -1.0049835514    0.4136756706
 C   -3.7509067276   -1.6382310211    0.3642438648
 N   -4.4502826469   -1.6997484502   -0.9247323486
 C   -3.9982089542   -2.9647618912   -0.3223347948
 C   -2.8926718479   -3.6560801208   -1.0453413501
 O   -2.6949431012   -4.8428789740   -0.9772293342
 H    1.0230328631    1.8428477465   -0.3065025650
 H   -0.0989537330    1.0530188142   -1.4312085419
 H   -0.7223212153    2.1373244030   -0.1810602559
 H    0.7062115490   -0.5390641300    0.3637231648
 H    0.0848684578    0.5343091785    1.6013761755
 H   -4.3620337425   -1.4909787576    1.2534116992
 H   -5.4516819954   -1.5893070968   -0.7886289056
 H   -4.7182631209   -3.6296493031    0.1480672533
 H   -2.2623016040   -2.9787094821   -1.6580860011