17

 C   -0.1457421551    1.5379965583   -0.0590127048
 C   -0.0046181949    0.0212492702   -0.0285047439
 C    1.1715075707   -0.5292035974   -0.8882738377
 C    2.0346051627   -0.6523169793    0.3937011210
 C    0.7272520834   -0.5562652744    1.2439997172
 C    0.7410879261    0.2082870186    2.4730699444
 C    0.7590212157    0.8592729908    3.4851188318
 H    0.8141639334    2.0361229803    0.1137191683
 H   -0.5227099637    1.8650118215   -1.0340701520
 H   -0.8391981007    1.8870247944    0.7119206744
 H   -0.9768834178   -0.4422559293   -0.2187576045
 H    0.9438301475   -1.5038530842   -1.3285269465
 H    1.5451363151    0.1283340942   -1.6771927090
 H    2.6351057136   -1.5550209437    0.5230979002
 H    2.6744789340    0.2183169253    0.5517778474
 H    0.3485993779   -1.5641129234    1.4463992756
 H    0.7749539422    1.4271269281    4.3819876881