14

 C   -0.0287080116    1.5273113051   -0.0153247418
 C    0.0599046753    0.0259518515    0.0226326562
 C   -0.8197808773   -0.8196637370    0.9262484387
 C    0.6697855251   -0.8339792827    1.1215777357
 O    1.3816035210   -1.8656073177    0.4501070986
 C    1.1434635605   -1.6448979706   -0.8699176070
 N    0.4513759460   -0.6353272141   -1.2121207587
 H    0.9146112407    1.9661281064   -0.3548897614
 H   -0.8167051567    1.8446673257   -0.7056512468
 H   -0.2607519474    1.9301361183    0.9749052221
 H   -1.3873975640   -0.2911664314    1.6850317754
 H   -1.3052619278   -1.6960113141    0.5096681028
 H    1.1569119032   -0.5072500164    2.0312319983
 H    1.5844510229   -2.3743083929   -1.5382358521