18

 O   -0.7963742295    0.7137294716    0.6544504879
 C    0.0366118421    0.9476436964   -0.1837308563
 C    1.2430325766    1.8400162360    0.0313435436
 C    1.3480886379    2.9144552222   -1.0464026924
 C    2.6556297872    3.6623187549   -1.2977559258
 C    3.2073200985    2.4426254385   -2.0986478971
 C    3.5330035665    3.2653948447   -3.3475575668
 C    2.2309405500    3.8404035336   -2.7882438129
 N    1.6892313474    2.4216884706   -2.4566547599
 H   -0.0323389409    0.5116765173   -1.2043213084
 H    1.1722758055    2.2883053971    1.0272791482
 H    2.1372805793    1.2021596402    0.0084349819
 H    0.4432895431    3.5360716771   -1.0541883306
 H    3.2107582773    4.3624324285   -0.6640262539
 H    3.7037152711    1.5507018171   -1.7148582485
 H    4.4171773982    3.9054131790   -3.3006272056
 H    3.4577780934    2.7409781518   -4.3034563986
 H    1.5596281164    4.5976013732   -3.1969590547