21

 C   -0.0888108760    1.5671935432    0.0237036996
 C    1.2945799518    2.2229796243    0.0467655777
 O    2.0717910899    1.6375951199    1.0817674424
 C    3.3888936445    1.2524192864    0.7551085442
 C    3.4972689818    0.1394040432   -0.2931069051
 O    2.7172239682   -0.9871425264    0.0865807290
 C    1.7357322876   -1.3666234524   -0.8436623277
 O    0.8018410795   -0.3624146230   -1.1250813457
 C   -0.0008309212    0.0427922602   -0.0120917701
 H   -0.6561851235    1.8550084860    0.9167389474
 H   -0.6405842604    1.9414879962   -0.8467077561
 H    1.7721598990    2.0921162115   -0.9295094692
 H    1.2022499403    3.3038435003    0.2268241122
 H    3.9949009340    2.1091632753    0.4134197850
 H    3.8189456315    0.8960086093    1.6966910232
 H    3.1902352552    0.4994705511   -1.2809298788
 H    4.5529943396   -0.1601427885   -0.3621021486
 H    2.1795704492   -1.6188611388   -1.8170024624
 H    1.2645884973   -2.2564099962   -0.4043861134
 H    0.4513014701   -0.3090754046    0.9186597137
 H   -1.0014888682   -0.3992599869   -0.1117727375