17

 C    0.0077336699    1.5274118281   -0.0254803968
 C    0.0353345742    0.0090928193    0.0586205636
 C   -1.1260515024   -0.6400263525   -0.4990037866
 N   -2.0709244701   -1.1043353215   -0.9789290202
 C    1.3292697093   -0.7852674535   -0.1309965909
 O    2.4402247133   -0.0190116280    0.3099789142
 C    1.9323987568   -0.0285820682    1.6740235958
 C    0.6679985354   -0.7770199363    1.2256633829
 N   -0.0570183691   -1.7855015642    1.8966565038
 H    1.0088468572    1.9295486769    0.1388582007
 H   -0.3216313690    1.8411965544   -1.0193251064
 H   -0.6792760200    1.9557518675    0.7102559097
 H    1.4748966935   -1.5382726203   -0.8956598891
 H    2.5746669408   -0.6456434152    2.3135280115
 H    1.8358653213    0.9763985751    2.0981339602
 H    0.5494650875   -2.4394956731    2.3785436646
 H   -0.7284032485   -1.4102211486    2.5574236831