19

 C   -0.0512629043    1.5283352533   -0.0452199407
 C   -0.0448704809   -0.0096265502    0.0408536800
 C    0.7762617445   -0.4803246439    1.1532174069
 C    1.4267965939   -0.8595622668    2.0910760689
 C   -1.4908938683   -0.5662651033    0.1676290383
 O   -2.2739384060   -0.1168823249   -0.9398810079
 C   -2.8321984156   -1.2255154430   -1.6430045150
 C   -2.3348237216   -2.4398686446   -0.9122108454
 C   -1.5843351433   -2.0672199046    0.1172048921
 H    0.9614388705    1.9110068482   -0.1948808467
 H   -0.6822541151    1.8455649527   -0.8778127545
 H   -0.4453531296    1.9630722388    0.8786956148
 H    0.3639754503   -0.4126533455   -0.8952531612
 H    2.0150914045   -1.1954376475    2.9087534297
 H   -1.9202453831   -0.1618460403    1.0989997146
 H   -3.9312138095   -1.1521079961   -1.6378989408
 H   -2.5120238394   -1.2023319527   -2.6961480571
 H   -2.5778347254   -3.4516479357   -1.2108666578
 H   -1.0839910115   -2.7041474640    0.8334483721