14

 C   -0.0582090854    1.5924125587    0.1192007799
 C    1.4838067689    1.5325139717   -0.0342185789
 C    2.0051631282    0.5996699089    1.0779500201
 C    0.9564343217   -0.4581042627    1.0826742901
 C    0.0141680189    0.0502776883   -0.0275556583
 C    1.3541999900    0.1877657960   -0.8227036101
 N    2.1667118962   -0.6131765388    0.2042832267
 H   -0.4758470119    2.0106415885    1.0399577803
 H   -0.5314622889    2.0577413804   -0.7516572175
 H    2.0893209597    2.3805986656   -0.3460691780
 H    2.6820412908    0.8093773030    1.8970211644
 H    0.7562153076   -1.1330698165    1.9056886366
 H   -0.8301080921   -0.5638446585   -0.3328375451
 H    1.5009277064    0.0374880754   -1.8899171504