17

 O   -0.8926001872    0.8689010390   -0.3551222842
 C    0.1639416633    0.8915796139    0.2225285908
 C    1.2022665926    1.9592270740    0.0424441826
 C    1.0402200297    2.9244983625   -1.1073947311
 C    1.2645646084    2.2421721179   -2.4758676881
 C    1.1750286082    3.1841841467   -3.5834566640
 C    1.0979132378    3.9836632593   -4.4775176436
 C    1.9512841910    2.3276956365    1.2666083689
 O    2.5322108242    1.4658387376    0.3047101357
 H    0.4658657554    0.1038839047    0.9479142182
 H    0.0307668027    3.3448433353   -1.0723335362
 H    1.7492778343    3.7487707521   -0.9926863352
 H    2.2510203256    1.7627163449   -2.4758877188
 H    0.5231421171    1.4462527766   -2.6080253948
 H    1.0301537703    4.6769924218   -5.2786770622
 H    2.3656831412    3.3329998331    1.3220087926
 H    1.7038719454    1.8681509040    2.2231666394