20

 C    0.2641204242    1.7552366550   -0.5004928673
 N    0.1059747060    0.3288221496   -0.2506148784
 C    1.2877948683   -0.4427803604    0.0915536740
 C    0.2205692104   -0.2027559595    1.1113199439
 C    0.5110990008    0.6708761475    2.2864587415
 O   -0.6074022047    1.1030353760    3.0788866390
 C    0.3717628553    0.2501046644    3.6924620622
 C   -0.1306956929   -1.0929313656    4.1621685309
 O   -0.8981110772   -0.9534907871    5.3464756695
 H    1.1109596966    2.2253113637    0.0229507629
 H    0.4166058099    1.9006168704   -1.5744317820
 H   -0.6527669955    2.2771652096   -0.2108300184
 H    1.3908245979   -1.4161330104   -0.3810159304
 H    2.2263923598    0.0962924932    0.2273271054
 H   -0.4941700782   -0.9968035688    1.3086387993
 H    1.2375916357    1.4622595874    2.1015868661
 H    0.9935365515    0.7622027341    4.4298830207
 H   -0.7047494808   -1.5917352596    3.3703921715
 H    0.7173654932   -1.7365733511    4.4204021171
 H   -1.6270211101   -0.3581951985    5.1377880624