19

 C    0.4712349507    1.6877404771    0.1218419001
 C    0.1361666964    0.2116359328    0.2515841387
 C    0.6736560848   -0.7837887090   -0.8264514190
 C    1.2921493250   -1.6721544193    0.2840015042
 C    2.7232231366   -1.2879564325    0.6870450416
 O    2.2514181536   -0.2327266170    1.5613923302
 C    0.8724463675   -0.5972387790    1.3536991759
 C    0.1580421308   -0.9229154053    2.6317751061
 O   -1.0397764338   -1.0381065220    2.7196543478
 H    1.5542089968    1.8377953535    0.0895409144
 H    0.0364698551    2.1028953013   -0.7934878782
 H    0.0782399310    2.2599878800    0.9688270000
 H   -0.9373384958    0.0635506795    0.4028080442
 H   -0.1036970621   -1.2695077835   -1.4192187393
 H    1.4160179507   -0.3613587325   -1.5105632196
 H    1.0002777163   -2.7196160447    0.3350652531
 H    3.2636015546   -2.0558391363    1.2547386145
 H    3.3711084529   -0.9073408027   -0.1117026637
 H    0.8344402689   -1.0717749003    3.5027368690