14

 C    0.0839045605    1.4758158619    0.0306595582
 C   -0.0532511096   -0.0085109941   -0.0070151349
 C   -1.2006184806   -0.7113919859   -0.1480143609
 C   -1.0789776091   -2.1374038983   -0.1557275393
 N    0.0416028251   -2.7751373633   -0.0378451238
 C    1.2099976613   -2.0393258112    0.1063213440
 N    2.3826147607   -2.4955298170    0.2331441780
 O    1.1253978522   -0.6344613132    0.1176458344
 H    0.7432456695    1.8129412975   -0.7759902342
 H   -0.8883619004    1.9593980756   -0.0722404692
 H    0.5450954921    1.7869447795    0.9738324851
 H   -2.1557390319   -0.2169032993   -0.2492022211
 H   -1.9767217715   -2.7460976082   -0.2671180057
 H    2.3279981814   -3.5124474740    0.2117035095