18

 C   -0.3394094722    1.4092438138   -0.0566275570
 C    0.0780522809   -0.0520897565   -0.1129393108
 C    1.4197260214   -0.3773984792   -0.8064132402
 O    1.9767151833   -0.8869120898    0.4287208101
 C    0.7624822698   -0.6620631436    1.1366035394
 C    0.8383868281   -0.0085043044    2.5322233354
 O    0.1508893240   -1.1630941363    3.1117556396
 C    0.1238026284   -1.8191125208    1.8970832208
 N   -0.3053751415   -2.9508101821    1.5766004156
 H    0.4763969260    2.0466070927    0.3016058487
 H   -0.6255630323    1.7636671681   -1.0524002646
 H   -1.2000547745    1.5550132941    0.6044668215
 H   -0.7457328101   -0.6787646098   -0.4612669142
 H    1.3829437993   -1.1493302072   -1.5819490679
 H    1.9850033450    0.4863507125   -1.1767632216
 H    1.8561594445    0.0840396013    2.9185733855
 H    0.2704968469    0.9105184140    2.6937635912
 H   -0.6790163071   -3.4578887668    2.3808624585