11

 O    0.1456913681   -0.0121828744   -0.5065416876
 C    0.0153483799    1.1165205864   -0.1352775885
 C    1.1641532584    1.9428862087    0.2637713911
 N    2.0700639891    2.6032237955    0.5462611818
 C   -1.3528261424    1.8591604047   -0.0746751079
 C   -2.4533379919    1.0218539874   -0.5287930700
 C   -3.3584119410    0.3365848228   -0.9130492475
 C   -1.5659980584    2.3816586534    1.2839474746
 N   -1.7175860490    2.7853392073    2.3548508584
 H   -1.2410216140    2.7302737943   -0.7400298808
 H   -4.1612193188   -0.2734629759   -1.2497974237