17

 C   -0.3810517218    1.2624831573   -0.9506461493
 C   -0.0948137007    0.0738741055   -0.0632705898
 C    1.1345639207   -0.7192489656   -0.2683961135
 O    1.0391884312    0.2042998544    0.8142836147
 C   -1.2669760427   -0.5834673122    0.5732434542
 N   -2.4845830140   -0.4846993330    0.0405426725
 N   -3.2702465617   -1.1981767378    0.8688455242
 C   -2.5931719582   -1.7384590518    1.9114693803
 C   -1.2787598819   -1.3603453893    1.7569205675
 H    0.5504316199    1.6636686057   -1.3568447841
 H   -1.0400057936    0.9720405423   -1.7730362912
 H   -0.8855044703    2.0504179816   -0.3837842232
 H    1.1471844238   -1.7715573863    0.0118630807
 H    1.8237849264   -0.4397890394   -1.0651788305
 H   -4.2535827130   -1.2643520564    0.6690725656
 H   -3.0902165282   -2.3284821999    2.6652566921
 H   -0.4463024460   -1.5798732352    2.4035075199