17

 C   -0.0342278461    1.3510782203   -0.1308002790
 O    0.0178076908   -0.0566941444   -0.1051867583
 C   -1.2322204441   -0.6337091593    0.2144712222
 C   -1.1115147733   -2.1173759308    0.1848202463
 N   -1.2141242145   -2.9387179090    1.1865969648
 C   -1.0319022736   -4.1957577602    0.6318865513
 N   -1.1440742259   -5.3290534487    1.4288496146
 C   -0.8219026758   -4.0596653753   -0.7060828236
 O   -0.8790802569   -2.7145288708   -0.9971849872
 H    0.9656460020    1.7067548598   -0.3891827146
 H   -0.7498781510    1.7197158737   -0.8829238396
 H   -0.3195198948    1.7684197811    0.8478068411
 H   -1.5655366425   -0.3454497457    1.2214216075
 H   -1.9995973490   -0.3046651786   -0.5065567079
 H   -0.9520310800   -5.1184110465    2.3991214934
 H   -0.5921583915   -6.1138611890    1.1123691553
 H   -0.6359956436   -4.7274214265   -1.5275908863