16

 C    0.1427810160    1.4854382459    0.3416276382
 O    1.4204886608    1.5171242548   -0.3401449847
 C    1.2882943081    0.1553596396   -0.7963472793
 C    2.0746340940   -0.2734581953   -2.0232773525
 C    3.1891326308   -1.1826019502   -1.3611659026
 N    2.6505524925   -1.6807636856   -0.0539351424
 C    1.6910175866   -0.8978948870    0.1698456309
 O    0.5599481764   -0.8896805321    0.9484079148
 C   -0.0851081988    0.0233405860   -0.0212993094
 H    0.2257375081    1.6836484566    1.4140143533
 H   -0.5642767716    2.1833326740   -0.1223198356
 H    1.4667746507   -0.8694284931   -2.7093281862
 H    2.4718493932    0.5844382737   -2.5698263762
 H    3.4247998973   -2.0488138116   -1.9842235845
 H    4.1207650355   -0.6288705851   -1.2005449834
 H   -1.0456378995   -0.3654769103   -0.3510175205