19

 O   -0.0558204408    0.1574348033   -0.7559798200
 C   -0.0953974035    1.2716334542   -0.3098910641
 C   -1.2225889844    2.2194858808    0.1237038724
 C   -1.5417456449    2.1260482413    1.6520488815
 C   -0.5053852623    3.2504084802    1.9489265734
 C   -0.1197087770    3.3080158458    0.4467163786
 C    0.9549266903    2.3005917128    0.0124942373
 C    2.3401584569    2.0348748795    0.5538840077
 C    2.1820347934    2.5361940737   -0.8459299715
 H   -2.0587335757    2.3580678972   -0.5618169966
 H   -2.5710039545    2.4036923574    1.8869386772
 H   -1.3429716242    1.1513340420    2.1039807798
 H   -0.9720668916    4.1711320323    2.3069822470
 H    0.3089462374    2.9918867262    2.6311240976
 H   -0.0938982033    4.2827003006   -0.0408382259
 H    2.7127455032    2.7215303371    1.3072238790
 H    2.6148230112    0.9957074562    0.7020360801
 H    2.3381243814    1.8415020460   -1.6645797963
 H    2.4420861686    3.5676844734   -1.0586478271