19

 C   -0.0357710787    1.5319452907   -0.0891890004
 C    1.4920486288    1.5506090869    0.0626879766
 O    2.0356161877    0.7744149867   -1.0268442559
 C    1.5653519561    0.0811943951    0.1249277881
 C    2.3739722350   -0.9342767856    0.8617692539
 C    1.5536142327   -1.4058945201    2.0810222578
 C    0.0910053798   -1.6589926394    1.6959647444
 O   -0.5413033140   -0.4775511417    1.2162346959
 C    0.0306515592   -0.0247241633    0.0045807271
 H   -0.5703308381    1.9381392540    0.7714740190
 H   -0.4190663823    1.9610621240   -1.0171534488
 H    2.1379467480    2.3117713915    0.4855902532
 H    2.5609701542   -1.7863555926    0.1935703857
 H    3.3504659387   -0.5354098730    1.1545319745
 H    1.9871808267   -2.3184803705    2.5041398939
 H    1.5743630831   -0.6386142168    2.8632985653
 H    0.0291979909   -2.4609386643    0.9404757914
 H   -0.4900604723   -1.9756588054    2.5665224557
 H   -0.3447353154   -0.5988520761   -0.8543454473