21

 C    0.0851459901    1.7059208237   -0.0594045625
 C    0.0748481664    0.1913103791    0.1350514914
 C    0.8288431297   -0.6345957547   -0.9669387375
 C    1.7857056487   -1.4445926305   -0.0698676261
 C    0.8491372613   -1.8678819956    1.0962248248
 C    0.8380164411   -0.3390143985    1.3745130231
 C    2.3306916777   -0.3121062653    0.8738199411
 C    3.3725178142   -0.7133668549    1.8739985802
 O    4.3787782507   -0.0771066062    2.0762066350
 H    1.1021162421    2.1069808121   -0.1175523582
 H   -0.4285765487    1.9806239359   -0.9868749177
 H   -0.4266847616    2.2126728674    0.7659428367
 H   -0.9683344621   -0.1389563949    0.2030627394
 H    0.1608619858   -1.2805437355   -1.5441924764
 H    1.3665878047    0.0092393981   -1.6698314989
 H    2.4625780311   -2.1468031337   -0.5577477124
 H   -0.1041079842   -2.3363840222    0.8325203612
 H    1.3421107834   -2.4580981106    1.8686864894
 H    0.5600654703    0.0745315266    2.3450552415
 H    2.6780428906    0.6041221769    0.3906561804
 H    3.1817008486   -1.6494477772    2.4437033856