18

 C    0.0429338730    1.5219247942   -0.0449267783
 C    0.0084475169    0.0663638953   -0.0289246169
 C   -0.0182179292   -1.1396527253   -0.0595859639
 C   -0.0334513118   -2.5873916206   -0.0182997847
 C    0.3567601074   -3.2480863070    1.3580804072
 O    0.8467442498   -2.4530609416    2.3976741929
 C   -1.0677450107   -3.7945611940    1.4034307762
 C   -2.0822884254   -2.7431513621    1.2041058026
 N   -1.3976851790   -3.2633296728    0.0094804945
 H    0.9760920411    1.8998166393    0.3867045239
 H   -0.0302888887    1.9064179970   -1.0679400458
 H   -0.7862010403    1.9471435147    0.5307754925
 H    0.5365524742   -3.0049700144   -0.8514571737
 H    1.0839120063   -4.0496104160    1.2082989341
 H    0.4476691452   -1.5783348995    2.3154995047
 H   -1.3341212242   -4.8046395789    1.6974742093
 H   -3.1226498075   -3.0487572938    1.2537383330
 H   -1.8994701472   -1.7176196445    1.5138434824