19

 O   -0.0334468307    1.4129623984   -0.0061038313
 C    0.0086812093    0.0201771975   -0.0600565955
 C    0.4229108308   -0.7400336272   -1.3331418174
 C   -0.4868542205   -1.8817051354   -0.7941920632
 O    0.2264144493   -2.7794333906    0.0426280930
 C    1.0690969859   -2.0662208448    0.9497261590
 C    0.4140107842   -0.7284699336    1.2848662821
 C   -1.0974280589   -0.9840501150    1.5600043387
 C   -1.2975286803   -0.8099018892    0.0492261328
 H    0.8646321205    1.7421042527    0.1122894460
 H   -0.0237423049   -0.2585154834   -2.2081325401
 H    1.4717496282   -0.9747219392   -1.5386229113
 H   -1.0413171630   -2.4887289619   -1.5092482529
 H    1.1787627536   -2.6947985735    1.8401362669
 H    2.0696821115   -1.9211247020    0.5147578732
 H    0.9929560331   -0.1492760395    2.0086605137
 H   -1.3618628251   -1.9433757457    2.0129182250
 H   -1.5628242684   -0.1681756810    2.1173855761
 H   -2.2441590846   -0.4881358668   -0.3869111348