17

 C   -0.0515013930    1.4737730202   -0.0105266497
 C    1.4089533592    1.9140532503    0.1251584189
 C    2.2596876132    0.9035622253   -0.0939813017
 C    3.4389192354    0.3857740769    0.7572103300
 N    2.6518912004   -0.4944289480    1.7150574180
 C    1.6174076293   -0.7943931643    1.0197230956
 N    0.2317445148   -0.8648155088    1.2180639173
 C    0.0109064488   -0.0833755742   -0.0739447693
 C    1.4917326193   -0.3564659378   -0.4113815762
 H   -0.6405821506    1.8345118125    0.8422734626
 H   -0.5546286443    1.8569206768   -0.9092704358
 H    1.6739628381    2.8625909742    0.5803126223
 H    4.1922047809   -0.1640126824    0.1809175453
 H    3.9396875980    1.1607130199    1.3408077231
 H   -0.1469969874   -0.5491303930    2.1062847425
 H   -0.7754133817   -0.5313912454   -0.6810224043
 H    1.7976046597   -0.9940518521   -1.2380279587