16

 C   -0.0011817179    1.5313651310   -0.0824133485
 C   -0.0377469081    0.0113133750    0.0738224318
 N   -1.4068682820   -0.5194744746    0.0211086835
 N   -1.9557464121   -0.7885064969    1.2134114028
 N   -3.1478754172   -1.2440278573    1.2858557059
 C   -3.8512028041   -1.4553255536    0.1226577380
 C   -3.3588129104   -1.2103181601   -1.1148315934
 C   -2.0230733189   -0.6825154169   -1.2464123981
 O   -1.4307485267   -0.3907108951   -2.2689779609
 H    1.0341758492    1.8797144998   -0.0261138836
 H   -0.4116794165    1.8269831520   -1.0501299775
 H   -0.5713493735    2.0174815753    0.7143939148
 H    0.5181249209   -0.4690313636   -0.7338049678
 H    0.3679843056   -0.3015601319    1.0367030330
 H   -4.8520565935   -1.8443567219    0.2776190646
 H   -3.9268426649   -1.3863081112   -2.0199385447