18

 C   -0.3465190275    1.4433712016   -0.0285245966
 C    0.1470909359    0.0100910435   -0.0549764169
 O    1.3575390656   -0.1463916811   -0.8207619198
 C    2.0600545292   -0.7561455608    0.2829380824
 C    0.8429163716   -0.6131875555    1.2154311405
 C    1.0043224738    0.2710268985    2.4501205429
 C    0.1827118836   -1.9174856032    1.6033371410
 O    0.5929718977   -3.0179640161    1.3386802247
 H    0.4145893758    2.1274665011    0.3548364069
 H   -0.5958432866    1.7544265761   -1.0478809762
 H   -1.2493188792    1.5358916975    0.5846180930
 H   -0.6459811855   -0.6399128136   -0.4544823615
 H    2.3468900815   -1.7916422742    0.0743875928
 H    2.9441026544   -0.1764282754    0.5741103672
 H    1.4156765467    1.2487999179    2.1893006459
 H    0.0466713446    0.4314291233    2.9579418892
 H    1.6876278282   -0.1962252430    3.1676400038
 H   -0.7708959796   -1.7842759865    2.1681178206