12

 N   -0.0363653619    1.3458134660    0.0100351275
 C    1.2845237514    1.7483248461   -0.0005901897
 N    2.1536166084    0.7486830018   -0.0146052269
 C    1.3397846949   -0.3433984839   -0.0126329405
 C   -0.0003119209   -0.0312021724    0.0021898482
 N   -0.8141443373   -1.1232833318    0.0041183113
 C    0.0549487889   -2.1229253849   -0.0098650095
 N    1.3758372625   -1.7204136723   -0.0205608132
 H   -0.8425389710    1.9467707403    0.0215163349
 H    1.5500482950    2.7945313972    0.0025649927
 H   -0.2105756504   -3.1691319501   -0.0130239934
 H    2.1820130404   -2.3213723960   -0.0318117713