18

 O   -0.0073089803    0.7560591237   -1.4076765936
 C   -0.0390704607    1.3597780649   -0.3532838294
 C   -1.3210420943    1.7857900571    0.2669656587
 C   -1.5886180549    1.6341789981    1.7652796238
 C   -1.3296999320    2.9937135252    1.2023807690
 C   -0.0415101092    3.7628033668    1.4575141432
 C    1.2450022147    3.0075586213    1.1828852500
 N    1.3868796928    1.6726486101    1.7623527867
 C    1.2430733957    1.8076628113    0.2878610407
 H   -2.1650620149    1.6408600775   -0.3978104350
 H   -2.6096734686    1.3827635883    2.0309190143
 H   -0.8191714334    1.1692549123    2.3644333605
 H   -2.1989570809    3.6370428468    1.1010287418
 H   -0.0377669637    4.6534164219    0.8160801054
 H   -0.0282184530    4.1273016923    2.4931864329
 H    2.1355076345    3.6322433055    1.1471630986
 H    2.3606676715    1.4785066691    1.9793551354
 H    2.1129656667    1.6079366878   -0.3305296131