20

 C    0.1402715972    0.6909968709   -0.5709218455
 O    0.0219427384   -0.5353124372    0.1341576827
 C    0.6328021223   -0.5273767118    1.4161538165
 C    0.2664829475   -1.8188408757    2.1476976120
 C    1.3962637855   -2.8194405526    1.7902048668
 C    1.0694062773   -3.7085117316    0.5857749897
 N    2.5104617860   -1.9127863216    1.5290485173
 C    2.1682128038   -0.6198423209    1.2567195007
 O    2.9189011697    0.2681189231    0.9062071606
 H    1.1858209873    0.9564897664   -0.7588050414
 H   -0.3848246672    0.5566995445   -1.5195076030
 H   -0.3342378988    1.5121027254   -0.0119522053
 H    0.3551677458    0.3826289612    1.9645599895
 H    0.2600773141   -1.6376693290    3.2259324099
 H   -0.7202868252   -2.1771151452    1.8494323148
 H    1.6343823002   -3.4515468922    2.6534324188
 H    0.7648548549   -3.0917649137   -0.2639957832
 H    1.9374345876   -4.3086595279    0.2928928558
 H    0.2530447931   -4.3962137996    0.8299694497
 H    3.4424723906   -2.2392589624    1.3221410932