16

 C   -0.1080409922    1.5294287666    0.0309272957
 N    0.0954887125    0.0843667237   -0.0844312688
 C    0.7076796668   -0.5109099861    1.0870948684
 C   -0.2395702632   -0.6561581628    2.3112334856
 O   -1.4127788409   -0.4142553643    2.2473117798
 C    1.2567303107   -1.8407284232    0.8290915783
 C    1.6710770716   -2.9658858671    0.6799463688
 C    2.1719372060   -4.2964276956    0.4430731533
 O    2.7082130641   -4.9821361387    1.2824236035
 H    0.8663242283    2.0269593828    0.0928256373
 H   -0.6019291643    1.8856570559   -0.8765975435
 H   -0.7129701425    1.8374907308    0.8960362256
 H   -0.7979199850   -0.3713907585   -0.2432797457
 H    1.5370367939    0.1344106105    1.4174747446
 H    0.2471215955   -1.0186493011    3.2414181905
 H    2.0249989788   -4.6553180928   -0.5953533334