15

 C    0.0872430134    1.5134576860    0.1465077292
 C   -0.0484080102   -0.0140635546   -0.0634423193
 C   -1.4491978099   -0.4356502559   -0.0453334219
 C   -2.6063048300   -0.7594852771   -0.0360579487
 C    0.6275758514   -0.4543329646   -1.3333507985
 C    0.1565541735   -1.0372494159   -2.4656329229
 O    1.1660012910   -1.2226204377   -3.3129522079
 N    2.3330551924   -0.7220378492   -2.6577026161
 N    1.9836765808   -0.2921260121   -1.5297524907
 H    1.1427899799    1.7944082326    0.1321265883
 H   -0.4325891308    2.0554817862   -0.6474415304
 H   -0.3466847965    1.8006683279    1.1070301099
 H    0.4695936921   -0.5093103472    0.7693401682
 H   -3.6273989699   -1.0514181409   -0.0124077464
 H   -0.8238153573   -1.3582163574   -2.7740307128