17

 C   -0.0731367087    1.4323049060   -0.0410304587
 O    1.2513239735    1.9517324894    0.2431090668
 C    1.8093403689    0.8954379149    0.9117440102
 N    2.2064485763    0.9538373923    2.1076766745
 C    2.0767481066   -0.3503742585    2.7661465202
 C    0.6162627108   -0.8197632022    2.4699392213
 C    0.5122711708   -1.0326398403    0.9619644206
 C    0.1288976363   -0.0891751040   -0.1610725643
 N    1.5440579269   -0.3025939214    0.1776354989
 H   -0.7591813249    1.7275480029    0.7616577773
 H   -0.4107531522    1.8622173217   -0.9853594532
 H    2.7878264801   -1.1031978499    2.4009102718
 H    2.2431553656   -0.2196768726    3.8378811174
 H    0.3810206391   -1.7565581936    2.9830615269
 H   -0.0683623101   -0.0538653750    2.8455950665
 H    0.4570209713   -2.0796386944    0.6685208213
 H   -0.2217747503   -0.5533426452   -1.0795335877