20

 C    0.2863991084    1.5926657822   -0.0534712697
 C   -0.2738751120    0.1948284754    0.0864829121
 C    0.6458500006   -0.9843794620    0.2888984429
 C   -0.2484581808   -0.4973854019    1.4142619727
 O   -1.4501511905   -0.0451722225   -0.6494171926
 C   -1.2798097740   -0.1383933978   -2.0526019752
 C   -2.5524906668   -0.6504372474   -2.7287660526
 N   -3.5520758867   -0.9847160670   -1.8762622573
 O   -2.6127807992   -0.7444326275   -3.9391070918
 H    1.1470164546    1.7278223046    0.6073343570
 H    0.6209379242    1.7970388846   -1.0759820704
 H   -0.4718514598    2.3361147416    0.2134477470
 H    0.3714898224   -1.9186888697   -0.1876906414
 H    1.7135272682   -0.8060095513    0.3558391832
 H    0.2028166612    0.0179073923    2.2550084496
 H   -1.1078007278   -1.1094119974    1.6626434992
 H   -1.0426196026    0.8338981350   -2.5039666264
 H   -0.4643916377   -0.8286483303   -2.3089769398
 H   -3.4410310457   -0.8280013980   -0.8892405472
 H   -4.4320284660   -1.2911642930   -2.2550035593