19

 O    0.1025936130    1.4304418315   -0.1149766533
 C    0.0471453693    0.0278031239   -0.0097045654
 C   -0.0393602142   -0.5800816618    1.4090545639
 O   -1.3338644522   -1.1490003444    1.1302621126
 C   -1.3788972118   -0.5436221289   -0.1893898753
 C   -2.5209096674    0.4534121609   -0.3324198261
 C   -3.8573886884   -0.2354148413   -0.1995207883
 C   -5.0371518788    0.1927210974   -0.9584268156
 O   -4.3068449185   -0.9726335329   -1.3446906076
 H    1.0183228917    1.7092887137   -0.0210442703
 H    0.7946253149   -0.4506143959   -0.6538140372
 H    0.7011562966   -1.3479644279    1.6640492437
 H   -0.0756863493    0.1749722310    2.2051138648
 H   -1.4641465787   -1.3173440872   -0.9621016442
 H   -2.4241496923    1.2319174650    0.4312541201
 H   -2.4540156644    0.9395209884   -1.3118691691
 H   -4.0161963213   -0.7538680382    0.7459970573
 H   -6.0355507536    0.0106855891   -0.5625978741
 H   -4.9572976245    1.0411063374   -1.6378083062