20

 C    0.0112895334    1.6306677424   -0.5248133990
 C    0.0522602708    0.1789562001   -0.0850930250
 C    1.1869116473   -0.7025570282   -0.5638582432
 N    1.1717957856   -0.1736752550    0.7735040401
 C    1.2993717046   -0.8579661544    1.9579046977
 O    1.9893547582   -1.8377782113    2.1206628411
 C   -1.3079168652   -0.4411486667    0.1023369699
 C   -1.5751363748   -1.6834147400    0.9088250863
 C   -2.0724760313   -0.3458576465    1.4012428907
 H    1.0212120545    2.0254447037   -0.6572923190
 H   -0.5300334219    1.7284605059   -1.4717676268
 H   -0.5047082859    2.2439259091    0.2210129573
 H    0.9917560809   -1.7665923860   -0.6727123678
 H    1.9405971368   -0.2948919540   -1.2334004373
 H    0.7582566214   -0.3575183504    2.7837637766
 H   -1.9122196923   -0.3322793774   -0.7954982381
 H   -2.2997790855   -2.3865720789    0.5136674260
 H   -0.7576337975   -2.1545728598    1.4418543757
 H   -1.5682128544    0.0937298668    2.2554744523
 H   -3.1357908349   -0.1378112695    1.3608459725