11

 N   -0.0326415745    1.2880842388    0.2499740751
 C    0.0159951513    0.0353029395   -0.2798572996
 O    0.9922083160   -0.4083960604   -0.8518943388
 C   -1.2523385461   -0.7991658889   -0.1047144915
 C   -0.9170609460   -2.1718162890    0.4613725475
 O   -1.5802118499   -2.7282899614    1.2959142241
 H    0.7896305801    1.8659933442    0.1830994852
 H   -0.8258385532    1.6288195326    0.7630442760
 H   -2.0258458686   -0.3321333754    0.5090983036
 H   -1.6584812479   -0.9603580957   -1.1123372529
 H   -0.0011102212   -2.6220279543    0.0288691313