17

 C   -0.0031760989    1.4434560791    0.0399042324
 N   -0.0225737100   -0.0019092236    0.0152466450
 C    0.0224617909   -0.7629288542   -1.1414865508
 C    0.0854090631   -2.0824181196   -0.7647291897
 O    0.1253402861   -3.1301990659   -1.6424191394
 C    0.0883598199   -2.1295979704    0.6551593542
 C    0.0250954570   -0.8259071137    1.1115276391
 C    0.0100836455   -0.3061833962    2.5115595121
 H    1.0040970729    1.8406807968    0.2191913005
 H   -0.3564826784    1.8221584030   -0.9213526254
 H   -0.6672403910    1.8242744057    0.8206756151
 H   -0.0002992113   -0.3073292752   -2.1169063197
 H    0.1685689492   -3.9445302963   -1.1339173418
 H    0.1180824139   -3.0133665049    1.2765212842
 H    0.8667307334    0.3444215825    2.7295893038
 H   -0.8970537516    0.2690787761    2.7377383514
 H    0.0481698694   -1.1437502132    3.2117653590