23

 C   -0.0995704141    1.5444621027   -0.0121209167
 C   -0.0193774651    0.0200004608   -0.0164031230
 O   -1.3027095811   -0.5506788125   -0.1952663245
 C    1.1329192772   -0.5308143551   -0.9105769264
 C    2.0094216543   -0.6481932422    0.3648502789
 C    0.7151435128   -0.5705409408    1.2186663156
 C    0.7241500186    0.0350649650    2.6433163654
 C    0.6946879474   -1.4059376206    3.2213704848
 C    0.2256302759   -1.9125735955    1.8315078867
 H    0.8791451021    2.0002351425    0.1662435172
 H   -0.4595381736    1.9114722687   -0.9820663750
 H   -0.7888491932    1.8927867564    0.7629650111
 H   -1.7282240667   -0.1106187966   -0.9387720382
 H    0.8606740752   -1.5109600673   -1.3096715552
 H    1.4941658450    0.1035742463   -1.7251517446
 H    2.6179375797   -1.5496119263    0.4720026870
 H    2.6547045388    0.2243445848    0.5079631666
 H    1.5708781076    0.6753678991    2.9077514535
 H   -0.2024900495    0.5767836045    2.8592642856
 H    1.6964940365   -1.7640894605    3.4742838044
 H    0.0363627866   -1.5937020147    4.0728191536
 H   -0.8611343511   -1.9988836531    1.7675020347
 H    0.6744607570   -2.8315064358    1.4438589883