17

 C    0.0061786962    1.4759263653   -0.0249573992
 N   -0.0338040502    0.0307207701   -0.0244137666
 C   -0.0218854038   -0.7980081631   -1.1018779441
 C    0.0199660765   -2.0890775809   -0.6029341701
 N    0.0301186764   -3.2563586289   -1.3707369173
 C    0.0668868985   -4.5475255541   -0.9158778326
 N    0.0960077889   -4.8638369439    0.3200860081
 C    0.0360188517   -1.9300991342    0.8032822889
 N    0.0072171076   -0.6406515396    1.1374925984
 H    1.0238211604    1.8504247377   -0.1842880743
 H   -0.6444477820    1.8686363175   -0.8108704763
 H   -0.3501213393    1.8182466692    0.9465351912
 H   -0.0482308349   -0.4203961655   -2.1119931309
 H    0.0111927751   -3.1367567982   -2.3688845669
 H    0.0676855835   -5.2579284763   -1.7518555291
 H    0.1199875524   -5.8753637453    0.4198384750
 H    0.0585237328   -2.7063116598    1.5472071458