17

 C   -0.0358994532    1.6226560839   -0.0210214619
 C    0.0602421754    0.1046918266    0.0384370691
 C    1.0973374347   -0.6617260687   -0.8265003499
 N    1.6603934679   -1.4002737153    0.3601901437
 C    2.2019898200   -0.3570315202    1.2360203005
 C    0.7299902786   -0.5540561081    1.2583767881
 C    0.0278618221   -1.0660615045    2.3875454225
 C   -0.5994927208   -1.4623339944    3.3352063332
 H    0.9392228071    2.0995785891    0.1205347701
 H   -0.4269104325    1.9482491452   -0.9910316966
 H   -0.7103539070    2.0005827737    0.7546442906
 H   -0.9311315115   -0.3338368660   -0.1012498822
 H    0.6578818532   -1.3651527087   -1.5352871434
 H    1.8463079370   -0.0518008606   -1.3444941808
 H    2.7553238054   -0.7535139125    2.0811606054
 H    2.6245207478    0.5436895999    0.7941311595
 H   -1.1436566643   -1.8223387991    4.1728742421