18

 O   -0.5289158636    0.6014872553    0.5808556862
 C   -0.1502908699    1.6017302729    0.0175583939
 C    1.2878287191    2.0003098305   -0.0760913642
 C    1.6774210485    2.9568564605   -1.1851208588
 C    1.6416983081    2.2931997028   -2.5448395781
 C    0.4944966255    2.4180640492   -3.4558986877
 O    1.6953836231    3.1592670601   -3.6768730295
 C    2.0021413481    2.0031739914    1.2483826904
 N    2.2614038529    0.9516584016    0.2766933078
 H   -0.8697360197    2.2978377681   -0.4643541690
 H    1.0111371164    3.8280655839   -1.1861453994
 H    2.6907094724    3.3270457688   -0.9983951432
 H    2.2650230582    1.4027065260   -2.6294915028
 H    0.2874444804    1.6324749731   -4.1809586945
 H   -0.3697049450    3.0116185320   -3.1579144532
 H    2.8060687973    2.7199875040    1.3925150174
 H    1.4179359939    1.7642376383    2.1324244249
 H    1.7275446842    0.1228207913    0.5426269696