17

 C    0.2269532907    0.9920018767   -0.3474374478
 O   -0.0232665879   -0.2684861887    0.2395986422
 C   -1.3602382451   -0.6466961200    0.1927866271
 C   -1.9816273240   -1.1550802261   -1.1542578170
 C   -2.4353070423   -2.4613455552   -0.4181102075
 C   -1.6632923886   -2.0062857020    0.8488505109
 O   -0.6446595128   -3.0166668413    0.5870881848
 C   -1.3435182528   -3.5225883665   -0.4894765805
 O   -1.0590818151   -4.4592574570   -1.1615479267
 H    1.2946078286    1.1913413635   -0.2361930160
 H   -0.0265111467    1.0043801183   -1.4175529014
 H   -0.3415784138    1.7908613281    0.1535402183
 H   -2.0106214279    0.1257302418    0.6365994296
 H   -2.8038556405   -0.5468194736   -1.5332211550
 H   -1.2617383792   -1.3247230141   -1.9571555604
 H   -3.4765104430   -2.7689119515   -0.4631638612
 H   -2.0112964195   -2.0595559527    1.8788523207