21

 C   -0.0309799247    1.5526509393   -0.0280166829
 C   -0.0196802267    0.0198458151    0.0295014624
 C    0.7708770904   -0.5106311104    1.2322279271
 N   -1.3835079004   -0.5184735986    0.0159085010
 C   -2.3464156672   -0.3119458910    0.9665765310
 N   -3.4728768669   -0.9231692965    0.6832906246
 C   -3.2347913349   -1.5604020573   -0.5108141413
 C   -1.9552279405   -1.3320043620   -0.9513802849
 C   -1.2439826144   -1.8033098458   -2.1750118278
 H    0.9917493027    1.9354632906   -0.0967842749
 H   -0.5930364469    1.9064971680   -0.8964121957
 H   -0.4900199419    1.9779461771    0.8698208566
 H    0.4554525471   -0.3524518202   -0.8823250029
 H    1.8075647286   -0.1637391594    1.1853577745
 H    0.3400521395   -0.1578780388    2.1743855480
 H    0.7711467980   -1.6037860207    1.2476683361
 H   -2.1651441467    0.2936497893    1.8420278163
 H   -3.9960777691   -2.1533269075   -0.9966058477
 H   -0.9150951256   -0.9782220296   -2.8190666985
 H   -0.3598700916   -2.4107752158   -1.9445865535
 H   -1.9221996288   -2.4256081957   -2.7638398576