12

 O   -0.0384922460   -0.0815117236   -0.1321577211
 C   -0.0026330929    1.1194980424   -0.0304081636
 N   -1.1830412163    1.8632954835   -0.0924780986
 N   -1.5175842805    3.1126561315    0.3025842394
 C   -0.6886991703    4.1032893110    0.2761712965
 N    0.5797013681    4.2240316466   -0.2425441425
 C    1.4260869242    3.2771737849   -0.3891449842
 C    1.3359179886    1.8633208580    0.0804387447
 O    2.3224875070    1.2621345083    0.4260439029
 H   -1.9937443032    1.2550806315   -0.1260963815
 H   -1.1115875771    5.0385140223    0.6291236339
 H    2.3818838083    3.5161040835   -0.8592178860