20

 C   -0.3367817936    1.0123008617   -0.4297679028
 C    0.9401617289    1.2427604261    0.3367854266
 C    0.4504113787   -0.1638426704    0.0890514534
 C   -0.0606531580   -0.9932880383    1.2271846150
 N   -1.1457188578   -0.4170311092    2.0531404709
 C   -1.4100061062   -1.5985727997    1.2463463014
 C   -2.4825308443   -1.7097518724    0.1699606219
 O   -2.8021856480   -3.0514318143    0.6139684720
 C   -1.8551468376   -2.9859310592    1.7000238720
 H   -1.2632824399    1.2496496706    0.0799275773
 H   -0.3394292969    1.1912000126   -1.4991952076
 H    1.8177793165    1.5857586324   -0.1996990503
 H    0.8451305632    1.6275352705    1.3463476092
 H    1.0023725495   -0.7398607188   -0.6494070338
 H    0.7109737068   -1.5520877266    1.7587261036
 H   -1.0261432899   -0.6669536514    3.0319322891
 H   -3.3272842889   -1.0201342029    0.2898267121
 H   -2.1368253445   -1.6916433604   -0.8700176814
 H   -1.1051338633   -3.7858757266    1.6473494092
 H   -2.3491076148   -3.0202456539    2.6820762823