16

 C   -0.0874527732    1.5185463198    0.0434284698
 C   -0.0434154444   -0.0104292920   -0.0066977637
 C    0.6569156334   -0.5386508810   -1.2403336824
 O    0.7112746675   -1.9497258067   -1.2139765568
 C    0.6167836742   -2.3920739887   -2.5521184398
 C   -0.0717076303   -1.2447270564   -3.2827204007
 O   -0.5386761864   -1.2189018163   -4.3808977906
 O   -0.0660835820   -0.1859782365   -2.4312815289
 H    0.9207581525    1.9467800277    0.0429340315
 H   -0.6253839279    1.9227606019   -0.8182133197
 H   -0.5926670638    1.8590452903    0.9510029830
 H    0.4906550799   -0.4135448964    0.8610686295
 H   -1.0528202893   -0.4349632270    0.0086952440
 H    1.6703588367   -0.1148244050   -1.3422082916
 H    1.6020552152   -2.5800460252   -3.0061468100
 H    0.0249642879   -3.3085131982   -2.6036491534