20

 C   -0.0289313650    1.5479697073    0.0153580178
 C   -0.0262937729    0.0194229091    0.0123212544
 O    0.8281966929   -0.5226665648    1.0147954771
 C   -1.4316510676   -0.5501838460    0.1235030173
 C   -2.1773617582   -0.5087583317    1.4783411912
 O   -2.5179678254   -1.9091546866    1.3845256636
 C   -1.8112302417   -2.0541607909    0.1377916665
 C   -2.7130855582   -1.7790750816   -1.0820144028
 N   -2.2737054717   -0.3501245258   -1.0811127918
 H    0.9891081081    1.9308225514   -0.0954177562
 H   -0.6386014308    1.9321277003   -0.8076434762
 H   -0.4407791630    1.9390646891    0.9552781135
 H    0.3884550172   -0.3318829106   -0.9392726825
 H    0.6666495933   -0.0482197908    1.8368211653
 H   -1.5512283776   -0.3157915163    2.3605720615
 H   -3.0606998245    0.1421998509    1.5219897230
 H   -1.1176059394   -2.8961276973    0.1374524123
 H   -2.4357256262   -2.2925592430   -2.0096442052
 H   -3.7725574748   -1.9591046873   -0.8722957229
 H   -3.0214373944    0.3275527346   -0.9720077158