21

 O   -0.2305939610    1.4824680983    0.1412983601
 C   -0.0544275237    0.0749019670   -0.0057261004
 C    0.6889551123   -0.2804758623   -1.2763950204
 C    0.3219576311   -1.5234000075   -2.0505134163
 C    0.0010180327   -0.1607031814   -2.6100291395
 C    0.6012091856   -0.5496416589    1.2292852641
 C    1.9438077685    0.0431654628    1.7196446678
 O    1.3843834482    0.3824963573    2.9986407716
 C    0.0783518047   -0.1002056768    2.6116631284
 H    0.6232261365    1.9087846257    0.0129854760
 H   -1.0778234165   -0.3173110427   -0.0808927405
 H    1.7483889801   -0.0285103941   -1.2566534348
 H    1.1187123947   -2.0985501278   -2.5085596367
 H   -0.5010466884   -2.1257175882   -1.6793137684
 H   -1.0350217462    0.1606148938   -2.6093495529
 H    0.5763541527    0.1967787992   -3.4566274975
 H    0.6343497361   -1.6347965213    1.1037758366
 H    2.7803799981   -0.6610484049    1.8054132593
 H    2.2992255769    0.9337725228    1.1794143261
 H   -0.6591184508    0.7091394090    2.5752562288
 H   -0.2761449017   -0.8956948999    3.2778758087