23

 C    0.1272389036    1.6057450418    0.0698876238
 C    0.0223274858    0.0758271240    0.0721007155
 C   -1.4107136056   -0.5073277647   -0.0009117285
 C   -2.2450247633   -0.0576766631    1.2173990431
 C   -2.1488931839   -0.1558365397   -1.2880983824
 C   -2.6428055920   -1.2269805089   -1.9134058954
 C   -2.2487475061   -2.4933531574   -1.2323915056
 C   -0.7544834241   -2.7588453773   -1.2201719332
 C   -1.3956799568   -2.0476022025   -0.0570020500
 H    1.1767181756    1.9151851024    0.1037487296
 H   -0.3119091083    2.0417107878   -0.8333868348
 H   -0.3723529146    2.0548584038    0.9335714522
 H    0.6031143392   -0.3193545819   -0.7682787261
 H    0.4989071604   -0.3137922835    0.9814325130
 H   -2.4297548972    1.0204264439    1.2062078588
 H   -3.2165725762   -0.5604798255    1.2190714011
 H   -1.7300900263   -0.3023891936    2.1544854411
 H   -2.2575204837    0.8682652049   -1.6275906823
 H   -3.2246194067   -1.2071141646   -2.8286138620
 H   -2.9356914944   -3.3308527852   -1.1797158446
 H   -0.4268308188   -3.7785002794   -1.0427290959
 H   -0.1413292732   -2.2042201956   -1.9225268329
 H   -1.4380268534   -2.5799425356    0.8874192754