17

 C   -0.0468651732    1.5615558555    0.0603886158
 C    1.4825175642    1.3690971764   -0.0016847018
 O    1.7556704882    0.7618908707    1.2697315411
 C    0.8734284675   -0.3973461474    1.1957925843
 C    1.7917280953   -1.4908863541    0.6562434928
 O    1.2775670592   -2.2540378890   -0.4386368881
 C    2.0695895939   -1.0816751912   -0.7244144994
 C    1.2174255908    0.1396009982   -0.9673845398
 C   -0.0149561076    0.0145578976   -0.0083095863
 H   -0.4405262179    2.0489993899    0.9545032283
 H   -0.4726504023    1.9968953161   -0.8463086133
 H    2.2032441018    2.1596521137   -0.2032426369
 H    0.3926814943   -0.5626539223    2.1600449054
 H    2.5151380139   -1.9831264713    1.2980822697
 H    3.0174133774   -1.2608689213   -1.2214575227
 H    0.9980842662    0.4209375700   -1.9963772803
 H   -0.8776255918   -0.6037673717   -0.2382597787