17

 C   -0.1355696428    1.5669912852    0.0157343266
 C    0.0405308124    0.0508254348   -0.0077636481
 C    0.8846170249   -0.5170663372   -1.1955897551
 C    1.9553401838   -1.3361116262   -0.4241339972
 O    1.2235994596   -1.8164757071    0.7167167848
 C    0.8454730311   -0.5396293903    1.1731357010
 O    2.0995344124    0.1788276775    1.2812944166
 C    2.8652992220   -0.3049479182    0.2515140689
 O    3.9619190120    0.0817392368   -0.0146736238
 H    0.8303156331    2.0790010833    0.0235966399
 H   -0.6942300733    1.9024340618   -0.8630920892
 H   -0.6916068854    1.8858839616    0.9037277100
 H   -0.9409988950   -0.4328016846    0.0057858573
 H    0.2973113809   -1.1756782234   -1.8374199247
 H    1.3299171660    0.2652968396   -1.8149450711
 H    2.4652489509   -2.1395682508   -0.9472124849
 H    0.3750960677   -0.5820771029    2.1533405491