17

 C   -0.1482609477    1.6108651278    0.0311174229
 C    0.0269807219    0.1012198745    0.0377103226
 C    1.1850742975   -0.5818719308   -0.7786505078
 C    2.4311881625   -0.0601268041   -0.0915362801
 C    2.1181922261   -0.0624838347    1.2179096479
 C    0.6959398696   -0.6017117383    1.2609700298
 O   -0.0124362792   -0.7090435243    2.4428487347
 C    0.9403916703   -1.7933260592    0.2184739034
 O    0.9050185466   -2.9769890998    0.1928108284
 H    0.7934734279    2.1275386312    0.2285233878
 H   -0.5308647209    1.9487152105   -0.9370800537
 H   -0.8709519048    1.9068343892    0.7978790459
 H   -0.9251762406   -0.3966468903   -0.1853029178
 H    1.1565660885   -0.6877453724   -1.8591752035
 H    3.3828116030    0.1327233282   -0.5659294557
 H    2.7401984041    0.1378533186    2.0795441166
 H    0.5194894852   -1.1898996160    3.0860355886