18

 C    0.0657013933    1.5332928872   -0.1421195398
 C   -0.0057534408    0.0250314117    0.0090851825
 O    0.6420207853   -0.5539430258   -1.1330926217
 C    0.6882980662   -1.9002225689   -1.1910654046
 N    0.1798987763   -2.6167944655   -0.2740460088
 C    1.4043140760   -2.3271542566   -2.4567325540
 C    1.5260446042   -3.8373031117   -2.6462389065
 H    1.1045404990    1.8731202016   -0.1862038167
 H   -0.4399612562    1.8590692284   -1.0557872344
 H   -0.4191530807    2.0169105796    0.7112254951
 H    0.4950974593   -0.3211268450    0.9194132138
 H   -1.0390374411   -0.3348659445    0.0562958764
 H    0.3043692056   -3.6054929315   -0.4774012339
 H    0.8756738748   -1.8729698958   -3.3033350362
 H    2.3952714788   -1.8576735104   -2.4488234596
 H    2.0870604503   -4.3000925345   -1.8279289533
 H    0.5425288707   -4.3155852746   -2.6962341863
 H    2.0519698489   -4.0635738037   -3.5777710122