10

 O    0.2157758326    1.3538685887   -0.1069510704
 C    0.0162809875   -0.0283271770   -0.0291569370
 C   -0.3908146491   -0.7149700947    1.2431566939
 C   -1.3511813790   -0.6428038011    0.0627358869
 H   -0.4364233821    1.7906284933    0.4500676136
 H    0.7498116692   -0.5240404965   -0.6562476705
 H    0.0595937537   -1.6684048259    1.4972923689
 H   -0.6136935343   -0.0884800645    2.1017064049
 H   -2.1982193228    0.0305843011    0.1541145076
 H   -1.5639591157   -1.5464042633   -0.4982651479