16

 C    0.2442008195    1.0273805370    0.5697235143
 N   -0.4195305181    0.1443961303   -0.3988340176
 C    0.4339827590   -0.5033471347   -1.3125589339
 C    0.8778586970   -0.1697031716   -2.5797218076
 C    1.7095221284   -1.2387572739   -3.0210966001
 O    2.3696898288   -1.3476107857   -4.2133890180
 C    1.7646979626   -2.1834078237   -2.0241374025
 N    0.9783974214   -1.7140568516   -0.9872745359
 H    0.9369466484    0.4403544225    1.1791634864
 H    0.8153409837    1.8451420950    0.1038257024
 H   -0.5090384105    1.4579824035    1.2363420578
 H   -1.1358129634    0.6556563602   -0.8994365168
 H    0.6488770096    0.7407106664   -3.1144942293
 H    2.1843412847   -0.5605629664   -4.7325963560
 H    2.2881704868   -3.1219354268   -1.9696902326
 H    0.7341508020   -2.2235983906   -0.1564663406