17

 C   -0.0465066182    1.5155892917   -0.0655328571
 C   -0.0072768798    0.0253199120    0.0014767622
 C   -0.0367469721   -1.0208049057   -1.1060605297
 C    0.8232312948   -1.9715166629   -0.2243105481
 C    0.8573589401   -0.9518807253    0.8668597879
 C   -0.3059832899   -1.9716592384    0.8344067232
 C   -0.5771042232   -3.0119038079    1.8173343098
 O    0.2856484351   -3.6464137392    2.3877073129
 C   -1.1340420928   -1.0007876992   -0.0463104383
 H    0.9291775291    1.9307109032   -0.3433982505
 H   -0.7744241427    1.8459903025   -0.8145275072
 H   -0.3367751492    1.9537292773    0.8963935724
 H   -0.1077773909   -0.8907348283   -2.1773812580
 H    1.4916173054   -2.7951089835   -0.4344866479
 H    1.5565764377   -0.8179184945    1.6814240164
 H   -1.6566780658   -3.1966617371    2.0201449089
 H   -2.2000148975   -0.8493906347   -0.1576280070