21

 C   -0.0559960636    1.5081490717    0.0531779069
 C   -0.0210961817    0.0007959201   -0.0097353355
 C    0.3616219763   -0.7785763186   -1.3010307123
 C   -0.4450653442   -1.9355002908   -0.6855068989
 C   -0.9395872333   -3.1508714512   -1.4243018738
 C   -0.0118951394   -2.0857368706    0.8365816002
 C    0.7865250515   -0.7899078716    1.0477362620
 O   -1.3446319148   -1.6707323365    1.2706959935
 C   -1.3435265534   -0.9164235382    0.0540745183
 H    0.9464362603    1.9358487514   -0.0666846574
 H   -0.6894343218    1.9272952888   -0.7364986769
 H   -0.4492571216    1.8521758861    1.0163570124
 H   -0.1463566429   -0.3911242911   -2.1910509569
 H    1.4264995840   -0.9121553454   -1.5187607235
 H   -0.1130963893   -3.8219790601   -1.6861653664
 H   -1.6478137420   -3.7140392324   -0.8074034797
 H   -1.4464662021   -2.8721890893   -2.3545796230
 H    0.3200535457   -3.0261814241    1.2766965446
 H    1.8496945971   -0.8574896474    0.7991541692
 H    0.6684554778   -0.4272221846    2.0717572360
 H   -2.3087327628   -0.5246525364   -0.2684461189