21

 C    0.0209188281    1.4863727471   -0.0608164771
 C    0.0094468780   -0.0307977715    0.0160731460
 C   -1.1917989961   -0.6548488344   -0.6726899887
 C    1.3480340450   -0.7566523597   -0.0654619997
 C    0.6012333674   -0.6738618759    1.2472280105
 O    1.0778063952    0.2216110217    2.2140957680
 C    0.0022739206   -1.9327436349    1.8763645018
 C    0.9795015819   -2.6001207663    2.7337432924
 C    1.8187228475   -3.0949163386    3.4392803084
 H    0.8684288305    1.9087051079    0.4792895881
 H    0.0710371500    1.8119813682   -1.1062511121
 H   -0.8939313541    1.9054945138    0.3740373762
 H   -1.2402159273   -0.3204156939   -1.7153908221
 H   -1.1554468717   -1.7472133704   -0.6870408576
 H   -2.1287613362   -0.3548377287   -0.1885456312
 H    1.3886589119   -1.7089796187   -0.5857068531
 H    2.2442106331   -0.1517806087   -0.1547864385
 H    1.7519300440   -0.2469331872    2.7228378257
 H   -0.8740879349   -1.6524871637    2.4747052977
 H   -0.3440762093   -2.6284121331    1.1068051604
 H    2.5420892864   -3.5626780030    4.0603464550