20

 C   -0.0185584087    1.6232341434    0.0403973827
 C    0.0446780053    0.1124604516    0.0916732407
 N    1.1969572304   -0.7051785228   -0.2727051829
 C    2.5029676916   -0.0244946337   -0.3640976337
 C    2.8679041062    0.5979496707    1.0123676868
 C    1.8149757619    0.0527164284    2.0115328041
 C    0.7762765775   -0.6577701878    1.1595353305
 C    0.1507489395   -1.9015926823    1.6820022506
 O    0.2559295111   -2.2933781710    2.8185319856
 H    0.8163423016    2.1185375527    0.5364404257
 H   -0.0461765309    1.9646765893   -1.0004806625
 H   -0.9411124074    1.9643708332    0.5207552831
 H   -0.8787870614   -0.3466317312   -0.2644488558
 H    3.2321909088   -0.7865983800   -0.6539724475
 H    2.4771562597    0.7195313660   -1.1667845187
 H    3.8821053121    0.3200210555    1.3107917923
 H    2.8465589642    1.6897492213    0.9696252828
 H    2.2407140889   -0.6748748309    2.7067698786
 H    1.3775955276    0.8491079457    2.6208237024
 H   -0.4396463580   -2.4597394780    0.9216922853