14

 C   -0.0114520120    1.5369734087    0.0728521648
 C    0.0133912858    0.0408116073    0.0204454030
 C   -0.0007570212   -0.7748114794   -1.0909521879
 O    0.0320333208   -2.0897808717   -0.7083350957
 C    0.0667362046   -2.1051095064    0.6347961110
 C    0.0575512944   -0.8406759000    1.1431625415
 C   -0.0422900016   -0.4787466050   -2.5110880457
 O   -0.0506790667   -1.3008489130   -3.4013558590
 H    0.8763662131    1.9233069772    0.5853727389
 H   -0.0450570349    1.9849212829   -0.9218513798
 H   -0.8845294255    1.8924662357    0.6309811397
 H    0.0955752850   -3.0810371702    1.0931484351
 H    0.0794271970   -0.5660637055    2.1865428674
 H   -0.0669315389    0.6108782394   -2.7279657432