21

 C   -0.5639800842    1.4042113177    0.4280274063
 N   -0.4015654307   -0.0425565630    0.3378340118
 C   -1.5038692230   -0.7323177571   -0.3416391878
 C   -1.3981915586   -0.6879610281   -1.8795837773
 O   -0.1501471798   -1.1728540103   -2.3296705959
 C   -1.5172821839   -2.1650526322    0.1708906290
 N   -0.9093289123   -3.0952620777   -0.4496152539
 O   -2.2056522643   -2.2527533763    1.3289677284
 C   -2.2164277888   -3.5037593228    2.0038126752
 H    0.3353563214    1.8360951149    0.8768162447
 H   -0.7381869940    1.9158712011   -0.5339326914
 H   -1.4073383933    1.6369665083    1.0878821896
 H    0.4417289220   -0.2623751567   -0.1859083312
 H   -2.4441951373   -0.2673237882   -0.0256643777
 H   -2.2403210142   -1.2419446237   -2.3240862223
 H   -1.4757779699    0.3519506443   -2.2148912776
 H   -0.1054606959   -2.0840243942   -1.9915519219
 H   -0.9562202686   -4.0020164512    0.0091892673
 H   -2.7951908027   -3.3500845759    2.9148018264
 H   -2.6960544286   -4.2816903062    1.3973273186
 H   -1.2006002533   -3.8216804128    2.2664103296