19

 C   -0.0891799818   -1.1627678009   -0.1444760702
 C    0.0364580485    0.0145110641    0.0552265352
 C    0.1598022353    1.4420907052    0.3182453446
 O    1.3110115113    1.9558252307   -0.3292836219
 C    1.4350908769    3.3451823977   -0.1930648011
 C    2.0608516508    3.9566782029    1.1059976156
 C    3.4157261292    3.3343133873    0.6508508035
 C    2.7866109146    3.9435993744   -0.6409437706
 C    2.4104275012    5.1848526114    0.2195914134
 H   -0.1948077658   -2.2036227646   -0.3264657192
 H   -0.7444231532    1.9636334426   -0.0392778286
 H    0.2153808377    1.6151594413    1.4051405096
 H    0.5306088801    3.8508283335   -0.5644329828
 H    1.6384063689    3.9727828576    2.1116577318
 H    4.3185021669    3.8248255668    1.0239032276
 H    3.4944252890    2.2484914302    0.6873270005
 H    3.1979186586    3.9355088929   -1.6505821292
 H    1.5782792182    5.8023237612   -0.1319135162
 H    3.2463794935    5.7973778658    0.5629967079