18

 C   -0.1409880950    1.5655330832   -0.0172530710
 C    0.0346013311    0.0551699745   -0.0680620756
 C    0.7317151579   -0.5944138973   -1.2707919557
 C    2.1758550975   -0.1965510152   -1.3461980400
 C    1.7704037964   -1.2545918304   -0.3590902806
 C    1.1467922408   -0.5965311648    0.8731025102
 O    2.0377631657    0.2699600121    1.5411555067
 C    0.5663303513   -1.5636610512    1.8144851210
 N    0.0965144584   -2.2959910966    2.5760532109
 H    0.8071946836    2.0925191464   -0.1465025762
 H   -0.8231244924    1.8924790123   -0.8088589214
 H   -0.5727260954    1.8800063926    0.9395533562
 H   -0.9209043937   -0.4390948982    0.1260247063
 H    0.2127978513   -1.0372827575   -2.1112016732
 H    2.7147363921   -0.5777759895   -2.2072323802
 H    2.5184211947    0.7714301684   -0.9977249188
 H    2.1699449530   -2.2596912692   -0.3727095510
 H    1.5842874927    0.6580077905    2.2985294025