17

 N   -0.0378601717   -1.1889283190    0.0864539578
 C   -0.0203054715   -0.0341911473    0.0990471762
 C   -0.0028460012    1.4274175162    0.0917460415
 C    1.4108008685    2.0100210424   -0.0219790667
 C    1.4238178779    3.5325858543   -0.1199807413
 C    2.8788365870    4.0143499805   -0.0705786949
 N    3.6592786563    3.3789929236    0.9864494081
 C    3.2280255317    2.3007236795    1.4804987442
 O    2.1242043749    1.5781586865    1.1451299322
 H   -0.6061558781    1.7822934103   -0.7510294998
 H   -0.4705654065    1.7962006572    1.0109366608
 H    1.9106324329    1.5773116044   -0.8988063337
 H    0.9278616342    3.8566198713   -1.0407950028
 H    0.8631834150    3.9500225748    0.7250388938
 H    3.3781667102    3.8293364084   -1.0308359042
 H    2.9154144897    5.0974356087    0.0863852983
 H    3.7485207808    1.8075539180    2.2986671904