19

 O   -0.2846260608   -0.0441525472    0.0202223967
 C   -0.0023620602    1.1248800495    0.0107648237
 C    1.3488222433    1.6808036380   -0.4085658033
 N    1.1948427190    2.9787818474   -1.0461374868
 C    2.4155525924    3.7404947309   -1.1971958427
 C    3.5603428563    3.3767840322   -2.2071394296
 N    3.5364636776    4.7614644095   -2.7995624844
 C    2.2001461589    4.8955826915   -3.3953588910
 C    2.3201847336    5.0686483299   -1.9317907134
 H   -0.7242715374    1.9128311111    0.3234294872
 H    1.9235740522    1.8253324308    0.5193960308
 H    1.8798219678    0.9149356175   -0.9958289885
 H    0.7295387110    2.8798646042   -1.9421045727
 H    2.8424377264    3.8810628026   -0.1989093003
 H    4.5263385218    3.1750700629   -1.7405997260
 H    3.3394435240    2.5882207292   -2.9358114685
 H    2.0826106824    5.7987617538   -3.9863544948
 H    1.7225996125    4.0160850150   -3.8248776427
 H    2.1845419592    6.0355578314   -1.4582918738