19

 C    0.0749808081    1.5968411438    0.0371004145
 C    1.2966599532    0.7223798030   -0.0432161652
 O    2.1579676028    0.7051433091    1.0686216246
 C    2.0855479059   -0.5100800346    1.7920055901
 C    2.2981527737   -0.4317923421    3.3304511094
 C    1.0305647270   -1.3390698168    3.5123476751
 C    0.6789832347   -0.9743988135    2.0856570559
 C   -0.3669359151   -0.6203470682    1.3511927670
 C   -0.0660193860    0.0788380588    0.0699571601
 H   -0.0664975315    2.1233615086    0.9742107947
 H   -0.2489219445    2.1311769130   -0.8499884964
 H    1.8218593970    0.6512909792   -0.9938509077
 H    2.7244964228   -1.2780024742    1.3296496554
 H    3.2468857333   -0.7972955277    3.7278275318
 H    2.1165699812    0.5869214460    3.6783031069
 H    1.2969782580   -2.3941397322    3.6372028888
 H    0.3175273332   -1.0675809123    4.2942995827
 H   -1.3989137195   -0.7613515923    1.6623557342
 H   -0.4574841945   -0.3778374877   -0.8356365019