23

 C    0.0122492810    1.5601301515    0.0224974642
 C   -0.0119834000    0.0334516114   -0.0329750992
 O    0.8199988522   -0.5328743253    0.9806603763
 C   -1.4380531172   -0.5317016788    0.0395080259
 C   -1.4944555573   -2.0361438740   -0.1760517792
 C   -2.8778926753   -2.6883107814   -0.0176105245
 C   -2.7969858115   -3.9222709794   -0.9489886947
 C   -1.5149608938   -3.6597171938   -1.7834202345
 O   -1.1348264502   -2.3168250169   -1.5278971398
 H    1.0428778683    1.9242284560   -0.0060595085
 H   -0.5350150753    1.9967724261   -0.8191312993
 H   -0.4539851100    1.9256558892    0.9471378884
 H    0.4391221033   -0.3039268859   -0.9720564719
 H    0.5043205133   -0.2055511239    1.8307254389
 H   -1.8702602707   -0.2916316606    1.0215696870
 H   -2.0678350947   -0.0471160719   -0.7167291987
 H   -0.7722841441   -2.5201301533    0.5021359396
 H   -3.0996168864   -2.9492301536    1.0204394527
 H   -3.6521928326   -1.9943398454   -0.3609742221
 H   -2.7126860563   -4.8549461653   -0.3852212337
 H   -3.6834092962   -4.0045917877   -1.5822024309
 H   -0.7107044834   -4.3489835692   -1.4819970903
 H   -1.6644170032   -3.7646957877   -2.8615698757