14

 N   -0.0191765928    1.3419180877   -0.1092007827
 C    0.0059467320   -0.0183822423   -0.0460620281
 N   -1.1825410440   -0.6413006655   -0.0323274212
 C   -1.1457056824   -1.9794638036   -0.0174345853
 C    0.0595173477   -2.6911416568   -0.0130188032
 C    1.2203696908   -1.9278517551   -0.0147391757
 N    1.2217269203   -0.5984877964   -0.0292758246
 C   -2.3960280502   -2.6754730160   -0.0022023971
 C   -3.4301372239   -3.2899890839    0.0107839668
 H    0.8365591462    1.8276226978    0.0975140487
 H   -0.8929952633    1.7967475509    0.0923989803
 H    0.0778178027   -3.7719713273    0.0003675546
 H    2.1969179754   -2.4077410237   -0.0011070882
 H   -4.3502497986   -3.8205695658    0.0215904656