16

 C   -0.0118736807    1.5657252492   -0.0012653138
 C    1.5522263620    1.8119167768   -0.0971030834
 C    1.9043591708    0.3448567017   -0.0713446969
 O    2.9979231470   -0.6072758724   -0.1034046337
 C    1.7366283874   -1.4208992085   -0.0069996217
 C    1.0456297139   -0.4348763663    0.9639389214
 C   -0.1220658021    0.0022687292    0.0535486862
 C    0.9375341454   -0.4944799547   -0.9533772991
 H   -0.4359369747    2.0316937587    0.8929161238
 H   -0.5352933243    1.9769163191   -0.8692919339
 H    1.8422171127    2.3204339021   -1.0199475613
 H    1.9422344473    2.3755928654    0.7540662177
 H    1.8720201039   -2.5008056452    0.0189396865
 H    1.1585989464   -0.3734462461    2.0459421109
 H   -1.1242702991   -0.4206070751    0.1231973245
 H    0.9280787946   -0.5005544136   -2.0429370580