17

 N   -0.0709622866    1.3033732162    0.1167279115
 C   -0.0599863700   -0.0599767417    0.0005872862
 N   -1.1093818090   -0.7867416142   -0.1292643857
 C   -0.7251719982   -2.2102377918   -0.0735064955
 C   -1.3354453931   -2.9376970858   -1.2784665763
 O   -2.7324639766   -2.7386268477   -1.3257544733
 C    0.7980762188   -2.2345536473   -0.0069637507
 O    1.4273716097   -1.5987737589   -1.1272745370
 C    1.2292333241   -0.8323411825    0.0749766411
 H    0.7366114321    1.8011239965   -0.2241019455
 H   -0.9553044183    1.7443860279   -0.0918921208
 H   -1.1411016068   -2.6518871819    0.8425752458
 H   -0.8366082844   -2.5778776864   -2.1907648478
 H   -1.1638811358   -4.0171333742   -1.2000364818
 H   -2.8571456046   -1.7927736429   -1.1711177946
 H    1.3519844827   -3.0556469092    0.4389447551
 H    2.1243398860   -0.4682756862    0.5708135093