19

 C    0.0501658524    1.5336676252    0.0239072663
 C    0.0027239376    0.0112601730   -0.0529315721
 N    0.7169870469   -0.4676896110   -1.2310521710
 C    0.7715867344   -1.8549876678   -1.4081204886
 C    0.2643500107   -2.8994453951   -0.6598694769
 C    0.7148176705   -4.1046737486   -1.2845997845
 O    0.4369874874   -5.3862621248   -0.8982429155
 C    1.4667885558   -3.7755737759   -2.3797697419
 N    1.4787924806   -2.3831168356   -2.4520415193
 H    1.0842511812    1.8893373233    0.0450998299
 H   -0.4481344855    1.9896674525   -0.8397745401
 H   -0.4599282790    1.8892876038    0.9235523121
 H    0.4899781557   -0.4257614601    0.8261364693
 H   -1.0458917899   -0.3325449784   -0.0343632280
 H    0.3955304838    0.0076122341   -2.0680300753
 H   -0.3805739196   -2.8194026309    0.2013377862
 H   -0.0918086082   -5.3494907761   -0.0968371051
 H    1.9570099634   -4.3887314377   -3.1151456146
 H    2.1059547916   -1.8467789700   -3.0249149709