19

 C   -0.1306432271    1.5528190600   -0.0091011467
 C   -0.0005925048    0.0480041241    0.0553602752
 O   -1.1103655099   -0.6355303249   -0.4430354727
 C    1.3714612044   -0.6267926203   -0.1917493655
 C    2.5604898035    0.1171660592   -0.4555842471
 C    3.5611801125    0.7526717615   -0.6719587972
 C    0.6841702108   -0.6418750390    1.1961927139
 C    1.2861383748    0.1254532982    2.3513529260
 O    0.0968906679   -1.8517912187    1.5682223234
 H    0.7748362713    2.0650982969    0.3181621447
 H   -0.3191007136    1.8619832048   -1.0445537464
 H   -0.9740858152    1.8867683513    0.6028215711
 H   -1.2201157591   -0.3777496437   -1.3653908911
 H    1.2699123035   -1.5782470787   -0.7062023331
 H    4.4462524498    1.3045436780   -0.8694040121
 H    1.8019996808    1.0304740687    2.0284730939
 H    0.5095793999    0.3925216141    3.0745399773
 H    2.0261052874   -0.5014569933    2.8638859351
 H    0.7829108132   -2.3957236080    1.9716454513