20

 C   -0.0455149984    1.5461681226    0.0934853833
 C   -0.0034593392    0.0256223220   -0.0116373393
 C   -1.3748933102   -0.5625908380   -0.3348814932
 C    1.1286567434   -0.5860115418   -0.9287573443
 C    1.7106459187   -1.2925919962    0.2944291801
 N    2.0768160077   -0.2333179639    1.2514626953
 C    0.6610217033   -0.7070434328    1.1932088146
 C    0.0140839357   -1.2478863714    2.3363191468
 C   -0.5569373928   -1.6869307884    3.3017470251
 H    0.9324969153    1.9410989677    0.3769022790
 H   -0.3358284239    1.9908832962   -0.8652937970
 H   -0.7787064792    1.8646234311    0.8431705919
 H   -1.7329460634   -0.1866964563   -1.2995005518
 H   -1.3405501758   -1.6557384704   -0.3877019291
 H   -2.1086007126   -0.2891197722    0.4305629360
 H    0.7270610158   -1.2701841088   -1.6793076958
 H    1.8048327024    0.1282251502   -1.4049558120
 H    2.1722670875   -2.2712486645    0.3460331940
 H    2.4994635718   -0.6821654487    2.0640972620
 H   -1.0581010760   -2.0796827465    4.1511908344