21

 C   -0.2218943415    1.5592063104   -0.0819978536
 C    0.0529781304    0.0672511991    0.0023507537
 N    0.9577174934   -0.5217923860   -1.0586866086
 C    2.3126045048    0.0145155499   -0.8281921036
 C    1.8376625248   -1.0636155889    0.0559569943
 C    0.9056554384   -0.5601371645    1.1674666673
 C    1.5159395641    0.3656701213    2.2198163043
 C    0.1644982424   -1.7155100592    1.8446700196
 H    0.6781033898    2.1711350962    0.0203297422
 H   -0.6815494801    1.7969458283   -1.0471854934
 H   -0.9189821659    1.8630752378    0.7063031836
 H   -0.9010974017   -0.4627985992   -0.0796781561
 H    3.0019111769   -0.2582391677   -1.6220223526
 H    2.4483541498    1.0252775875   -0.4547822359
 H    2.2440412074   -2.0706984882    0.0107515535
 H    2.0682196160    1.1990541163    1.7788092105
 H    0.7387617067    0.7880154509    2.8671609414
 H    2.2116342978   -0.1889147857    2.8599214551
 H    0.8348911051   -2.2802713347    2.5031245703
 H   -0.6655580328   -1.3430865662    2.4558054627
 H   -0.2448327658   -2.4117609172    1.1057387851