20

 C   -0.0675846358    1.5619431461    0.0235358235
 C    0.0307725542    0.0293428045    0.0023748629
 C    0.7006245341   -0.4871199606   -1.2809017781
 C    1.0099784426   -1.9840272575   -1.1802467203
 C    1.9751370904   -2.2812564262   -0.0227431061
 O    3.3420885356   -2.0331710440   -0.3789464928
 C    1.6061480195   -1.5129070916    1.2205665691
 C    0.7491236547   -0.4905063814    1.2255601647
 H    0.9286169773    2.0182668236    0.0103206792
 H   -0.6180220255    1.9301272381   -0.8482866734
 H   -0.5844686768    1.9155384506    0.9219629518
 H   -0.9987787413   -0.3643752807    0.0297446981
 H    0.0643736281   -0.2778052315   -2.1476613941
 H    1.6350669572    0.0688881772   -1.4443898225
 H    0.0769319029   -2.5389877977   -1.0149591401
 H    1.4538239591   -2.3606534732   -2.1067652190
 H    1.9501736686   -3.3563880567    0.1915534989
 H    3.4842453167   -1.0829648026   -0.3159349819
 H    2.1078174892   -1.8127393422    2.1374612423
 H    0.5342478990    0.0215556257    2.1626517378