20

 O    0.3366568737    1.2394783872   -0.0425118212
 C    0.1157089908   -0.1452005441    0.1261980327
 C   -1.3757739344   -0.4826533632    0.1369425999
 C   -2.2497885046    0.3650959062    1.0970843766
 C   -2.9084248460    0.9007502063   -0.1847033856
 O   -2.0081492174    0.1349901617   -1.0279949306
 C   -1.5997050342   -1.9781023908    0.1605143659
 C   -2.8358502498   -2.5809375145   -0.3887926493
 N   -1.5517121378   -2.7338699758   -1.1007958345
 H   -0.1352015837    1.4758858640   -0.8507562010
 H    0.6086949408   -0.7335844071   -0.6638000143
 H    0.5643101914   -0.4310126431    1.0841248476
 H   -2.8952899281   -0.2064528984    1.7645630282
 H   -1.6871892633    1.1115263051    1.6576039653
 H   -3.9515900043    0.6054379375   -0.3430423856
 H   -2.8076472005    1.9757851524   -0.3663875444
 H   -1.1058115071   -2.4794713787    0.9924691938
 H   -3.2316231326   -3.4936150393    0.0472684791
 H   -3.5767594706   -1.9164090348   -0.8225870182
 H   -1.5442911121   -2.0610337807   -1.8668208846