16

 O   -0.0582108261    1.3097536750   -0.0609467899
 N    0.0268916052   -0.0889957191   -0.0451509637
 C   -1.1220714233   -0.6289949723    0.0420032302
 C   -2.4932560169   -0.0033039098    0.1714980879
 C   -3.3287493076   -1.0718999900    0.9314567444
 O   -4.6872158066   -1.1448500953    0.5517445448
 C   -2.6296748385   -2.3855574203    0.6244611284
 O   -2.3220464575   -2.5672615364   -0.7555135795
 C   -1.2739797476   -2.1050769135    0.1209116742
 H    0.8682792381    1.5704066756   -0.1008826108
 H   -2.4511562486    0.9627683218    0.6772312765
 H   -2.9326536302    0.1454878890   -0.8200115579
 H   -3.2348428045   -0.9009526833    2.0167804387
 H   -5.1154613295   -0.3205057095    0.8029065460
 H   -2.8838652983   -3.2852165575    1.1780963961
 H   -0.4184695680   -2.7588162145    0.2484747848