23

 C   -0.0641894037    1.5427085726   -0.1139082962
 C    0.0452791900    0.0218081216   -0.0268896359
 C    1.0037352299   -0.5698610846   -1.0851177923
 C    1.1738144682   -2.0388646134   -0.6641848626
 C    1.9238409292   -1.3090304006    0.4773930351
 C    3.0672496101   -1.9206619357    1.2385887878
 O    2.3170469212   -0.2865696007   -0.5084828126
 C    0.7790365759   -0.5760002983    1.2399538078
 C    1.2790321145    0.4268581667    2.2778912763
 H    0.9257024039    2.0067641141   -0.1241817217
 H   -0.5814438122    1.8328725066   -1.0352144710
 H   -0.6299589842    1.9608135203    0.7241383412
 H   -0.9542622450   -0.4157967591   -0.1296489106
 H    0.8970489880   -0.2477386738   -2.1220271307
 H    0.2872381178   -2.6336109787   -0.4266629030
 H    1.8592082462   -2.5819058324   -1.3167455397
 H    3.7884913824   -2.3737443141    0.5530620532
 H    3.5890088957   -1.1665922697    1.8354316773
 H    2.6983097454   -2.6969974745    1.9175955755
 H    0.1347906556   -1.3095572842    1.7382930803
 H    2.0268158614    1.0997781291    1.8490870199
 H    0.4607330589    1.0365142740    2.6726115703
 H    1.7365936207   -0.0899779254    3.1279346817