19

 C    0.2708362455    1.3950373305    0.4054281198
 C   -0.1093384050   -0.0800145829    0.5298129803
 O   -0.8743876917   -0.3318411794    1.6965824490
 C   -0.8349747887   -0.5814982807   -0.7416030910
 C   -1.1779752529   -1.9942011458   -0.7003816272
 C   -1.4568540639   -3.1684627353   -0.6726007072
 C   -1.7966433167   -4.5775494917   -0.6230730396
 C   -1.2825186774   -5.3246504200    0.5914812722
 O   -2.4483772778   -5.1099794442   -1.4969279995
 H    0.7653566489    1.7313003104    1.3200356286
 H    0.9466592212    1.5654523815   -0.4387601011
 H   -0.6208927913    2.0157342331    0.2502849219
 H    0.7974591628   -0.6805724214    0.6619276247
 H   -1.6675197613    0.2148768962    1.6586949727
 H   -1.7492548531    0.0119740347   -0.8889980825
 H   -0.2066982298   -0.3862946118   -1.6206579386
 H   -1.6638459922   -4.8600467351    1.5070641360
 H   -1.5961385692   -6.3683388632    0.5396528891
 H   -0.1898098074   -5.2622051250    0.6354850824