20

 C    0.0006659884    1.4871730986    0.0741949295
 C    0.0453975409   -0.0341139183   -0.1101933252
 C   -1.3406822256   -0.6575308575   -0.0355595639
 C   -1.5806745397   -2.1777043428   -0.0952655336
 C   -2.7283087822   -1.8988909700    0.9586542204
 C   -1.6540512308   -1.9006583631    1.9906468604
 C   -0.7425463642   -2.7396919837    1.0875198680
 O   -0.8804678140   -4.1279871472    1.2977518751
 N   -2.0471483917   -0.6256523118    1.3050159801
 H    1.0052462790    1.9194050523    0.0466847353
 H   -0.5908385034    1.9638377332   -0.7152120450
 H   -0.4568154187    1.7455581385    1.0336853908
 H    0.4851988228   -0.2843264365   -1.0851287685
 H    0.7015389984   -0.4730437985    0.6484948611
 H   -2.0110227195   -0.1387186843   -0.7314807919
 H   -1.6376615161   -2.7387354581   -1.0269430886
 H   -3.8008999430   -2.0374769599    0.9898148987
 H   -1.7306355162   -1.9165102603    3.0705706020
 H    0.3339884935   -2.5544499740    1.0865723797
 H   -1.8218195879   -4.3198292567    1.3901658556