22

 C   -0.0877219489    1.4413203898    0.1322401902
 C   -0.0391421024   -0.0506136893   -0.0243374061
 C   -0.8998599124   -0.8353382722   -1.0205767204
 C   -1.1616537261   -1.8347448956    0.1301236535
 N   -0.3681554588   -1.0187835154    1.1172497270
 C    1.0133104624   -0.9003692413    0.5749881907
 C    1.7786701995   -2.0173906855   -0.0985533028
 C    2.2239657242   -3.0889031643    0.8931610430
 O    2.9756838598   -4.0551598766    0.1743468776
 H    0.4256787425    1.9363092536   -0.7011908521
 H   -1.1213993515    1.8039908843    0.1514389067
 H    0.3981459735    1.7531127512    1.0614122878
 H   -1.7982063086   -0.2883746272   -1.3151578287
 H   -0.4037906161   -1.1990185445   -1.9254834223
 H   -2.2043689850   -1.8682790885    0.4518034618
 H   -0.8069592964   -2.8618333732   -0.0001961280
 H    1.6219787348   -0.3656301413    1.3046413801
 H    1.2041853744   -2.4972123899   -0.8951180875
 H    2.6717226471   -1.5953369255   -0.5755723166
 H    2.8256792541   -2.6264589695    1.6924971387
 H    1.3421194206   -3.5404454925    1.3737762168
 H    3.2475974332   -4.7424868267    0.7892532607