20

 C    0.2855943892    1.3561357689   -0.1514686539
 C    0.3677743627   -0.1508332047   -0.3433846922
 O    1.2549714631   -0.8197313306    0.1567626934
 N   -0.6297909525   -0.6991484966   -1.1005929235
 C   -0.7545860838   -2.1407312841   -1.2882571672
 C   -0.0983969953   -2.6260031135   -2.5647159820
 O   -0.6601390500   -2.0786371998   -3.7318285244
 C    1.3714543316   -2.9526365559   -2.5704354708
 C    0.3328038719   -4.0555878357   -2.6694173444
 H    1.2715333510    1.7874273781   -0.3372002925
 H   -0.4491858679    1.8431720489   -0.7981872161
 H    0.0283727978    1.5652729550    0.8912872345
 H   -1.3708683263   -0.1071325965   -1.4348399056
 H   -0.2970510140   -2.6250693599   -0.4221850085
 H   -1.8207760105   -2.3909130272   -1.3116252606
 H   -0.3288255055   -1.1767640213   -3.8064972160
 H    1.9202801114   -2.7162140115   -3.4753850519
 H    1.9213146821   -2.8255197779   -1.6454139993
 H    0.1832468672   -4.7089556776   -1.8164416759
 H    0.1977441978   -4.5270775882   -3.6357272933