19

 N   -0.0567790541    1.2902461886   -0.3053455981
 C    0.0909860658   -0.0217823542    0.0555477941
 O    1.1692818534   -0.5020856539    0.3434184096
 C   -1.2143183405   -0.8048918813    0.0677849271
 C   -2.1495009093   -0.7884767035   -1.1805393741
 C   -2.2213536548   -2.3273721512   -1.0105402586
 C   -1.3195105678   -3.1780836648   -1.9210961603
 C   -0.1835895090   -2.9068310957   -0.8980327084
 N   -1.1588541606   -2.2956604063    0.0773105153
 H    0.7418642746    1.8964907870   -0.2085309755
 H   -0.9629085945    1.7099288616   -0.4227558223
 H   -1.7575235988   -0.4801079109    0.9663613823
 H   -3.0890350381   -0.2401407312   -1.0755936034
 H   -1.6575517007   -0.4702908275   -2.1045850185
 H   -3.2024194308   -2.7259963841   -0.7368398409
 H   -1.6244234856   -4.2258607391   -1.9708071106
 H   -1.1709968821   -2.8085789329   -2.9393436229
 H    0.2989043637   -3.7925602903   -0.4776350379
 H    0.5978301090   -2.2259885305   -1.2365801170