19

 C    0.3993477694    1.4358262103   -0.3558492382
 C    0.0061188801   -0.0025162933   -0.0204640959
 O    0.4104234155   -0.8891230274   -1.0852019838
 C    1.2940514347   -1.8757488804   -0.5762501392
 C    1.2939724948   -3.2155565666   -1.2793476606
 C    2.4214351769   -2.2305535495   -1.5212638382
 O    2.4871019823   -1.5243405247   -2.7175243897
 C    1.4096470943   -1.6313324460    0.8726874321
 C    0.6790323526   -0.5701595496    1.2039908989
 H    1.4860273669    1.5251891925   -0.4440929075
 H   -0.0578470684    1.7426362814   -1.3009900619
 H    0.0549965592    2.1189945097    0.4277190460
 H   -1.0905276943   -0.0612728131    0.0623971412
 H    1.4891399060   -4.1084500690   -0.6935995435
 H    0.5710263682   -3.3299921621   -2.0801014731
 H    3.4023261449   -2.4574750451   -1.1111541088
 H    1.7950389141   -0.8491909154   -2.6649527028
 H    2.0152060228   -2.2434696568    1.5279333105
 H    0.5673363001   -0.1351682052    2.1886178744