20

 O    0.6459264644   -0.6991391233    0.5295789915
 C    0.1383057881    0.3899687410    0.3678113545
 N    0.7924730653    1.5155702498   -0.0320449201
 C    2.2039300849    1.5623503511   -0.3217297848
 C    2.6698563280    2.1319367081   -1.6942091555
 C    3.8101343962    2.8326134249   -0.9432461453
 C    5.2740837178    2.5961133965   -1.1754623486
 C    4.6744834025    3.9704517721   -1.3866359510
 C    3.0816957690    2.6322187924    0.3925490111
 H   -0.9405470693    0.5835043571    0.5341721935
 H    0.2534988094    2.3624932135   -0.1291899022
 H    2.5833982096    0.5544911280   -0.1549509268
 H    2.9283616289    1.4099795915   -2.4731573256
 H    1.9422209923    2.8445253504   -2.1011652286
 H    5.9129147798    2.4455706420   -0.3108428502
 H    5.5692887555    2.0280688487   -2.0521140282
 H    4.5669544499    4.3294227918   -2.4055498048
 H    4.9104195007    4.7466657643   -0.6652245103
 H    2.4907743144    3.5108612952    0.6782805437
 H    3.6646016224    2.3042162746    1.2570895377