15

 O    0.1710543344    1.4142164024   -0.1796096955
 C    0.0486903573    0.0091493884   -0.0422940745
 C    0.5878850455   -0.5594951941    1.2771418442
 C   -0.3525701510   -1.2912900831    1.8838320405
 N   -1.5192597975   -1.2765672075    1.0962578445
 N   -2.7418268986   -1.8035200440    1.2544201638
 C   -3.3970953857   -1.3657605633    0.1752094764
 C   -2.5875686284   -0.5573595237   -0.6683797520
 C   -1.3686917404   -0.5255512768   -0.0281973682
 H   -0.3412348191    1.8193684740    0.5296579984
 H    0.6144739671   -0.4025960999   -0.8870441006
 H    1.5912144650   -0.3772458016    1.6310769880
 H   -0.3443479088   -1.8446530351    2.8105920118
 H   -4.4311912692   -1.6441100371    0.0333672476
 H   -2.8671660007   -0.0811926185   -1.5936883044