19

 C   -0.2211366464    1.5960936783    0.1014238451
 C   -0.0032707530    0.0777743805    0.0348394322
 C    0.7354300580   -0.3481638253   -1.2479009709
 C    2.2009203342    0.0760971466   -1.2795908695
 O    2.7805330092    0.3311506647   -2.3158249621
 C    2.8902856305    0.1226905357    0.0301339899
 C    2.2416824402   -0.1163407395    1.1751456978
 C    0.7732704318   -0.4660961056    1.2477303147
 O    0.1666313946    0.0399556550    2.4296744696
 H    0.7244902860    2.1463354197    0.0792486021
 H   -0.8187548417    1.9249413047   -0.7544069403
 H   -0.7479947027    1.8689249872    1.0174587198
 H   -0.9882005861   -0.4028370821    0.0438581439
 H    0.7247233305   -1.4448708713   -1.3334589418
 H    0.2482415026    0.0427498219   -2.1450030409
 H    3.9470033461    0.3700182046    0.0030721277
 H    2.7733162121   -0.0774043292    2.1251369905
 H    0.6902532942   -1.5683641684    1.2311760170
 H    0.5655077500   -0.3952729574    3.1896511750