16

 O    0.1484876450    1.3359954365   -0.3540160069
 C    0.0398053949   -0.0112921979    0.0862991042
 C   -1.3751494112   -0.5045075330    0.0980012691
 C   -2.1383120296   -1.0831619851   -1.0598912563
 C   -1.9101654328   -1.9211224603    0.2120731287
 O   -1.1968162975   -3.0925009308    0.2199914649
 C   -2.8588598534   -1.3852729243    1.2836544309
 O   -3.7346498654   -1.8187150112    1.9730783988
 N   -2.3098126651   -0.0829273956    1.1592991621
 H   -0.1717628809    1.9001778763    0.3570764933
 H    0.6230957731   -0.6146190286   -0.6156740396
 H    0.4760002863   -0.1416423646    1.0862633454
 H   -3.1247746026   -0.7085384198   -1.3168577343
 H   -1.5385507646   -1.4228646637   -1.9003511750
 H   -1.7374996831   -3.7861295541   -0.1742270775
 H   -2.9182334231    0.7228417863    1.0499205422