20

 C    0.2720844756    1.4774204213    0.1578462462
 C   -0.0950880993    0.0025696634    0.0501545204
 O   -1.5354019384   -0.1226093747    0.0594626437
 C   -2.1237218102   -0.7064103290    1.1160356963
 O   -3.3069268949   -0.8458060064    1.2061909191
 C    0.4001858570   -0.6198051275   -1.2355549978
 N    1.8213411947   -0.9959334284   -1.2582581060
 C    0.7955246069   -2.0471068546   -1.3831395877
 C    0.7237375937   -3.0855477441   -0.2893001285
 H    1.3591383077    1.5869306898    0.1144133627
 H   -0.1731328414    2.0441461706   -0.6655328393
 H   -0.0869752743    1.9015954417    1.0996450654
 H    0.3187070318   -0.5441699801    0.9047936742
 H   -1.3968589762   -1.0392887113    1.8836262086
 H   -0.0150753971   -0.1419429640   -2.1222241841
 H    2.2380247041   -0.7778025690   -2.1585298202
 H    0.6373925543   -2.4514617169   -2.3824946554
 H    0.9564003370   -2.6574720247    0.6885002944
 H   -0.2719458447   -3.5396030760   -0.2470873226
 H    1.4498117437   -3.8834812002   -0.4766065094