18

 N    0.3042389045    1.2726793852   -0.0645710076
 C    0.1827927807    0.0219089787    0.0447366394
 O   -0.9888030833   -0.5718633138   -0.2581090270
 C   -1.1142899991   -1.9570086128    0.0199346285
 C   -1.7765726116   -2.3654997761    1.3735953986
 C   -2.8591328661   -3.1437295590    0.5817775194
 O   -4.0548190077   -2.3749758062    0.3812683335
 C   -3.5554346214   -1.8439106386   -0.8731147120
 C   -2.2471861524   -2.6505354777   -0.7639740282
 H    1.2528509459    1.5516934422    0.1768575028
 H    0.9619749769   -0.6860202669    0.3616967743
 H   -0.1486402822   -2.4528142919   -0.1342624362
 H   -1.1349134276   -2.9672675321    2.0219811926
 H   -2.1948370442   -1.5308502366    1.9393443659
 H   -3.0603011202   -4.1832557631    0.8491506688
 H   -4.1977465361   -2.1413776644   -1.7096424266
 H   -3.4507799612   -0.7548962445   -0.8598474700
 H   -1.9715755849   -3.2815597124   -1.6073093762