21

 C   -0.4944906496    1.3233158684   -0.3014555840
 C    0.1191719879   -0.0660142372   -0.2089677544
 C    1.5720330633   -0.2574430110   -0.6689697323
 O    2.2309534187    0.2295924756   -1.5426979541
 C    1.8871507897   -1.1719999807    0.5237517598
 C    0.5468719084   -0.6865627449    1.1612510795
 C    0.6776301471    0.1765087149    2.4477619902
 C    0.2354973690   -1.0614446238    3.2744703745
 C   -0.3163746075   -1.6881045783    1.9655549132
 H    0.1188442628    2.0641643730    0.2203622656
 H   -0.5699664192    1.6342337278   -1.3475447001
 H   -1.4994302792    1.3469398197    0.1327902427
 H   -0.5069576556   -0.7942253417   -0.7451104567
 H    1.8696511194   -2.2297029058    0.2366041476
 H    2.8203636257   -0.9688888256    1.0564399780
 H    1.6558493270    0.6152747092    2.6632868487
 H   -0.0733829866    0.9715057893    2.4807772694
 H    1.0910436582   -1.6196184986    3.6641255339
 H   -0.4701050563   -0.8940829251    4.0910089772
 H   -1.3858050629   -1.4888293967    1.8394328546
 H   -0.1390206403   -2.7532308884    1.7909982667