21

 C   -0.3002090360    1.4332508708   -0.1356771658
 C    0.1224716540   -0.0315491805    0.0438318770
 C    0.7922119982   -0.5854345355   -1.1729637485
 C    0.1225118329   -1.1414815059   -2.4110208174
 C    1.1664466643   -1.9568764647   -1.6663229187
 C    2.5498521920   -1.3640623621   -1.9300038059
 O    2.0766695364   -0.0462564260   -1.5392003338
 O    0.9170443061   -3.1863529324   -1.1069310061
 C    0.7912827289   -4.2333829102   -2.0583867783
 H    0.5655986680    2.0571898262   -0.3754666402
 H   -1.0246552041    1.5361634559   -0.9498226379
 H   -0.7575538335    1.8221539617    0.7788190060
 H    0.8098388520   -0.1190299089    0.8937422978
 H   -0.7485385504   -0.6559870556    0.2727122067
 H   -0.8926167849   -1.4941282487   -2.2523156919
 H    0.3245897398   -0.7081291188   -3.3872529329
 H    3.3077789908   -1.7306271697   -1.2280490752
 H    2.9425213739   -1.3792376262   -2.9534715028
 H    1.7266425060   -4.3931496849   -2.6125342210
 H    0.5503073936   -5.1411072305   -1.5011637860
 H   -0.0112751881   -4.0242575041   -2.7783488450