23

 C   -0.2634853071    1.5056466802    0.1254956140
 C   -0.1432972934   -0.0002821701    0.2903433822
 O   -1.2573695615   -0.6030505006   -0.3521107298
 C   -1.3735114014   -1.9910440745   -0.1775335323
 C   -0.3666413984   -2.8122784106   -0.9558535351
 C   -1.8762242190   -2.4821978462    1.1600549049
 C   -2.7873183174   -2.4936762119   -0.0540295403
 C   -3.9606826967   -1.5528071566   -0.1105252861
 O   -5.0072312464   -2.1085598416    0.6807349114
 H    0.5862506265    2.0094309538    0.5960375662
 H   -0.2828152810    1.7750992497   -0.9344088910
 H   -1.1846652807    1.8722066161    0.5876940663
 H    0.7990947737   -0.3555310863   -0.1529328438
 H   -0.1270234553   -0.2772433759    1.3553201750
 H    0.6555927509   -2.6443701594   -0.6006063390
 H   -0.5792028447   -3.8799270963   -0.8526898198
 H   -0.4052207608   -2.5540761965   -2.0193582251
 H   -1.5073817022   -3.4244744655    1.5507205432
 H   -2.0918111789   -1.7333618211    1.9148972877
 H   -2.9817054669   -3.4654645864   -0.4998537719
 H   -3.6557053987   -0.5643784669    0.2566427375
 H   -4.2842665290   -1.4281830818   -1.1564314552
 H   -5.7694941715   -1.5263083618    0.6093203910