12

 O   -0.0678373327   -0.0040942826   -0.0366501153
 C    0.0079345726    1.1837432261   -0.0042215334
 O   -1.0892255377    2.0269284068    0.0075081508
 C   -0.4988189793    3.3213473872    0.0485716718
 C    0.7770416592    3.3688632156   -0.8357710630
 O    1.4070079144    4.3070858899    0.0949944033
 C    0.7583914483    3.3202877247    0.9604319061
 C    1.1885524631    2.1318890858    0.0339021704
 H   -1.2329109207    4.1211420768    0.0626191952
 H    0.9017134015    3.5284537079   -1.9057268185
 H    0.8607549529    3.4217549238    2.0398040459
 H    2.1989049383    1.7362504380    0.0337458066