16

 N   -0.2848442373   -1.1808441442   -0.2531325470
 C   -0.1359231538   -0.0460766886   -0.0930236876
 C   -0.0042723918    1.3849122355    0.1431716508
 C   -0.5518293939    1.8225860626    1.5505250007
 N    0.2450303262    2.9678889766    1.9652387806
 C    1.5990444337    2.6544558100    1.5326346907
 C    1.4684740370    1.9529962198    0.1314307179
 C    2.5236846501    0.9792258174   -0.1118433362
 N    3.3938283926    0.2371286763   -0.2781212267
 H   -0.5703414674    1.8993312067   -0.6387896970
 H   -1.6163561436    2.0594816233    1.5214641309
 H   -0.4040764486    1.0021947549    2.2604066095
 H   -0.0842991203    3.8093206265    1.5012870515
 H    2.2263333510    3.5459459337    1.4886741096
 H    2.0523313356    1.9528897185    2.2405338636
 H    1.5322613707    2.7087833312   -0.6567412112