19

 O    0.1796457810    1.4286154413    0.2781166051
 C    0.0617459232    0.0791933125   -0.1556680329
 C   -1.3418971961   -0.4212768956   -0.1459913627
 C   -2.2652389052   -0.7837073981    1.0012280837
 C   -3.3820207052    0.1147581821    0.4656677744
 C   -2.6806015289   -0.0166757803   -0.9099128081
 C   -2.8551681027   -1.5194926013   -1.2751222443
 O   -2.3183955824   -1.8998059792   -2.5220254268
 C   -1.9444006277   -1.8167721092   -0.0839578599
 H   -0.2127463763    1.4793884326    1.1561369286
 H    0.4775070409    0.0700848386   -1.1703842006
 H    0.6863854202   -0.5971878299    0.4519996962
 H   -1.9921274296   -0.9746301784    2.0327938404
 H   -4.4192121454   -0.2339462008    0.5338885634
 H   -3.3090505577    1.1275697291    0.8710626369
 H   -2.7817628891    0.7416664430   -1.6835487339
 H   -3.8772418921   -1.9129285463   -1.2633706703
 H   -1.3857706867   -1.6538928457   -2.5277463603
 H   -1.4456198403   -2.7491332745    0.1534445312