17

 C   -0.0702014018    1.4923293715   -0.1008264915
 C   -0.0351097795   -0.0119998957   -0.0447331353
 C    0.6031582301   -0.8950061764   -1.2093489113
 C   -0.1871954059   -1.9957092536   -0.5289739829
 C    0.4017568983   -2.8212775143    0.3687297872
 C    0.3209325572   -2.1182196150    1.6973065377
 O    0.7994850485   -2.4468907508    2.7557447768
 C   -0.2728934938   -0.7668849174    1.3444688029
 C   -1.1361900983   -0.9965380902    0.1276995881
 H    0.9195820611    1.9193026971    0.0918569155
 H   -0.4002728637    1.8378545535   -1.0866688381
 H   -0.7612287272    1.8976816840    0.6445120299
 H    0.1985494712   -0.5039568479   -2.1490285704
 H    1.6867084382   -1.0245462389   -1.2794664083
 H    1.2734974133   -3.4341565772    0.1619742037
 H   -0.5876719849   -0.1038603404    2.1451856431
 H   -2.2139455330   -0.9208420282    0.0710124431