22

 C   -0.4696420516    0.5763581685    3.4905768415
 C   -0.4766943785   -0.7188521641    2.6774282285
 C   -1.6558694511   -0.8209851360    1.6776905623
 C   -1.6186172066    0.2593697673    0.6899530202
 C   -1.5639895161    1.1359246811   -0.1316971261
 C   -1.6362018715   -2.1835671700    0.9838222638
 C   -2.3261105187   -3.3558815360    1.5961292732
 N   -2.7975360052   -2.7865270688    0.3397600352
 C   -4.0787773742   -2.0957811839    0.3351618588
 H    0.3840001895    0.6017545149    4.1745047446
 H   -0.4074199280    1.4503891136    2.8360513971
 H   -1.3809916588    0.6722506243    4.0915031116
 H    0.4623787251   -0.8152451577    2.1198580079
 H   -0.5357658191   -1.5842453594    3.3474486682
 H   -2.5851242824   -0.7277166191    2.2538348770
 H   -1.5284419617    1.9108293345   -0.8568720409
 H   -0.7111125079   -2.3569679829    0.4347686853
 H   -1.8967150070   -4.3533685309    1.5459410277
 H   -2.9157324562   -3.1631561564    2.4937543821
 H   -4.3537637222   -1.6285497093    1.2942230109
 H   -4.0669669135   -1.3176727169   -0.4332978146
 H   -4.8610354742   -2.8185124528    0.0824929156