17

 C   -0.2426733877    1.5164163542    0.0600373920
 C    0.1109477717    0.0583071607   -0.0025853608
 N   -0.6951469883   -0.9727451152    0.7296159626
 C    0.7121394943   -0.7568262595    1.0936991050
 C    1.6247555715   -1.8312599696    0.5157904516
 C    1.2427914823   -1.8968778957   -0.9805766381
 C    0.6199697994   -0.5312527051   -1.2952506136
 O    0.6005219408    0.0218201420   -2.3663110141
 H    0.5959318987    2.1340799161   -0.2750296277
 H   -1.0908936679    1.7362360599   -0.5958291076
 H   -0.5043754599    1.8162559073    1.0799405533
 H   -1.2919682690   -0.4744236821    1.3879349009
 H    0.9445273082   -0.3030314930    2.0524262203
 H    2.6693708060   -1.5229769456    0.6334341866
 H    1.4994879519   -2.7894397362    1.0284050734
 H    2.0815741281   -2.0959219506   -1.6495327663
 H    0.4813124297   -2.6622343876   -1.1616339476