13

 N   -0.0624152389    1.2643298566    0.3500322686
 C   -0.0171169748    0.0588642557   -0.0319035734
 O    1.1649288788   -0.5588667751   -0.4079247926
 C    1.1350843523   -1.8549267450   -0.8064316829
 C    2.4378772505   -2.4319159969   -1.1884807106
 O    3.4834717207   -1.8319096287   -1.1645870000
 C   -0.0159815658   -2.5587917180   -0.8462905867
 N   -1.2384701447   -2.0109324857   -0.4856447461
 C   -1.2188557491   -0.7809444254   -0.1061134589
 H    0.8636242566    1.6944944298    0.3397257525
 H    2.3642570213   -3.4927607185   -1.5070865675
 H   -0.0173043927   -3.5931771092   -1.1678171709
 H   -2.1455866641   -0.2955383094    0.1890928085