16

 O   -0.0984354875    0.0158915320    0.0079742075
 C   -0.0715020338    1.2253735322    0.0126116351
 N   -1.1599747273    2.0760921982    0.0306424977
 C   -0.7491647301    3.4185950312    0.0306262334
 C    0.5848918228    3.5156756227    0.0133742003
 C    1.1658150637    2.1350169242   -0.0001316368
 C    2.2829848058    1.7506823311    1.0138028356
 O    3.2476004747    1.5422435486   -0.0303456547
 C    2.2555153022    1.7592328593   -1.0466432677
 H   -2.1112810606    1.7486155178    0.0420031784
 H   -1.4948985348    4.2004746802    0.0437583686
 H    1.1595817409    4.4293835670    0.0095488926
 H    2.5802869596    2.5467190261    1.7054398981
 H    2.0682434425    0.8290234136    1.5677164980
 H    2.0259886833    0.8421772308   -1.6022655795
 H    2.5343647287    2.5610144848   -1.7393293267