18

 C   -0.2995257795    1.3525872090    0.5555730397
 C   -0.0103148001   -0.0408434210    0.0295314388
 C    1.3357359682   -0.3279921834   -0.5933606573
 C    0.9926124781   -0.9078641259    0.7539249109
 N   -1.1639640013   -0.7107065792   -0.5525620375
 C   -1.4495613067   -0.4776342198   -1.9076331282
 O   -2.3849606675   -0.9043017148   -2.5242612484
 C   -2.0131857267   -1.4291561278    0.3046261442
 O   -3.0282538918   -1.9894817603   -0.0001921998
 H    0.6022940187    1.8031672356    0.9792531876
 H   -0.6618950310    2.0062140715   -0.2450891490
 H   -1.0652633265    1.3247972335    1.3381794103
 H    1.3750107229   -1.0119050927   -1.4329808126
 H    2.0443060776    0.4907649576   -0.6455146760
 H    1.4628139662   -0.4919575026    1.6377133753
 H    0.8055992770   -1.9741175461    0.8026187335
 H   -0.6699832624    0.1699752446   -2.3538858359
 H   -1.6097610752   -1.4174901781    1.3358373445