15

 N    0.1184697802    1.4833245150    0.2009870684
 C    0.0473291922    0.0546219786    0.0285177553
 C   -1.3361489230   -0.6543935761    0.1076010536
 C   -2.5537455569    0.2640254795    0.1054784444
 C   -3.8156025478   -0.4717460688    0.0892115447
 N   -4.8101191120   -1.0590787753    0.0893288113
 O   -1.0959766793   -1.2685712415   -1.1976440251
 C    0.0833479536   -0.5811440799   -1.3790496209
 O    0.7677876233   -0.5443587956   -2.3480787077
 H    1.0388769874    1.7713876007    0.5079676092
 H   -0.0766516581    1.9795085755   -0.6616581644
 H    0.7693051332   -0.4347506348    0.6868217399
 H   -1.4282853204   -1.4307147090    0.8698135312
 H   -2.5103805222    0.8984530095    0.9977142857
 H   -2.5180627001    0.9328206123   -0.7608916956