14

 C   -0.0224385984    1.4695250426    0.0342246705
 C   -0.0021829283   -0.0195894216   -0.0341933149
 N   -0.0513001887   -0.7215082385   -1.1598382388
 C   -0.0059719415   -2.0117517357   -0.7125163201
 C    0.0696471399   -2.1092911273    0.6590759669
 N    0.0718464742   -0.8031749890    1.1045806722
 N    0.1126931821   -3.3934578370    1.0674483679
 N    0.0664310289   -4.1284729837   -0.0217258458
 N   -0.0069517512   -3.3043830816   -1.1124102607
 H    0.8852855294    1.8640547553    0.5047156778
 H   -0.0888144500    1.8645152068   -0.9796306237
 H   -0.8805081790    1.8352966498    0.6094020730
 H    0.1171601993   -0.4697872066    2.0521700327
 H   -0.0497347166   -3.7182541636   -2.0284829870