19

 C   -0.1840626800    1.4939986406   -0.1253596208
 C    0.0647461603   -0.0035892072   -0.2315853690
 C    1.3887981937   -0.5030192882   -0.9249767294
 C    1.7564236471   -1.2075475273    0.3840822383
 O    1.8074937559   -0.1969637103    1.4035877382
 C    0.5252127683   -0.7443359791    1.0471287551
 C   -0.3135507062   -1.3200327058    2.1515247009
 C   -0.8702445152   -0.2359282427    3.0606050490
 O   -2.0366852999   -0.1026165586    3.3251855456
 H    0.6672503216    1.9877114963    0.3518458926
 H   -0.3255151205    1.9388969066   -1.1158007163
 H   -1.0820287546    1.7074515065    0.4650506194
 H   -0.7999818626   -0.5133750936   -0.6689429612
 H    1.2022391825   -1.1872733110   -1.7557451142
 H    2.0935273811    0.2715483463   -1.2378449079
 H    2.3524498895   -2.0987744692    0.5471739139
 H   -1.1471514043   -1.9067768187    1.7548796115
 H    0.3220439843   -1.9724502012    2.7649102218
 H   -0.0979759608    0.4463257565    3.4789377926