20

 C    0.4722632098    1.0558639846    0.6174818052
 C    0.2522861465   -0.4082429382    0.2515938881
 N    0.4639704058   -0.6231750603   -1.1768805059
 C    0.2156913537   -1.9597302569   -1.6460560847
 C   -0.4808735528   -1.9488898404   -3.0068173495
 O   -0.8975486134   -0.9438499628   -3.5218760410
 C    1.4613743231   -2.8699927212   -1.7835308218
 C    2.8177504084   -2.2167531056   -1.6755819902
 O    1.3016650912   -4.0476450788   -2.0051701984
 H    1.4817454246    1.3759794132    0.3440533972
 H   -0.2404193641    1.7017449860    0.0922949349
 H    0.3344598704    1.2117002591    1.6911755882
 H    0.9621451791   -1.0362503543    0.8060553526
 H   -0.7560947109   -0.7264710342    0.5759745426
 H   -0.0965075020    0.0199285420   -1.7303467155
 H   -0.4752775129   -2.5393108809   -1.0030370458
 H   -0.5747076212   -2.9466993992   -3.4757454278
 H    2.9644590310   -1.8123992194   -0.6685074855
 H    3.5924040780   -2.9513342514   -1.8983237255
 H    2.8805343557   -1.3607485015   -2.3540097670