23

 C   -0.0532871254    1.5782830034   -0.0273996032
 C    0.0355708333    0.0419078938    0.0218860293
 C    0.6990399524   -0.5002311966   -1.2292466261
 C    1.7486607220   -1.3148067023   -1.1299482207
 C    2.2247215435   -1.6850616996    0.2563593655
 C    2.3099389847   -0.3806578907    1.1051330758
 C    0.7618430554   -0.5069936495    1.2840227629
 C    0.1465448085   -0.0269339710    2.5887510439
 C    0.9730169723   -2.0458134094    1.1099503557
 H    0.9394218911    2.0366503388    0.0318005224
 H   -0.5096084132    1.9037635623   -0.9681306463
 H   -0.6627493726    1.9766351029    0.7885563009
 H   -0.9988462453   -0.3377572664    0.0545720391
 H    0.2972331884   -0.1893927881   -2.1904223214
 H    2.2538855479   -1.7164969401   -2.0030518652
 H    3.0757574983   -2.3673964866    0.2547221836
 H    2.8229964050   -0.5459005826    2.0576595306
 H    2.7147924106    0.5109064578    0.6196075232
 H    0.2558176217    1.0544537863    2.7205531615
 H   -0.9246657316   -0.2602951188    2.6334356260
 H    0.6292451812   -0.5128466970    3.4433270924
 H    0.1843022520   -2.6281088572    0.6254194817
 H    1.2437049799   -2.5103267394    2.0633781683