19

 C    0.0344525848    1.4578086467   -0.0360252813
 O    1.4760636752    1.4486165624   -0.2357005003
 C    1.5059825140    0.0384248190   -0.0121746284
 C   -0.0017368626   -0.0612448332    0.1056353201
 C    0.7242759721   -0.6934079824   -1.0604344819
 C    0.6744782298   -0.2531756179   -2.5240010783
 C    0.9763261954   -1.5690470409   -3.2816694531
 O    1.5158354384   -2.4762845670   -2.3253872124
 C    0.8515738646   -2.2120737685   -1.1035566365
 H   -0.2158717045    1.9878693040    0.8893065663
 H   -0.5012079530    1.9089846765   -0.8793553761
 H    2.3288156449   -0.3711814141    0.5641855335
 H   -0.6254850150   -0.6208561403    0.7915178990
 H   -0.3015935669    0.1522098158   -2.8078716146
 H    1.4224088263    0.5205337988   -2.7130852210
 H    0.0534706285   -1.9829947529   -3.7179636658
 H    1.7117969219   -1.4570769471   -4.0819769791
 H    1.4481239963   -2.6339972137   -0.2885144738
 H   -0.1441545503   -2.6899999953   -1.0845852463