17

 N    0.2453140760    1.1211368791    0.3381844412
 C    0.0642015976   -0.0722905046    0.0082222090
 O    0.9262147847   -0.9762721431   -0.6046395665
 C   -0.1186187623   -1.9915719378   -0.6789988679
 C   -0.0657644645   -2.9579121261    0.5237596013
 C   -1.0258999952   -2.0083619593    1.2705409982
 C   -2.1279844943   -2.4082371420    2.1731128312
 N   -0.9996603736   -1.5918616677    2.6605674622
 C   -1.0955844011   -1.0393909155    0.0712747164
 H    1.1939159078    1.4291298158    0.1171034043
 H   -0.2468342916   -2.3685205539   -1.6920584710
 H   -0.4874472744   -3.9466439031    0.3228024564
 H    0.9367545588   -3.0693694779    0.9451326322
 H   -3.0818259791   -1.8882360526    2.1375824450
 H   -2.1898850473   -3.4548563869    2.4630913709
 H   -0.3441503414   -2.1610717462    3.1904771993
 H   -2.0691964600   -0.7032206182   -0.2784313923