20

 C   -0.2352263240    1.5115806583   -0.1033296974
 C    0.1498202535    0.0246140813    0.0043660692
 C    0.8100233434   -0.5050616595   -1.2246100678
 C    2.0439447818   -0.9757454505   -1.4401600934
 C    2.0401972707   -1.3459411162   -2.9305761219
 C    1.3125056374   -0.0930088238   -3.5288175080
 C    0.1551989962   -0.6293320275   -2.6183401985
 C    0.6472372471   -2.0577319019   -3.0359247643
 H    0.6519891802    2.1324551398   -0.2616178614
 H   -0.9175011386    1.6854417393   -0.9416854302
 H   -0.7332001993    1.8529003101    0.8095817519
 H    0.8154331115   -0.1208945346    0.8632313307
 H   -0.7592517169   -0.5574062321    0.2142671221
 H    2.8680635444   -1.0900318121   -0.7492636308
 H    2.9456114935   -1.7628223189   -3.3710340484
 H    1.7265502506    0.8899803289   -3.2915872915
 H    1.0994477406   -0.1801762076   -4.5995699298
 H   -0.8807434963   -0.3097049385   -2.7373920281
 H    0.3705827789   -2.3306234385   -4.0599405539
 H    0.4495741154   -2.8813119059   -2.3454218886