20

 C   -0.1241593304    1.5360837984   -0.0872244999
 C   -0.0177299399    0.0360604054    0.0499346709
 N    1.3189105319   -0.5676917009   -0.0715398826
 C    0.5955133529   -0.6673761097    1.2125916947
 C    1.2297379795    0.0463540543    2.3703688061
 O    0.2789682079    0.4375428013    3.4114206936
 C    1.1082817642   -0.1637193349    4.4093875227
 C    1.1833329670   -1.6427343025    4.2161069654
 C    2.0696988863   -0.7267043396    3.3910913070
 H    0.7433555379    2.0397300444    0.3436378040
 H   -0.1808069416    1.8183906874   -1.1439935380
 H   -1.0243947973    1.9069191925    0.4134688499
 H   -0.8387006556   -0.5079328575   -0.4168516995
 H    1.2756809168   -1.4520492787   -0.5696029522
 H    0.1568928102   -1.6301849563    1.4677420368
 H    1.7678023924    0.9315692244    2.0164050626
 H    1.2494075880    0.3681632223    5.3427867412
 H    1.7156927823   -2.1908588449    4.9875561380
 H    0.3403328287   -2.1695863867    3.7784873993
 H    3.1487757490   -0.7914804787    3.3939272096