14

 C    0.0206960030    1.4314310999   -0.0351473050
 N    0.0231386503   -0.0162876444    0.0075867334
 N    0.0372879592   -0.7426970938   -1.1513853545
 C    0.0565184596   -2.0038317944   -0.7681687938
 C    0.0579649599   -2.1301486625    0.6477393908
 C    0.0722286246   -3.2619371015    1.4850753429
 N    0.0834395228   -4.1567175933    2.2236856003
 C    0.0377130555   -0.8083038124    1.0925836239
 O    0.0317232176   -0.2780642675    2.3218011655
 H    0.9822045625    1.8040201514   -0.3989939246
 H   -0.7710294305    1.7699090616   -0.7060794299
 H   -0.1597518232    1.8102061524    0.9708893060
 H    0.0666464721   -2.7987744800   -1.4983308009
 H    0.0263645268   -0.9932567954    2.9708193360