14

 N   -0.2149362716    1.4492103664   -0.2690804910
 C   -0.0838301414    0.2057700231   -0.1769876347
 O    1.1792110049   -0.3920678755   -0.2067376454
 C    1.4181282579   -1.6249741602   -0.6912560368
 C    0.6046678147   -2.4529446325   -1.3727219396
 C   -0.7958937101   -2.2433056053   -1.6875482503
 N   -1.6375059433   -1.4798353941   -1.0907443534
 C   -1.2401558812   -0.7382748793    0.0268475829
 N   -1.8074026460   -0.7658249618    1.1614565784
 H    0.6871185240    1.9065202460   -0.4165944767
 H    2.4535382573   -1.8909915913   -0.5072374289
 H    1.0657704217   -3.3567489718   -1.7558883915
 H   -1.1871498612   -2.8304874060   -2.5206961994
 H   -2.5859256158   -1.4314455578    1.1325697663