15

 N   -0.2298480694    1.1331133820    0.0748140749
 C   -0.4910671579   -0.0574795233   -0.2402793868
 O   -0.8814560950   -0.9299609481    0.7277457171
 C   -0.9811985938   -2.2672790774    0.3485734446
 C   -2.1671332889   -3.0429382796    0.8295710189
 O   -3.2847918350   -2.2717851465    1.2264706148
 C   -3.6756996946   -1.5957792751    0.1170101204
 N   -3.0707888110   -1.8164332077   -0.9812245356
 C   -2.0121880712   -2.7423564569   -0.6684096770
 H    0.0258540479    1.6628324507   -0.7560620703
 H   -0.4548571356   -0.5085752146   -1.2381969918
 H   -0.0394714404   -2.8118041057    0.3458251554
 H   -2.0911989585   -3.9890687769    1.3484836313
 H   -4.5021920943   -0.9135396324    0.2673893543
 H   -1.7282305425   -3.4516306285   -1.4362604902