23

 C   -0.0985218756    1.5071341142   -0.2462046126
 C   -0.0640211140    0.0006406088   -0.0745041233
 O    0.6048563691   -0.5545192797   -1.2234341349
 C    0.7570938975   -1.8964185198   -1.2276464695
 O    0.3510854426   -2.6118653897   -0.3452238387
 C    1.5120994994   -2.3531348127   -2.4682872653
 C    2.9824400548   -1.8987164346   -2.3617563632
 C    1.3547583269   -3.8689639823   -2.6639587547
 C    1.9088918236   -4.3834578885   -3.9953880071
 H    0.9138038865    1.9162006396   -0.3107452195
 H   -0.6394947254    1.7846900509   -1.1553063580
 H   -0.6023003492    1.9676226334    0.6088779654
 H    0.4756777409   -0.2976215701    0.8298788016
 H   -1.0694524481   -0.4274850162   -0.0087827614
 H    1.0618995385   -1.8262588558   -3.3197528281
 H    3.4822416316   -2.3985911194   -1.5247718016
 H    3.5303922664   -2.1408384679   -3.2757088397
 H    3.0445072005   -0.8195542253   -2.2040787229
 H    1.8376921317   -4.3854732319   -1.8269197459
 H    0.2912529959   -4.1203114689   -2.5904357039
 H    1.4408554879   -3.8738132194   -4.8456258784
 H    2.9906879244   -4.2389217430   -4.0771753293
 H    1.7144465040   -5.4546643919   -4.1051707189