13

 C   -0.0396968148    1.5961511203   -0.0619239175
 C    0.0365430327    0.0767812198   -0.0201871309
 C    0.7126943100   -0.6689406674   -1.1865289824
 O    2.0658746716   -0.2327366540   -1.2143653075
 C    1.7264007156   -1.3159788370   -0.3162004082
 C    1.1041306938   -0.6189443216    0.8925176383
 O    1.2653633233   -0.6765563024    2.0737630635
 H    0.9136361249    2.0160632975   -0.3917882981
 H   -0.8253759484    1.9359759098   -0.7442885359
 H   -0.2632591255    1.9908043763    0.9336535780
 H   -0.9350609554   -0.3683669033    0.2314500519
 H    0.2807668624   -1.0514083624   -2.1033709435
 H    2.2799605699   -2.2419088957   -0.4150727778