18

 C    0.2020048476    0.4245303059   -0.8791615413
 C    0.0082141008   -0.1851499045    0.5080226248
 O   -0.0684057218    0.8229529025    1.5123181760
 C   -1.1999457778   -1.1090974533    0.6457348008
 O   -2.4330485510   -0.5160727866    0.0757028002
 C   -2.5452596744   -1.5325205149   -0.8438455347
 N   -3.3090341204   -1.7006922632   -1.8228692125
 C   -1.3870567384   -2.3356931293   -0.2836498429
 O   -0.3337158592   -2.6518277114   -1.1569170473
 H    1.0703373261    1.0874447246   -0.8599706963
 H    0.3592524485   -0.3536480208   -1.6279478255
 H   -0.6758936183    1.0122449450   -1.1672703928
 H    0.8887026040   -0.7834910186    0.7714465862
 H   -0.8052340955    1.4005570313    1.2814802402
 H   -1.3620208416   -1.3174676244    1.7057634778
 H   -3.9599738944   -0.9232747124   -1.9438344011
 H   -1.7236214014   -3.2219760640    0.2709957312
 H   -0.7307125826   -2.9358346860   -1.9888680928