19

 C   -0.0365282881    1.5557921916    0.0341339146
 C    1.4619629824    2.0014559786    0.0165419268
 C    2.2363729724    0.6733683222   -0.0699681529
 C    2.0281822038   -0.0066877573   -1.4233306604
 C    1.6552303928   -1.4353821889   -1.1112697375
 O    1.7311493738   -1.6354745852    0.2846728657
 C    1.3501611300   -0.3373935186    0.7164232071
 C    0.0389266983    0.0198264246   -0.0441537449
 C    0.5556185833   -0.4446263915   -1.4060390809
 H   -0.5315390281    1.8734826451    0.9576457467
 H   -0.6101568288    1.9775775192   -0.7956026501
 H    1.6938601186    2.6628383260   -0.8226312818
 H    1.7227350770    2.5438967646    0.9311975327
 H    3.2789065105    0.7243276915    0.2499552315
 H    2.5485200671    0.2900544680   -2.3241095142
 H    1.9047267963   -2.2980341619   -1.7123242256
 H    1.3466790852   -0.2827424643    1.8034957611
 H   -0.8548641714   -0.5050959255    0.2985095723
 H   -0.0616139149   -0.4861768780   -2.2934554702