13

 O   -0.1252723181    1.4315985939    0.0197141618
 C   -0.0507466599    0.0541432774    0.0294307462
 C   -0.3862732697   -0.7995952202    1.2420831997
 C   -1.5807187648   -0.1782664232    1.9353034538
 O   -1.8856380672    0.1213272111    3.0393093226
 O   -2.3395857354   -0.0680371398    0.7814281039
 C   -1.3228270643   -0.7357656810    0.0129629791
 C   -1.6841101949   -1.7956662156   -0.9483630347
 O   -2.8061063226   -2.1660209882   -1.1684113286
 H    0.5732440001    1.7854765874    0.5816677261
 H    0.7446588167   -0.3857810795   -0.5777765335
 H    0.2406654163   -1.5971346312    1.6155865902
 H   -0.7981158463   -2.2277538513   -1.4653035167