15

 N   -0.0713546710    1.5173463481   -0.0088938870
 C   -0.0260757812    0.0545728522    0.0017483257
 C    0.6262333749   -0.4737578112    1.2816205467
 C   -0.1611175862   -1.3224778654    1.9397100602
 C   -1.4819562498   -1.4513071804    1.2520420218
 O   -2.1974005762   -0.1937149329    1.2010385938
 C   -1.4363835445   -0.5787010462    0.0717144208
 C    0.6769030418   -0.4985935728   -1.1815491560
 N    1.2236730880   -0.8880296992   -2.1237937114
 H    0.8732813221    1.8914067078   -0.0277586778
 H   -0.5294594309    1.8466705541   -0.8542706517
 H    1.6084400611   -0.1323639821    1.5856230257
 H    0.0808022153   -1.8176401886    2.8715361550
 H   -2.1013612460   -2.3388882295    1.3242170350
 H   -1.9816568173   -0.7623461340   -0.8497426106