17

 C    0.3956801908    0.7501255389    1.3031628840
 C    0.1276806454   -0.0179409775    0.0207648802
 O    0.8798420644    0.0303367798   -0.9259510437
 C   -1.1631701963   -0.8209476011    0.0110554981
 C   -1.5373784416   -1.6778140584   -1.2464914648
 C   -0.4220310900   -2.6935270240   -0.7987269224
 C   -1.1219727714   -2.3154260824    0.5491242520
 C   -2.4244959923   -2.4560018047   -0.2614614336
 O   -3.5145970807   -2.9255678147   -0.1697457860
 H    1.3804719148    1.2157820639    1.2553889443
 H   -0.3664832515    1.5262492502    1.4394459635
 H    0.3331378715    0.0888722501    2.1741818327
 H   -1.9700382631   -0.2194712900    0.4429486320
 H   -1.7487106358   -1.3137675275   -2.2481850034
 H   -0.5327285863   -3.7261089873   -1.1331412547
 H    0.5940360029   -2.3291041831   -0.9238198978
 H   -0.8842527008   -2.6495997022    1.5567562298