16

 O   -0.0819929468    1.3740583038    0.0534152100
 N    0.0572153313   -0.0290430012    0.0594824355
 C   -1.0639896132   -0.6018951477    0.0532629263
 C   -1.4916506113   -2.0621955804   -0.0241752554
 C   -2.3044300114   -2.1445369163    1.2788726926
 O   -3.0494276369   -0.8934347149    1.2103779666
 C   -2.5612430810   -0.3128766541   -0.0079509101
 C   -2.6107488852   -1.5359578210   -0.9884934051
 O   -2.1033024835   -1.3312071025   -2.2779156572
 H    0.8364015135    1.6647765230    0.0515703258
 H   -0.8215858021   -2.8763359544   -0.2875491084
 H   -3.0031740646   -2.9874335882    1.3084330148
 H   -1.6772020536   -2.1582153830    2.1762089782
 H   -3.0119867351    0.6587758437   -0.1898213577
 H   -3.5593574481   -2.0887379119   -0.9753201625
 H   -2.7173760221   -0.7686693948   -2.7610355034