17

 C   -0.0758884058    1.5185558825   -0.0974312627
 C   -0.0069557994    0.0211599002    0.0621861837
 N    1.2780931542   -0.6222560824   -0.1745267363
 C    0.7347387358   -0.6276091530    1.2008669722
 C    1.3785716611    0.0227565756    2.3648762569
 C    1.1460215362   -0.7526872983    3.4328925988
 N    0.4097272981   -1.8996283325    3.0813719343
 C    0.1650599593   -1.9274743660    1.7238088325
 O   -0.3682593079   -2.8115602879    1.0853011335
 H    0.8632836458    1.9879408314    0.2046236041
 H   -0.2588656862    1.7781487797   -1.1455620696
 H   -0.8894991526    1.9385763154    0.5025460760
 H   -0.8917691551   -0.5326152501   -0.2494814569
 H    1.1246786494   -1.5562678792   -0.5576637653
 H    1.9106495876    0.9599468888    2.3539586848
 H    1.4315719476   -0.6043512634    4.4639473027
 H    0.1994365218   -2.6709451609    3.6920644713