14

 N   -0.0637175947    1.2437688031   -0.1849076731
 C   -0.0255371043    0.0002967477   -0.0175364646
 C   -1.0881538720   -1.0817328309    0.0850113600
 O   -1.1331576857   -1.7918205766   -1.1899098489
 C    0.0627574805   -2.5435432361   -0.8787697174
 C    1.3350872460   -1.7009064392   -1.1050546325
 N    1.0782985031   -0.9379443411    0.1860854834
 C    0.0541901364   -2.0090244943    0.5698508000
 H    0.8836208056    1.6315964697   -0.2158101804
 H   -2.0780404626   -0.9065468178    0.5058394573
 H    0.0011523731   -3.5757916835   -1.2270344700
 H    2.2552711334   -2.2845687659   -1.0034799831
 H    1.3784578383   -1.0819450414   -2.0045069336
 H    0.1512646429   -2.5366953737    1.5142446731