18

 N    0.2037236231    1.4429107021   -0.0123410007
 C    0.0311210309    0.0050594776   -0.0109763912
 C   -1.4437022942   -0.5102249795   -0.0375232388
 N   -2.0812368096    0.0107909233   -1.2491120436
 C   -1.4466117283   -2.0706767371    0.0695806934
 C   -2.7739819371   -2.6471989778   -0.0821109916
 C   -3.8850098585   -3.0836788310   -0.2227040354
 C   -2.1492448312    0.0516632749    1.1294045302
 N   -2.6579388885    0.4938240843    2.0678482881
 H   -0.3803956983    1.8458276527   -0.7403310536
 H   -0.1241501282    1.8333412483    0.8665850759
 H    0.5191811759   -0.4154586160   -0.9010483670
 H    0.5380919319   -0.4188923142    0.8617664256
 H   -1.6229346706   -0.3971767381   -2.0607839936
 H   -3.0524194042   -0.2876924539   -1.2838955797
 H   -0.7806472118   -2.4521600013   -0.7156149292
 H   -1.0088417002   -2.3732304431    1.0284058040
 H   -4.8620222810   -3.4872478013   -0.3268110926