18

 C   -0.4075926948    1.4913846547    0.0045267834
 C    0.0010082873    0.0037041054   -0.0068375379
 N    0.6480100537   -0.3801803010   -1.2640755690
 C    1.8803044162    0.0290178908   -1.6744532796
 C    2.9500559559    0.4339993162   -0.9478656072
 C    3.1591006719    0.3876293681    0.4936039444
 O    4.2259401074    0.7428834396    0.9850348862
 C    2.1237567214   -0.1655824992    1.4139917698
 C    0.8161193746   -0.3436901958    1.2163186784
 H    0.4764344011    2.1278330140   -0.0833082585
 H   -1.0860657651    1.7113813932   -0.8264077069
 H   -0.9169355349    1.7401734099    0.9404338203
 H   -0.9132858607   -0.5982814221    0.0337407304
 H    0.0000677848   -0.5796230326   -2.0087673140
 H    1.9941323977   -0.0089631595   -2.7558381311
 H    3.8267786868    0.7495029118   -1.5017218415
 H    2.5402195459   -0.3964660044    2.3909734972
 H    0.2258988110   -0.7192514492    2.0494527255