20

 C   -0.0230840919    1.6104724853    0.2033870100
 N    0.0291654557    0.1683120389    0.1451550921
 C   -1.2107924284   -0.5877118465    0.4141335645
 C   -0.4168341751   -1.5784256681    1.3058341781
 C   -1.0465563059   -2.1171849801    2.5711777882
 C    0.7788152050   -0.5641737510    1.1919136697
 C    1.7003490655   -1.6439836280    0.5736387176
 C    0.4595404313   -2.5594100089    0.4882007570
 O    0.2461998481   -3.6371440297    0.0147672894
 H    0.9833712747    2.0238573428    0.0786580454
 H   -0.6431043866    1.9908892729   -0.6154287400
 H   -0.4391031038    2.0009865881    1.1523455977
 H   -1.9417760800   -0.0238043567    1.0171829095
 H   -1.7164496437   -0.9839779866   -0.4733193318
 H   -1.8211087975   -2.8519575354    2.3253784257
 H   -0.3084499910   -2.6190260342    3.2059035477
 H   -1.5093737383   -1.3162161785    3.1566048072
 H    1.1423283946    0.0286604184    2.0356760825
 H    2.2058775772   -1.3959120118   -0.3615632618
 H    2.4260656802   -2.0581589209    1.2850180313