23

 C   -0.1056547313    1.5722327390    0.1701422109
 C   -0.0494826109    0.0587514390    0.0255753970
 C    0.9997356887   -0.5954014566   -0.9584070851
 C    1.2577373012   -1.7167231812    0.1143428104
 C    2.6037329633   -2.1138896315    0.7832693915
 C    3.8103236990   -1.3188943210    0.2764758112
 C    2.3243709827   -1.8111050479    2.3019241765
 C    1.2400824891   -0.7373687886    2.2739301776
 C    0.6262378491   -0.7720251628    1.0959517702
 H    0.8851157538    1.9772494553    0.4010704349
 H   -0.4601679984    2.0437967718   -0.7528925751
 H   -0.7849946838    1.8677324410    0.9770430355
 H   -1.0470599816   -0.3353493967   -0.2076034467
 H    0.6272235810   -0.9138637899   -1.9354396800
 H    1.8633221976    0.0595753715   -1.0971468638
 H    0.6441450745   -2.5970373599   -0.1132403123
 H    2.8081983727   -3.1799674093    0.6388287499
 H    3.6791219789   -0.2455740486    0.4529639967
 H    4.7224795651   -1.6296629045    0.7966052324
 H    3.9685203260   -1.4669643913   -0.7968437327
 H    1.9952045782   -2.7138821598    2.8356962762
 H    3.2301963827   -1.4660875724    2.8154453723
 H    1.0834340025   -0.0321071855    3.0822346826