14

 N   -0.1190035146   -1.1833172962    0.0967461670
 C   -0.0746069150   -0.0286974544    0.0698307338
 C   -0.0229326260    1.4138629096   -0.0027710998
 O    0.5850221402    2.0953815541    1.1251075345
 C    1.2616366302    2.1196957170   -0.0862799132
 C    2.7289302436    1.7833419146   -0.3853720169
 C    2.4987777301    2.2957928261   -1.8295536923
 C    1.8537798046    3.3122642686   -0.8532995269
 O    3.0514106360    3.1795026755    0.0137578692
 H   -0.9256834768    1.8846700577   -0.3859967476
 H    3.3599504845    0.9812889749   -0.0091406656
 H    3.4036905106    2.6675917910   -2.3082869711
 H    1.8537837716    1.7192036144   -2.4968180349
 H    1.4553521010    4.3098126970   -1.0280930162