21

 C   -0.0325044964    1.5585396651   -0.0498050096
 C    0.0163533170    0.0292885535   -0.0008558003
 C    0.6470745281   -0.5439294966   -1.2866281369
 O    0.9396465436   -1.9369982336   -1.2096892787
 C    1.5900595267   -2.2957721510   -0.0064792136
 C    0.6620196991   -2.0643567011    1.1873775071
 C    0.7694044384   -0.5300706501    1.2318302871
 C    2.2955360107   -0.3851037365    1.1048220396
 O    2.7119061133   -1.4700631471    0.2562776619
 H    0.9709164086    1.9958822164   -0.0905556192
 H   -0.5773337293    1.9074233717   -0.9336852484
 H   -0.5378934932    1.9630283563    0.8332459159
 H   -1.0147914368   -0.3420765231    0.0652407549
 H   -0.0318282919   -0.4260697115   -2.1360190950
 H    1.5687772183    0.0093036198   -1.5185011626
 H    1.9414205452   -3.3187066814   -0.1527349252
 H   -0.3473216310   -2.4383614290    1.0080418514
 H    1.0689880768   -2.5311153352    2.0901884120
 H    0.3918806278   -0.0833880194    2.1557118582
 H    2.6164878383    0.5594044376    0.6527835852
 H    2.7864922967   -0.4815081548    2.0823024364