18

 C   -0.0113006254    1.3633079190    0.2191929468
 O   -0.0105231864   -0.0234112330   -0.0727290715
 C   -1.2958977712   -0.6241738306   -0.0610123881
 C   -1.1746361365   -1.9831239991   -0.7414134551
 N   -0.4689548204   -2.9300714145    0.1067491197
 C   -0.7071180941   -2.9350532936    1.4392599740
 C   -1.3717225233   -1.9448006495    2.0947618023
 C   -1.7910595636   -0.7455073831    1.4017056343
 O   -2.4013669991    0.1823345854    1.9133254970
 H    1.0265886983    1.6970068560    0.1456746584
 H   -0.6212991010    1.9204509087   -0.5082618787
 H   -0.3964732254    1.5766250686    1.2225873480
 H   -2.0163682343   -0.0035173804   -0.6137029022
 H   -2.1905933313   -2.3500049448   -0.9582598167
 H   -0.6346821272   -1.8705947110   -1.6852630383
 H   -0.1026797170   -3.7636177440   -0.3194020084
 H   -0.3173777593   -3.7977770475    1.9721819135
 H   -1.5426949627   -2.0142929766    3.1611206950