20

 C    0.1621270317    1.4349718128   -0.0554629795
 C   -0.2051668508   -0.0100485049   -0.3353896255
 O    0.8521246007   -0.5805675245   -1.1233625584
 C    0.6952951461   -1.8950674541   -1.4301489384
 O   -0.2375842641   -2.5780545116   -1.0759722849
 N    1.7397995219   -2.3089201409   -2.2100964250
 C    1.9427858797   -3.6883968471   -2.5255203007
 C    1.0267089850   -4.3414651066   -3.5227564829
 C    2.4488465218   -4.0212918230   -3.9054348095
 H    1.1035104904    1.4985761720    0.4978890772
 H    0.2724392110    1.9981549322   -0.9866491572
 H   -0.6219895184    1.9084848572    0.5427971234
 H   -0.3183121119   -0.5882820599    0.5870614851
 H   -1.1477144401   -0.0900006425   -0.8869582176
 H    2.5152540265   -1.6709669663   -2.2957519185
 H    2.2931333052   -4.3106884437   -1.7044089006
 H    0.7515588078   -5.3748203895   -3.3483010606
 H    0.2391612928   -3.7257669735   -3.9385586643
 H    2.6103551971   -3.1935191520   -4.5871269860
 H    3.1626737875   -4.8314103741   -4.0005762564