13

 C   -0.0538819695    1.5253000937    0.0226580671
 C   -0.0144965844    0.0319435821   -0.0009857712
 C   -0.0147195324   -0.8264617457   -1.0509629910
 O    0.0067989847   -2.1027919311   -0.6448942075
 N    0.0343954942   -2.1257307662    0.7554065594
 C    0.0116712393   -0.8629574633    1.1204798178
 N   -0.0567785373   -0.4976801611    2.4558686087
 H    0.8538827143    1.9526835888    0.4671415137
 H   -0.1434756550    1.9328161700   -0.9875280053
 H   -0.9040240951    1.8922361787    0.6089722902
 H   -0.0354383487   -0.6721292948   -2.1196570166
 H    0.1519670976   -1.2654255938    3.0808427158
 H    0.4845015622    0.3237550325    2.6870292888