11

 O    0.1865429632    0.1046064422   -0.0927164382
 C    0.3200093439    1.2779639296   -0.2245982045
 O    0.6375429724    2.0889398633    0.8225348101
 C    0.8318708303    3.4532921005    0.5429135370
 C    2.1747043663    3.7111614870   -0.1329778190
 O    2.8754493954    2.8508680389   -0.5918595061
 C    2.5382385210    5.1387326128   -0.2108079687
 N    2.7879209928    6.2666331119   -0.2589518143
 H    0.1818569060    1.8325928617   -1.1713284589
 H    0.0428627920    3.8716739467   -0.1014874997
 H    0.7889190967    3.9924597554    1.4938603723