23

 C   -0.1493945590    1.5356442384    0.2560140407
 C   -0.0702180117    0.0094231898    0.0707622268
 C    0.5145652646   -0.6379731748    1.3418285429
 C   -1.4979994669   -0.5274887332   -0.1632096215
 C    0.7790421851   -0.4205883678   -1.1324421770
 C    1.1054818738    0.4430200370   -2.3151257297
 C    2.2316625963   -0.0278686943   -1.4026321229
 C    2.9842649928    0.8958133655   -0.6044461148
 C    3.6734668284    1.6405155258    0.0440625725
 H    0.8376480521    1.9870141384    0.3760821164
 H   -0.6481751658    2.0162466513   -0.5919386381
 H   -0.7354053154    1.7667831490    1.1520150424
 H   -0.1185203519   -0.4291988883    2.2113275866
 H    0.5826827198   -1.7262864334    1.2330088710
 H    1.5178145635   -0.2557194710    1.5498433144
 H   -1.9267233513   -0.1222365542   -1.0860753861
 H   -1.5052924255   -1.6204198003   -0.2403866679
 H   -2.1572482817   -0.2475501649    0.6654661361
 H    0.6049826626   -1.4656943740   -1.3815090247
 H    1.0560632138    0.0205041860   -3.3127145114
 H    0.8591631811    1.4964571830   -2.2606149003
 H    2.8405744210   -0.8361194807   -1.7994449293
 H    4.2682101543    2.3044186528    0.6206453736