16

 C    0.0200457764    1.5507710374    0.0719620032
 C    0.0989851855    0.0338746381    0.0084315180
 C    0.7805785144   -0.5463314365   -1.2363728911
 C    1.2638561377   -1.9091617641   -0.7228157608
 C    1.6290608005   -1.5918712961    0.7382542469
 O    0.8790799345   -0.4364418731    1.1123026623
 H    1.0190010628    1.9894191231   -0.0163249852
 H   -0.6064918813    1.9376908891   -0.7383683003
 H   -0.4125419796    1.8730893695    1.0232294572
 H   -0.9204770332   -0.3830950555    0.0870373228
 H    0.1070530952   -0.6171585516   -2.0942775530
 H    1.6306025488    0.0851016770   -1.5216036098
 H    0.4495620580   -2.6402286220   -0.7648568358
 H    2.1059338052   -2.3169564743   -1.2871690389
 H    1.3925770173   -2.4204736108    1.4174691110
 H    2.6995418479   -1.3676425202    0.8461667832