22

 C   -0.0201102729    1.4749085682    0.0779991401
 C   -0.0155468501    0.0192303625    0.0294641444
 C   -0.0101035198   -1.1850837351    0.0020662725
 C   -0.0091052069   -2.6469063087   -0.0638592023
 C   -1.4447579268   -3.2030764344   -0.1302176989
 C    0.8693671264   -3.1150910104   -1.2454212680
 N    1.0365778456   -4.5642127805   -1.2478983197
 C    0.2106192157   -5.3321474836   -2.1763611607
 C    1.6604373155   -5.1309042249   -2.4385923298
 H    0.9985499917    1.8784164967    0.0614813772
 H   -0.5579662254    1.9021997594   -0.7757639792
 H   -0.5049251484    1.8416745417    0.9897087206
 H    0.4618750778   -3.0405684418    0.8468716879
 H   -1.4334847311   -4.2954380681   -0.1082264115
 H   -2.0320866785   -2.8459142793    0.7196949796
 H   -1.9464859006   -2.8746300426   -1.0464179414
 H    0.4409685149   -2.7380459371   -2.1917392095
 H    1.8611181119   -2.6631334374   -1.1382887751
 H   -0.1582884815   -6.2850428747   -1.8073064052
 H   -0.4885461078   -4.7865419540   -2.8081554645
 H    1.9278898396   -4.4507693442   -3.2461780016
 H    2.3729256107   -5.9321856117   -2.2638207349