15

 C   -0.0397612392    1.5050628494    0.0094405769
 C    0.0323271126   -0.0043807518    0.0030030243
 O    1.0810897639   -0.6133267631   -0.0076649047
 C   -1.2709983284   -0.7601098447    0.0101636025
 N   -2.4149089848   -0.0661238046    0.0218460941
 C   -3.5404473640   -0.7777684072    0.0277979406
 C   -3.5280866909   -2.1722311819    0.0221428981
 N   -2.3916123331   -2.8730602851    0.0104873706
 C   -1.2657184013   -2.1598917362    0.0045523586
 H    0.9719718428    1.9108122423    0.0031237724
 H   -0.6006017051    1.8630207276   -0.8594156296
 H   -0.5869554394    1.8562096279    0.8897008422
 H   -4.4775055824   -0.2271809054    0.0373010823
 H   -4.4571246489   -2.7364173773    0.0271457769
 H   -0.3221844517   -2.6949373898   -0.0049517951