16

 N   -0.4880830685    0.3896897056    1.4472534785
 C   -0.1941742932   -0.5100773791    0.4166724282
 C   -0.9160512388   -1.3714650346   -0.3843458802
 N   -2.2772683014   -1.7149836658   -0.4153542794
 C   -3.3558347088   -1.0433977448    0.0641798527
 N   -3.2965633722    0.0289706410    0.7648220230
 N   -0.1052108127   -1.9960346091   -1.3027565828
 C    1.1015898960   -1.5310500179   -1.0790433115
 N    1.1002899470   -0.6254882307   -0.0639784042
 H   -1.5011846088    0.5454985411    1.4437820539
 H   -0.2223529248    0.0213335580    2.3569513235
 H   -2.4578427453   -2.4876209634   -1.0366637498
 H   -4.2903939994   -1.5414868024   -0.2163398556
 H   -4.2299709412    0.3452891446    1.0089684552
 H    1.9986601679   -1.8209494314   -1.6039291572
 H    1.8709116042   -0.0683446010    0.2655498156