19

 C   -0.0897127914    1.5020527052    0.0311239296
 C   -0.0606430383   -0.0050624715    0.0240638420
 C    1.1224418551   -0.7794715880   -0.6480341351
 O    2.0332920125   -0.4030264539    0.4410262173
 C    0.7716219218   -0.7869538307    1.0976356063
 C    0.6175144192   -2.0113823409    0.1540203174
 C   -0.8534901124   -2.2465609076   -0.1544296023
 C   -1.3553700812   -0.7715276007   -0.2217869592
 O   -2.2709853722   -0.4273107925    0.8099222961
 H    0.9038812589    1.8941463968    0.2624970015
 H   -0.4000542553    1.8947520767   -0.9441433513
 H   -0.8015188082    1.8667876932    0.7770665892
 H    1.4995136563   -0.7172782598   -1.6705857368
 H    0.7246850639   -0.7295750465    2.1851617696
 H    1.3014763877   -2.8483548737    0.2871335772
 H   -1.0023887260   -2.7906102593   -1.0929037337
 H   -1.3710200838   -2.7900304306    0.6422113889
 H   -1.7821347978   -0.5289652695   -1.2066953842
 H   -3.0984847989   -0.8894798668    0.6447679074