23

 C   -0.0578799483    1.5012299387   -0.4627406877
 C    0.0771588028    0.0603786648    0.0565564134
 C    1.1279223404   -0.0042222889    1.1750365856
 C   -1.3152269799   -0.4491618435    0.4840805802
 C   -1.5141995892   -1.9765720341    0.6955220175
 C   -1.0897738316   -2.8026236385   -0.5322028286
 N   -0.7504166837   -2.4481948011    1.8592946132
 C   -2.9721906682   -2.1889168376    0.9113582443
 N   -4.0952491470   -2.3682217930    1.1232270407
 H    0.9130387452    1.8909920057   -0.7846383616
 H   -0.7448481952    1.5629634882   -1.3132429436
 H   -0.4375132919    2.1669076090    0.3216618189
 H    0.4300244046   -0.5548675471   -0.7808554454
 H    0.8171654499    0.6092013021    2.0304044417
 H    1.2759106022   -1.0244990897    1.5309422378
 H    2.0868440360    0.3898623497    0.8218629346
 H   -1.6177335672    0.0625734910    1.4078723773
 H   -2.0445830599   -0.1457574359   -0.2756635729
 H   -0.0076208653   -2.7401917700   -0.6592462416
 H   -1.3601349026   -3.8541598568   -0.3981843620
 H   -1.5835504999   -2.4396806000   -1.4370456320
 H   -1.0485242071   -1.9541039097    2.6959274537
 H   -0.9400200841   -3.4334764734    2.0218956263