15

 O   -0.0770745005    1.4381952154    0.0874453783
 C   -0.0292909734    0.0674046302    0.0824971447
 C   -0.2822390127   -0.7829152651   -1.2153720165
 N    0.7049542951   -1.8230671592   -1.3071899529
 C    0.7088940336   -2.3051446467   -0.1197246454
 C    1.8052528689   -1.8923798990    0.8348399791
 C    0.6402557204   -0.8535752423    1.1615345097
 N   -0.4060895799   -1.8998813726    0.7997991193
 C   -1.1729650585   -0.9187354690   -0.0048254194
 H    0.6289141779    1.7766290569   -0.4755300521
 H   -0.6016545780   -0.2440607849   -2.0990547798
 H    1.9774230088   -2.5172930962    1.7131356553
 H    2.7283031351   -1.5581144477    0.3679734077
 H    0.5902937459   -0.4654982272    2.1803942776
 H   -2.2500690628   -0.8379544927    0.0455202444