20

 C    0.0020754438    1.5871843371    0.1501485060
 C    0.0196684592    0.0654955849    0.1504009481
 C    0.7526241285   -0.6785276882   -1.0304086935
 C    1.6778337103   -1.3335572014    0.0094938238
 O    2.3301013025   -0.2613649843    0.7096493989
 C    0.9967149349   -0.6308948103    1.1144851254
 C    2.3851180101   -2.6348352643   -0.0604730799
 C    3.8335133515   -2.6648011363   -0.3967432063
 N    3.3761832919   -2.9751149603    0.9686819608
 H    1.0207357101    1.9783761326    0.0779643702
 H   -0.5743177990    1.9741431887   -0.6967086472
 H   -0.4504406631    1.9782670244    1.0680292546
 H   -0.9899424832   -0.3378885078    0.2785601970
 H    0.1058368638   -1.3904620332   -1.5487867695
 H    1.2644299778   -0.0487510771   -1.7627071890
 H    0.8643686141   -0.9022985158    2.1563591235
 H    1.7596360660   -3.4675578495   -0.3757231197
 H    4.2422381745   -3.5059696652   -0.9490097987
 H    4.3270633203   -1.7126535614   -0.5695563183
 H    3.5183130759   -2.1468505628    1.5452193639