19

 C   -0.0740589647    1.5699524605    0.0097536565
 N    0.0101446747    0.1267288536    0.0433186780
 C   -1.2146288382   -0.6462962650    0.4845285887
 C   -0.2156779561   -1.6499104877    1.1061808341
 C    0.5762589303   -2.3112915409    2.2799286535
 C    1.6596314231   -1.7967695837    1.2214199078
 C    0.7546970131   -2.3929652180    0.1269163056
 C    0.7723650861   -0.4980581134    1.1631031085
 H    0.9038017906    1.9885794551   -0.2505097545
 H   -0.7888264149    1.8843543907   -0.7583057899
 H   -0.3927879606    2.0142008739    0.9725348281
 H   -1.8095595117   -0.0964191678    1.2304243655
 H   -1.8593843068   -0.9874639668   -0.3318257183
 H    0.5464799328   -1.7968718358    3.2438388676
 H    0.5128443026   -3.3969750596    2.3982911527
 H    2.7437190350   -1.9062209531    1.3238400808
 H    0.6715627892   -3.4832606523    0.1079811226
 H    0.8480281397   -1.9676073797   -0.8708830221
 H    0.7750119858    0.1257595800    2.0689840648