16

 C    0.0152017840    1.4501583427   -0.0765419643
 C    0.0362427809   -0.0493902322    0.1162405421
 O    0.8989986870   -0.7323497166   -0.8234214906
 C    1.5722829102   -1.4433553884    0.2273144478
 C    0.8361076210   -0.6377987832    1.3312572304
 O    1.6052992897    0.2446812166    2.1071539859
 C    0.0140247894   -1.4550418017    2.3057580088
 O   -0.7667858743   -2.3046414465    1.9631918528
 H    1.0170679236    1.8853483447   -0.0101741961
 H   -0.3843966116    1.6844321888   -1.0677842509
 H   -0.6218538021    1.9264056024    0.6750799147
 H   -0.9776339608   -0.4666454888    0.0743934140
 H    1.3424856583   -2.5148784600    0.2206241657
 H    2.6595233358   -1.2943040544    0.2116207193
 H    2.1893582813    0.7460305061    1.5296378096
 H    0.1942330876   -1.2003424697    3.3721312707