19

 C   -0.0874340793    1.5479639929    0.0467831785
 C   -0.0235169080    0.0236877280    0.0424475534
 C    0.7528913792   -0.5648907897   -1.1557619121
 C    2.0838325028   -0.4417967457   -0.3795852930
 O    2.5430525914   -1.7401035702   -0.8104486116
 C    1.1137262205   -2.0637649950   -0.8478421493
 C    0.8299030745   -2.1287918304    0.6754976162
 O    1.6731433675   -3.0250933257    1.3450181945
 C    1.1182343248   -0.6191208011    0.8822202195
 H    0.8905070487    2.0011695715   -0.1473924987
 H   -0.7785947837    1.9126525595   -0.7209984144
 H   -0.4382625313    1.9201336000    1.0148944042
 H   -1.0208428231   -0.3899872387    0.2312661280
 H    0.6202838538   -0.2619796174   -2.1938279648
 H    2.8269560361    0.3501930219   -0.4321690742
 H    0.8749793305   -2.9111680142   -1.4883641244
 H   -0.2000910654   -2.3927210385    0.9277496721
 H    2.5367189599   -2.9215015620    0.9191818382
 H    1.3718832310   -0.2854153052    1.8867797380