17

 C    0.3829274189    0.7439016069    0.6547919235
 C   -0.3819957340    0.2833900158   -0.5969974352
 C    0.5219890734   -0.1941684777   -1.6847790248
 N    0.6522625375    0.2969475109   -2.8461126167
 C    1.6529242827   -0.5006694655   -3.5518458774
 C    2.0710054975   -1.6020647746   -2.5175288135
 O    1.2932298036   -1.2843419034   -1.3501346726
 C    1.7727034482   -2.9686488905   -2.9560656378
 N    1.5528219142   -4.0380979426   -3.3335678024
 H    0.9877516015   -0.0681166626    1.0658101183
 H    1.0468375222    1.5817161577    0.4217704212
 H   -0.3195437669    1.0723224714    1.4251414328
 H   -1.0583220463   -0.5378614308   -0.3317541495
 H   -0.9854791120    1.0940200483   -1.0099031360
 H    1.2309514097   -0.9330421371   -4.4629793065
 H    2.5067532404    0.1198995677   -3.8394254183
 H    3.1300111796   -1.5450222239   -2.2497325550