15

 C    0.1523109297    1.4792047744    0.1084939203
 C   -0.1648107895   -0.0017525401   -0.1277431540
 C    0.5826050755   -0.5865867173   -1.3080946629
 C    1.9882595853   -1.1078871699   -1.1388500777
 C    0.8497792235   -2.0667655777   -1.3951034368
 H    1.2207143171    1.6269312144    0.2975674670
 H   -0.1143763408    2.0835523866   -0.7657223833
 H   -0.4008303870    1.8741898179    0.9665278778
 H    0.0819498889   -0.5792424723    0.7729855292
 H   -1.2451963410   -0.1259050848   -0.2806764896
 H    0.3786099457   -0.0887850521   -2.2538720463
 H    2.7084478990   -0.9381205772   -1.9317081811
 H    2.4164053818   -1.0887114730   -0.1414114299
 H    0.5180150360   -2.6895310598   -0.5703103840
 H    0.7908821959   -2.5499501091   -2.3642880386