15

 O    0.4146253745    1.5140427907   -0.1002606219
 C    0.1131699746    0.1439419227    0.0396085604
 C    0.4718507755   -0.5979428567   -1.1909147488
 N    0.7900373900   -1.1633703993   -2.1474657540
 C    0.7740836002   -0.4848810701    1.2776620268
 C    1.0567335140   -1.9517277525    1.3149175895
 N    2.1636826622   -1.0001839577    1.1837639585
 C    0.4420965444    0.2094598242    2.4970233481
 C    0.1278898412    0.7786652621    3.5070148933
 H    1.3723310337    1.6240971754   -0.0574523033
 H   -0.9743606614    0.0970197720    0.1610648757
 H    0.9965126634   -2.4572922502    2.2730243235
 H    0.7746557011   -2.5477626729    0.4517319199
 H    2.4741491505   -0.9802017644    0.2124278701
 H   -0.1353397540    1.2843682566    4.4032976022