16

 O    0.5627961582    1.1935498609    0.3305752082
 C    0.1909766046   -0.0726930577    0.0103465983
 C   -0.4244650999   -0.6307575024   -1.0834576819
 C   -0.5108340211   -2.0357036571   -0.8201077077
 C    0.0431013351   -2.2757046817    0.4104010170
 C    0.1657699949   -3.5384675000    1.2149943396
 C    1.4212826411   -3.6321016844    1.9602169289
 C    2.4433317412   -3.6635682976    2.5925528181
 N    0.4609983204   -1.0558053302    0.9167439284
 H    0.3497798913    1.7656225192   -0.4125482395
 H   -0.7683848579   -0.1069780321   -1.9618064791
 H   -0.9473313724   -2.7812701209   -1.4676771232
 H   -0.6665312179   -3.6353436274    1.9294487277
 H    0.0737490608   -4.3916697229    0.5332909983
 H    3.3522342509   -3.7166781885    3.1389738235
 H    0.9992643906   -0.9305076973    1.7578265834