17

 C    1.1128091892    1.1751218779   -0.6404443732
 C    0.1542563121    0.1489849594   -0.0934725583
 N    0.7175639843   -1.1187385448    0.3921039456
 C    0.0626983665   -0.2189539962    1.3571470905
 C    0.9238581191    0.3535084167    2.4094654384
 C    2.2733325492    0.1934621373    2.6276171437
 N    2.5103678378    0.9333961405    3.7358346335
 N    1.3876543913    1.5169069780    4.1936432021
 N    0.4257286110    1.1656356693    3.3900510796
 H    2.0153924139    1.2371305456   -0.0285027215
 H    1.4112826736    0.9170753683   -1.6620429645
 H    0.6442217984    2.1645753020   -0.6623298142
 H   -0.7919105175    0.0856029255   -0.6303443662
 H    0.1104921766   -1.9013039041    0.1666960945
 H   -0.9335030809   -0.4754256745    1.7107775992
 H    3.0293584167   -0.3710987986    2.1112574806
 H    3.3767015588    1.0776170777    4.2292639603