16

 O   -0.8435147150    0.9765801406   -0.4081613366
 C    0.2646405068    0.8184774410    0.0238293129
 C    1.3937743308    1.8511624136   -0.0890932695
 N    2.6028519584    1.2524122336   -0.7929687707
 C    2.5742152774    2.3922719652   -1.7491786603
 C    1.3164227682    2.3070265835   -2.5470342835
 C    1.2799531044    2.9373189592   -1.1743021243
 C    1.6929202627    2.3574097085    1.2374448474
 C    1.9226316367    2.7315105757    2.3576874777
 H    0.5772013957   -0.1130093778    0.5440320492
 H    3.4063373514    1.3183650764   -0.1748776867
 H    3.4827541180    2.8868040677   -2.0682750756
 H    1.2249114769    3.0236194657   -3.3569368926
 H    0.8565972414    1.3419672040   -2.7328368005
 H    0.9404801184    3.9463965917   -0.9894268276
 H    2.1311294278    3.0779466512    3.3401379706