22

 C    0.1714626095    0.7658882253   -1.2763013505
 O   -0.1632669246   -0.4889255639   -0.7324822347
 C   -1.3739368800   -0.5111929192    0.0161663176
 C   -2.6161760067   -0.4542155954   -0.8791732767
 C   -1.3291979120   -1.8121014346    0.7925128487
 C   -0.7076017321   -2.0245494115    2.1115885437
 C   -0.8642988275   -0.8288583057    3.0473910662
 C   -2.3854850207   -0.9382199252    2.7807623992
 N   -2.2218041185   -2.1658923973    1.9159997360
 H    1.1638311871    0.6666299931   -1.7236208574
 H   -0.5291934408    1.0934911734   -2.0581222090
 H    0.2110132844    1.5482465792   -0.5013859967
 H   -1.3821418423    0.3521843365    0.6977866510
 H   -3.5229527736   -0.5461415720   -0.2736888177
 H   -2.6746392329    0.4863657664   -1.4339330563
 H   -2.5988789604   -1.2795322831   -1.5977986360
 H   -1.2349480466   -2.6635869423    0.1197906655
 H   -0.0805856059   -2.8880984512    2.3116845631
 H   -0.6046225786   -1.0627663252    4.0811706664
 H   -0.3472172123    0.0916704537    2.7598005154
 H   -2.9621243598   -1.2077365907    3.6675495267
 H   -2.8829676355   -0.0965123503    2.2888567157