18

 O   -0.1180549055   -0.0239734595   -0.1292897726
 C   -0.0334933578    1.1669370701    0.0200059057
 C    1.2786404269    1.9259483974    0.0951004352
 C    1.3367797327    2.8732432662    1.3013939914
 C    2.7286264988    3.5098202009    1.3580956356
 C    3.8026799719    2.4283925336    1.5289118433
 C    3.6144426702    1.1699597824    0.6824988066
 O    4.4889005337    0.3322854552    0.5798863020
 N    2.3905364422    1.0074975570    0.0884416745
 H   -0.9353490899    1.8151189218    0.0832225720
 H    1.2796559810    2.5612387431   -0.8138661325
 H    0.5544254751    3.6328815929    1.2055055712
 H    1.1419378111    2.3088748207    2.2219360056
 H    2.9016221696    4.0715606480    0.4312799506
 H    2.7878122010    4.2323490981    2.1780858175
 H    4.8049731361    2.8108498176    1.3201807918
 H    3.8234145810    2.0793838886    2.5691066098
 H    2.2412514418    0.1164659659   -0.3664525977