18

 C   -0.2189072242    1.6112099953   -0.0132946828
 C   -0.0320782760    0.0883013332    0.0013671512
 C    1.1512107392   -0.3973332235   -0.9027385978
 C    2.0685654224   -0.4703808509    0.3559939555
 C    0.7833648852   -0.4218513342    1.2375763948
 C    2.9156302245   -1.7075612462    0.4874067574
 O    4.1010926297   -1.7167860875    0.6910675198
 C   -1.3058236893   -0.5865430173   -0.2252766402
 N   -2.3082648320   -1.1348161726   -0.4038397727
 H    0.7398401240    2.1097509532    0.1571924100
 H   -0.6139206553    1.9450717421   -0.9768364026
 H   -0.9141906500    1.9250561248    0.7702828270
 H    0.9594447577   -1.3862667088   -1.3271304233
 H    1.4579350000    0.2801537140   -1.7014225330
 H    2.7040707464    0.4082375448    0.4752809438
 H    0.8032819539    0.2365191537    2.1077004904
 H    0.4647059601   -1.4192409478    1.5514908934
 H    2.3405188735   -2.6588752124    0.3776307590