18

 C   -0.0246590372    1.3875099207    0.0813161170
 N   -0.0269591557   -0.0479295842   -0.1002452628
 C    0.6368787304   -0.6218100166   -1.1391068234
 N    1.2229353431    0.0596869600   -2.0508898984
 N    0.5916161593   -2.0308879758   -1.0946363058
 C    1.1368339895   -3.0448430559   -2.0061443826
 C    0.5721846666   -4.1249093837   -1.0355533270
 C    0.0763369000   -2.9408700038   -0.1885194513
 O   -0.5163191208   -2.7833265608    0.8499098254
 H    0.9818587992    1.7761254113    0.2799626383
 H   -0.3996736801    1.8882685801   -0.8160479169
 H   -0.6738337699    1.6322495643    0.9244438920
 H   -0.3754472656   -0.6555597009    0.6257386871
 H    1.6422077498   -0.5429004465   -2.7540191127
 H    0.6860574267   -3.0251482885   -3.0021565177
 H    2.2268098534   -3.0157558362   -2.0904650477
 H   -0.2240657504   -4.7517547503   -1.4399199732
 H    1.3164646718   -4.7506119531   -0.5406418403