19

 C   -0.2622028017    1.6863644231   -0.2326436171
 C   -0.1396846316    0.1788150350    0.0054207577
 C    0.8344647375   -0.5127555667   -0.9495335799
 C    2.3277666001   -0.3092323246   -0.7001516120
 O    2.8289343954    0.6089744792   -0.1040894297
 C    3.0887273635   -1.5006548143   -1.2966299930
 C    2.0680356312   -2.6516317485   -1.3719912759
 C    0.6971099751   -2.0346945478   -1.0557525883
 O   -0.3203698314   -2.6556962950   -0.8945170560
 H    0.7039779411    2.1798025404   -0.1042776177
 H   -0.6230814790    1.8973650501   -1.2460802818
 H   -0.9717998108    2.1326153078    0.4705376891
 H    0.1898868055   -0.0072794410    1.0341249173
 H   -1.1118789685   -0.3128415717   -0.1049300550
 H    0.6631696550   -0.1509336487   -1.9804877707
 H    3.4433137078   -1.2068939981   -2.2917829324
 H    3.9734439474   -1.7157750370   -0.6942352554
 H    2.0284376009   -3.1404265272   -2.3499835740
 H    2.2614157225   -3.4405215348   -0.6386007452