18

 C    0.0186724978    1.4610069529   -0.1461520391
 C   -0.0064744416   -0.0650165789    0.0735837418
 C    0.7110392455   -0.4349411491    1.2955322057
 C    1.3193020958   -0.6987907760    2.2970364340
 N   -1.3712986610   -0.5896156343    0.0732462702
 C   -2.2689310159   -0.5151920890    1.1119407309
 C   -3.4751538779   -1.0072301263    0.6714324324
 C   -3.3074747402   -1.3880850627   -0.6887118862
 C   -2.0032584435   -1.1164708635   -1.0286850959
 H    1.0504530054    1.8178517286   -0.2014179602
 H   -0.4963576967    1.7071104005   -1.0782880731
 H   -0.4834939727    1.9718351326    0.6787039973
 H    0.4975668275   -0.5437190409   -0.7743083909
 H    1.8534633174   -0.9510333867    3.1798617421
 H   -1.9603995620   -0.1402044910    2.0741444681
 H   -4.3728413066   -1.0968704765    1.2638909263
 H   -4.0516944098   -1.8229348896   -1.3381680079
 H   -1.4652147013   -1.2527011599   -1.9538364252