16

 O    0.2181398578    0.0370527365    0.0799165640
 C    0.1248206163    1.2287932153    0.1331417704
 C   -1.0925078590    2.1936848230    0.1121934984
 C   -0.0881155456    3.3425820198   -0.0622768601
 C    0.8769493879    3.4095698082    1.0678706673
 C    0.5392471819    3.1075795599    2.5267326468
 C    1.7433059666    2.8617414120    3.3207448385
 N    2.7048484459    2.6848342208    3.9360716977
 C    1.1166663621    2.3511304733    0.0007919991
 H   -1.6876934189    2.0022342157   -0.7852419752
 H   -1.7613892888    2.2186527594    0.9768525454
 H   -0.2079557038    4.1599702998   -0.7610557933
 H    1.5921573498    4.2231193267    0.9741960728
 H    0.0052273268    3.9584415288    2.9668722552
 H   -0.1194613923    2.2394339149    2.6194445915
 H    2.0450402935    2.3216231956   -0.5557882484