17

 C    0.0047450977    1.5783572660    0.0921328122
 C    0.0073126465    0.0431804570    0.0935855986
 O    0.7608918797   -0.4868504831    1.1782970266
 C   -1.3598462760   -0.4951029801    0.0734659771
 C   -2.4872136731   -0.9186616582    0.1075016748
 C   -3.8376605122   -1.5023218532    0.1200899822
 N   -3.8989987620   -2.9694667920    0.0305669005
 C   -4.5676123428   -1.0635547990    1.3277426521
 N   -5.1274419320   -0.7123554469    2.2744045602
 H    1.0357657919    1.9402940203    0.1106978642
 H   -0.4963061084    1.9675612118   -0.7987821007
 H   -0.5211764218    1.9618326217    0.9723341015
 H    0.5339826640   -0.3091114965   -0.8015483237
 H    0.2945596356   -0.2653864039    1.9926134548
 H   -4.3967275826   -1.1080888931   -0.7395961975
 H   -3.4419278345   -3.2530755718   -0.8318144770
 H   -3.3519320502   -3.3703886691    0.7880038240