18

 C   -0.0253071571    1.5227548079    0.0044792848
 C    0.0288094729    0.0128590614    0.0008884486
 C   -0.6020745175   -0.7788511582    1.1351076155
 C    0.8945120932   -0.7932630486    0.9396702309
 O    1.4852165841   -1.8709908538    0.2531361628
 C    1.1675120515   -1.8002844803   -1.1167060448
 C   -0.2394806360   -2.1093707793   -1.5549449925
 C    0.1970742307   -0.6701638539   -1.3472951816
 H    0.8008865915    1.9510384781   -0.5747859501
 H   -0.9632014072    1.8888061165   -0.4290989868
 H    0.0422579241    1.9177482211    1.0227504086
 H   -0.9755355397   -0.2021167336    1.9761725765
 H   -1.1700353054   -1.6777505618    0.9302919983
 H    1.5518671686   -0.3616622461    1.6882052733
 H    2.0114390026   -2.0336972698   -1.7573312839
 H   -0.3681014978   -2.4308971978   -2.5837084887
 H   -0.9203580850   -2.5790396283   -0.8561697544
 H    0.2710776165   -0.0205200135   -2.2115957964