21

 C   -0.0446616138    1.5531666706   -0.1346467863
 C    0.0640440696    0.0352379395   -0.0144084891
 C    0.8857604175   -0.6459677328   -1.1401121843
 C    1.3601133384   -1.9745640939   -0.5579527166
 C    2.5828083687   -1.9871158402    0.2878458717
 C    1.2364885800   -1.8656270503    0.9843543919
 C    0.7178631316   -0.4667760118    1.2981646531
 C    0.7427337194   -3.0457594525    1.7229151085
 O    1.1229685509   -4.1807502309    1.5446445497
 H    0.9460584510    2.0214977525   -0.0968922296
 H   -0.5153549933    1.8461006357   -1.0790701397
 H   -0.6436755343    1.9758858500    0.6789012965
 H   -0.9466734895   -0.3934425241   -0.0518342262
 H    0.2882650599   -0.7901723553   -2.0445978217
 H    1.7412591102   -0.0174211881   -1.4198361760
 H    1.0587204662   -2.9074092478   -1.0208266441
 H    3.0864890263   -2.9378746610    0.4255013955
 H    3.2200126760   -1.1075792553    0.2990295278
 H    1.5345794987    0.1997388218    1.6025875221
 H    0.0011840804   -0.4837609263    2.1269284253
 H   -0.0485736740   -2.8224797997    2.4757053915