23

 C   -0.1339359095    1.5691523858   -0.1544407198
 C    0.0447437999    0.0519142025   -0.0087279575
 C    0.7577049143   -0.5282687831   -1.2321313505
 O   -0.0344188021   -0.2688764211   -2.3821454014
 C    0.7985847849   -0.3448785271    1.2735639270
 C    0.0574732802   -0.0307107193    2.5685963207
 C   -1.1684292564   -0.9074579434    2.9211537169
 O   -0.5580405932   -1.3537893033    4.1487398807
 C    0.6467395812   -0.6110845712    3.8750689361
 H    0.8365920161    2.0799626500   -0.1188170911
 H   -0.6026304081    1.8020225969   -1.1127439235
 H   -0.7592209634    1.9856350499    0.6403211965
 H   -0.9514374132   -0.4126655868    0.0164084740
 H    1.7570730917   -0.0701149679   -1.3261518653
 H    0.9050484693   -1.6113189781   -1.0928081085
 H    0.4471728638   -0.5739448878   -3.1560636648
 H    1.0085591940   -1.4234480192    1.2495358980
 H    1.7766209825    0.1575372013    1.2888923904
 H   -0.1525330437    1.0384545391    2.6459921179
 H   -2.1135143887   -0.3806931316    3.1008964503
 H   -1.3552559916   -1.7409079525    2.2294516764
 H    1.5144982569   -1.2715807723    3.7382074308
 H    0.8741526651    0.1098759092    4.6700411668