16

 C    0.0023862363    1.4772182503    0.0056009383
 N    0.0190212328    0.0342350264    0.0102448240
 C   -0.0377191178   -0.8083782651   -1.0922453112
 N    0.0019070097   -2.0628288722   -0.8687204357
 C    0.1054409191   -2.1964969645    0.6065956894
 C    1.2795465731   -2.9613620056    1.0050870077
 C    2.2494679865   -3.5879545457    1.3326055385
 C    0.1073695858   -0.7552124885    1.1576155168
 N    0.1584639599   -0.4203627129    2.3783859914
 H    0.9146749999    1.8826840599    0.4586285918
 H   -0.0593978088    1.8324672152   -1.0247598794
 H   -0.8616022677    1.8648354173    0.5584303634
 H   -0.1182406205   -0.3695976704   -2.0827629232
 H   -0.7962823182   -2.7067399955    0.9700098069
 H    3.1045577933   -4.1441551682    1.6274049645
 H    0.1356206867    0.5925334895    2.5034845568