20

 C    0.0153625354    1.5684114213    0.0094535367
 C    0.0389321291    0.0385924096    0.0103713995
 C    0.7268263079   -0.5227344968   -1.2486653903
 C    1.0484871662   -1.9910379837   -1.1392598512
 C    0.9825373820   -2.6776018374    0.0028187192
 C    0.5942500145   -2.0514432391    1.3203953328
 C    0.7230119089   -0.5227032942    1.2732715962
 O    2.0905007176   -0.1205435689    1.3503680334
 H    1.0320677089    1.9607405419    0.1065688860
 H   -0.4196627141    1.9604217331   -0.9160825699
 H   -0.5748649888    1.9558535647    0.8468815356
 H   -0.9952122852   -0.3334439697    0.0212643647
 H    0.0924784946   -0.3458511788   -2.1265543381
 H    1.6499680321    0.0430675031   -1.4482193229
 H    1.3539667740   -2.4957158764   -2.0532840277
 H    1.2201669837   -3.7387254303    0.0082496166
 H   -0.4347296221   -2.3345283893    1.5843328010
 H    1.2298551182   -2.4347011907    2.1277502362
 H    0.2540774279   -0.0866074766    2.1626467617
 H    2.5819494692   -0.6619645818    0.7222172807