19

 C    0.1182925694    1.6342223128   -0.0727508057
 C   -0.0042839369    0.1055458154   -0.0220754689
 C    0.6625591855   -0.5724456258   -1.2123512643
 O    2.0933385868   -0.4574578628   -1.1596530932
 C    2.7709286142   -0.4344115403    0.0093463931
 O    3.9649404343   -0.4061279868    0.0207126999
 O    2.0676001785   -0.4041731554    1.1618716231
 C    0.6275160644   -0.5426570108    1.2126414976
 C    0.1971589357    0.0095869924    2.5610862117
 H    1.1599215078    1.9605803414   -0.0097755916
 H   -0.2939404758    2.0149170256   -1.0120891238
 H   -0.4316009219    2.1053442621    0.7455520704
 H   -1.0651602649   -0.1734195768   -0.0369457419
 H    0.4011693914   -1.6376825153   -1.2490012880
 H    0.3737602702   -0.1168786258   -2.1629073042
 H    0.4060094044   -1.6189009247    1.1824314389
 H    0.4579511617    1.0661485472    2.6566354889
 H   -0.8844502013   -0.1005847642    2.6859478558
 H    0.6969138864   -0.5374457382    3.3642386822