16

 C    0.0534217755    1.5452942181    0.0160461096
 C    0.0132311649    0.0408497561    0.0040437563
 C   -1.1782612997   -0.6449764343    0.0355857383
 N   -2.4227005610   -0.0978580648    0.1120812575
 C   -1.1773684806   -2.1114215263    0.0190586317
 O   -2.2009977943   -2.7899914221    0.0244164371
 N    0.0821468769   -2.6609462760   -0.0121215075
 N    1.2776347380   -2.0307133076   -0.0373618597
 C    1.2103974831   -0.7279754585   -0.0302832259
 H    1.0815018265    1.9144077405    0.0413090950
 H   -0.4259707828    1.9724704164   -0.8749983091
 H   -0.4705422399    1.9516835539    0.8900214704
 H   -2.5728080776    0.8544998040   -0.1723891961
 H   -3.1728711538   -0.7590825198   -0.0366252671
 H    0.1303656470   -3.6705652374   -0.0278023169
 H    2.1709751679   -0.2217268522   -0.0505786736