16

 N   -0.1642898757    1.4522810957    0.0068294743
 C    0.0169005601    0.0351309789   -0.0144861228
 C   -1.0538341963   -0.8349433597    0.0041230905
 N   -2.4052086247   -0.5030852133    0.0441785181
 C   -3.4389585056   -1.3807007366    0.0603107909
 O   -3.3232682607   -2.5959002068    0.0425798125
 N   -0.5911128425   -2.1168034970   -0.0231359616
 C    0.7845432510   -2.0919060129   -0.0593235445
 C    1.1907419087   -0.7778445485   -0.0553191169
 H    0.2925437327    1.8696362723    0.8127311076
 H    0.2486480529    1.8884655021   -0.8126760328
 H   -2.5799081477    0.4925467925    0.0606690948
 H   -4.4178054561   -0.8704209762    0.0925537528
 H   -1.2175129545   -2.9074713389   -0.0168650281
 H    1.3497697773   -3.0087512376   -0.0847724026
 H    2.2122642312   -0.4293620041   -0.0785246623