17

 N   -0.0297721814   -1.0945266160   -0.1246038085
 C   -0.0191221899    0.0616513822   -0.0705843491
 C    0.0131437514    1.4940730973   -0.0010788879
 C    0.5317214687    2.1665165761    1.2695449510
 C    1.3536814364    2.2026936828    0.0294689384
 C    2.7648999287    1.6013309053   -0.1766028369
 C    3.1095220485    2.8682262809   -0.9773877317
 N    2.1571327265    2.9229980789   -2.1105855235
 C    1.7415762748    3.4257157688   -0.7751173195
 H   -0.7920364935    1.9886631275   -0.5341148129
 H    0.0163624869    3.0685681442    1.5827684555
 H    0.8477987377    1.5181565789    2.0794052006
 H    3.3205626884    1.5167001035    0.7603215004
 H    2.8187461097    0.6628352850   -0.7324637929
 H    4.0626062168    3.3789689252   -1.0216504187
 H    2.4045107470    3.7398307087   -2.6699113487
 H    1.4062432334    4.4458490708   -0.6322310855