17

 C    0.0225258003    1.5287468499   -0.0242937163
 N    1.2579905611    0.7325680839    0.0558784103
 C   -0.0505229561    0.0419715837    0.0027995150
 C   -0.4689819186   -0.7638860393    1.1867679585
 C   -0.9981803485   -1.9336210277    0.8139191610
 C   -1.0628708047   -2.0630205922   -0.6724150895
 C   -1.9513125202   -1.0512346675   -1.3736979788
 C   -0.4792544274   -0.7650922177   -1.2044503881
 H   -0.2068947372    2.1044956196    0.8688806186
 H   -0.2289118377    2.0253788467   -0.9583927951
 H    1.7012928015    0.6868951040   -0.8595324969
 H   -0.3546239765   -0.4013830715    2.2008844206
 H   -1.3771426878   -2.6950561588    1.4855401475
 H   -0.8844213210   -3.0211841329   -1.1476485306
 H   -2.2903337623   -1.2914843093   -2.3764085371
 H   -2.6640341541   -0.4993566227   -0.7698372699
 H    0.1485312894   -0.7472235481   -2.0892688292