15

 O    0.0748690854    1.3803953531    0.1389504309
 C    0.0641956357    0.0321360020   -0.0083468112
 C    0.0837276770   -0.7933551273   -1.1075389002
 C    0.0556420984   -2.1311807598   -0.5930570594
 N    0.0642102011   -3.2767355166   -1.4035143727
 C    0.0386664599   -4.5665004101   -0.9679502723
 O    0.0045109070   -4.9168643856    0.1935241246
 C    0.0204755382   -2.0746321215    0.7783972675
 N    0.0265587420   -0.7279654573    1.1172552294
 H    0.1048697638    1.7821302984   -0.7342192481
 H    0.1139082970   -0.4901932586   -2.1428761042
 H    0.0918305426   -3.1294295026   -2.3999168703
 H    0.0529672313   -5.2785729347   -1.8163353717
 H   -0.0072352531   -2.8559127256    1.5128304268
 H    0.0061476337   -0.3547792538    2.0497436409