17

 C   -0.1272457061    1.6641358008    0.0902406609
 C   -0.3049682841    0.1752383253    0.3740692498
 C   -1.5873231283   -0.3935882719   -0.1794939524
 O   -2.4505690366    0.2394844729   -0.7396151562
 C   -1.7613391879   -1.9238746729   -0.1179863486
 O   -0.8537119653   -2.6791854472   -0.3724603477
 C   -3.1587544517   -2.4382207202    0.2853410991
 C   -3.6273757237   -3.7126107766   -0.3624540428
 O   -3.7465627466   -1.8325339411    1.1488805643
 H    0.8002830148    2.0314696033    0.5367300391
 H   -0.0918132901    1.8549983675   -0.9855379396
 H   -0.9612150261    2.2413923282    0.4973075782
 H    0.5187102579   -0.4303613992   -0.0243861833
 H   -0.3071619817   -0.0318010997    1.4548112296
 H   -2.8272411308   -4.4578761395   -0.3397465000
 H   -4.5227541125   -4.0815932881    0.1384317010
 H   -3.8499672412   -3.5186341314   -1.4188903313