21

 C    0.0275551202    1.5482974120   -0.0432954262
 C    0.0151411325    0.0431891858   -0.0912521959
 C    0.4544199342   -0.8204900679   -1.2874575150
 C   -0.2886176675   -1.9663668156   -0.5525739289
 C    0.6152806529   -2.1711438926    0.6792452044
 C    0.3146778975   -0.7688701614    1.2378303290
 O   -1.1144012429   -0.8787254570    1.5112788970
 C   -1.2550109169   -0.8427683350    0.0823573616
 C   -2.6386230656   -0.6061076802   -0.4409506045
 H    1.0515425837    1.9373269057    0.0015749708
 H   -0.4508883829    1.9801606789   -0.9292851654
 H   -0.5071420276    1.9101993646    0.8414035587
 H   -0.0515834398   -0.4963334859   -2.2022723002
 H    1.5208362689   -0.9590698490   -1.4917998011
 H   -0.6729395156   -2.8388959049   -1.0787848978
 H    0.2756893682   -2.9407475919    1.3753971584
 H    1.6610668893   -2.3477713994    0.4119914775
 H    0.8907737085   -0.3641749404    2.0698760759
 H   -3.0531260556    0.3267182014   -0.0466722297
 H   -2.6358313215   -0.5523383211   -1.5340477472
 H   -3.3021269699   -1.4260626061   -0.1451941815