23

 C    0.0079169932    1.5698558968   -0.0274882402
 C   -0.0267238823    0.0685599685    0.2623412384
 O    0.3425862489   -0.2094900858    1.6143223800
 C   -1.3815144463   -0.5472191369   -0.0643347871
 C   -1.8173853881   -0.6748153764   -1.5365812480
 O   -2.1368858652   -2.0663231239   -1.3759297330
 C   -1.5756810121   -2.0964921941   -0.0244254790
 C   -0.3094869230   -2.9451710799    0.0040173278
 C   -2.6098489045   -2.5928881001    0.9748721341
 H    0.9853859382    1.9834349439    0.2347091027
 H   -0.1834579938    1.7761169808   -1.0858186452
 H   -0.7566094298    2.0965795799    0.5576486750
 H    0.7500676409   -0.4224302750   -0.3345260270
 H   -0.2804191313    0.2512268647    2.1878011408
 H   -2.1467509828   -0.0475671243    0.5427396048
 H   -2.6843703583   -0.0824985578   -1.8510830012
 H   -1.0065090902   -0.5197215124   -2.2641184477
 H    0.3824701030   -2.6511204522   -0.7897608316
 H    0.2027196332   -2.8449724187    0.9648439323
 H   -0.5675900846   -3.9970380934   -0.1541737742
 H   -2.8652114430   -3.6387630490    0.7756512706
 H   -2.2172352957   -2.5235505461    1.9952982408
 H   -3.5266418064   -1.9997063783    0.9107163570