23

 C   -0.5952361605    1.4702594195   -0.1339426150
 O   -0.5176309600    0.0718735167   -0.2513860268
 C    0.4585965766   -0.3462071052   -1.1876213068
 C    0.4657421779   -1.8551116705   -1.1937823663
 C   -0.3679457161   -2.7416194981   -2.0730147360
 C   -0.4445470068   -2.2135432806   -3.5125891331
 C    1.1130066309   -2.3542807777   -3.6320616049
 C    1.9749366776   -1.2090077993   -4.1532986231
 C    1.1685010124   -2.7796397061   -2.1547186478
 H    0.3591539560    1.9089603863    0.2007428152
 H   -0.8717054914    1.9488989945   -1.0876867852
 H   -1.3652119871    1.6960799235    0.6081967505
 H    0.2306203193    0.0738575428   -2.1782354704
 H    1.4516164609    0.0396925130   -0.8962567777
 H    0.5226352753   -2.2361809354   -0.1752590067
 H   -1.0401488444   -3.4802770554   -1.6533488300
 H   -0.9786509452   -2.8815434256   -4.1914360235
 H   -0.8595127286   -1.2073032511   -3.6334555013
 H    1.3206025581   -3.2414816405   -4.2402541805
 H    1.8156949187   -0.2789791787   -3.6013717002
 H    3.0390726471   -1.4595833572   -4.0762744052
 H    1.7588371810   -1.0094272164   -5.2091780648
 H    1.8459085384   -3.5369888685   -1.7744348404