15

 O    0.0675194554   -0.0405868468    0.2196694804
 C    0.0749584042    1.1211821483   -0.1036198707
 C    1.2893593472    1.9777670947    0.0016473507
 C    2.4902631212    1.4983587958    0.8340386381
 N    3.3538900303    2.7046909375    0.8028192775
 C    2.5809771423    3.6398393588    0.4251756714
 C    2.6108747291    4.1200701537   -1.0115955317
 C    1.3754262618    3.1484044631   -1.0306022065
 N    1.0857980225    3.3858410629    0.4004951361
 H   -0.8331794126    1.6260341401   -0.4976316926
 H    2.1532201719    1.1805967514    1.8291278720
 H    3.0573156248    0.6748174231    0.3931970317
 H    2.2415793006    5.1275062420   -1.2197551157
 H    3.5208046104    3.8895775230   -1.5624939029
 H    0.5810893811    3.2522650324   -1.7685719179