16

 C    0.4009149413    1.4228385302   -0.3070337583
 C   -0.0024326210   -0.0102877096    0.0436780749
 O    0.3233473455   -0.9038133398   -1.0349912173
 C    1.3124314158   -1.8236223333   -0.6382410938
 C    2.6554276073   -1.5806444053   -1.3355466339
 O    2.9449169515   -0.5844525757   -1.9389645764
 C    1.4674024633   -1.6261946960    0.8553858085
 C    0.7258965267   -0.5899640859    1.2278484354
 H    1.4728068309    1.4710894856   -0.5132933488
 H   -0.1377230440    1.7535907951   -1.1991114591
 H    0.1584196768    2.1042993464    0.5154612247
 H   -1.0926029440   -0.0519347487    0.1899767117
 H    0.9957823162   -2.8500342850   -0.8932249992
 H    3.3745841410   -2.4260305409   -1.2152591611
 H    2.1135673943   -2.2338128862    1.4749324628
 H    0.6387825483   -0.1838615408    2.2276748798