17

 C   -0.2419982677    1.5026273176   -0.2001821303
 C    0.1489118296    0.0238282893   -0.0378671843
 C    0.8713442213   -0.5240273273   -1.2207692954
 N    2.0921755460   -0.9762293839   -1.2692041035
 C    2.2697636059   -1.3494482179   -2.5854075529
 O    3.4346709558   -1.8720809233   -3.0120289045
 C    1.1467376218   -1.1113240523   -3.3106870580
 N    0.8087235901   -1.2984449736   -4.6397381065
 O    0.2260128166   -0.5649855767   -2.3990874114
 H    0.6452380556    2.1297437704   -0.3283916435
 H   -0.8849630842    1.6417703359   -1.0734910120
 H   -0.7836777291    1.8538998593    0.6826031762
 H    0.8031760647   -0.1111830686    0.8268164164
 H   -0.7540045587   -0.5738422813    0.1389609188
 H    4.0149467272   -1.9037178593   -2.2420521918
 H    0.6055244131   -0.4366660637   -5.1345285144
 H    0.0410184020   -1.9466290845   -4.7781608628