17

 C    0.0850561977    1.4161635286   -0.0383465233
 N    0.0258972520   -0.0292791355    0.1177853098
 C   -1.2296646054   -0.6186935606    0.0551561874
 C   -2.5057477159   -0.0861887885    0.0254830228
 C   -3.3702775155   -1.2133742340    0.0363467205
 C   -4.8662329397   -1.2222045407    0.0070683487
 N   -2.6926927041   -2.3534413293    0.0655108148
 N   -1.3848474924   -1.9681769090    0.0740254394
 H    1.1268806755    1.7375910188    0.0284626536
 H   -0.3362669706    1.7741471992   -0.9902946862
 H   -0.4682051719    1.8912590867    0.7772313700
 H    0.7168166732   -0.5096464580   -0.4431657246
 H   -2.7770226289    0.9555124133   -0.0152853534
 H   -5.2538131951   -0.7411109136   -0.8981491029
 H   -5.2313182414   -2.2511689041    0.0329034975
 H   -5.2863907082   -0.6837899028    0.8640164130
 H   -0.6693031192   -2.6657478905    0.1806595830