20

 C   -0.1449911331    1.5461699660    0.0264148218
 C    0.0556224516    0.0382767808   -0.0058756763
 C    1.1554541814   -0.5463705996   -0.9456174905
 C    1.8071085989   -1.2920096864    0.2594246691
 C    2.8333937286   -0.3967770413    0.9771221279
 O    4.0040131759   -0.1494742895    0.8619038127
 N    1.8534835391    0.1051142880    1.8136510256
 C    0.7413736892   -0.6563889153    1.2228898933
 C   -0.1150102394   -1.4187945919    2.2074676328
 H    0.7967547934    2.0693440382    0.2218838807
 H   -0.5280390362    1.9076867928   -0.9337728646
 H   -0.8636999078    1.8396465041    0.8003491649
 H   -0.9039477485   -0.4533552635   -0.1984281359
 H    0.7671535067   -1.2153744440   -1.7156976636
 H    1.8089704182    0.1862452559   -1.4264350042
 H    2.0050470099   -2.3594646487    0.1833067800
 H    1.8531586062    0.9567550544    2.3594579252
 H   -0.7354918315   -0.7353048067    2.8000477020
 H   -0.7882542600   -2.1062074530    1.6860657144
 H    0.5052135977   -1.9960348704    2.8996827946