18

 C    0.0652688026    1.2525818109   -0.2184868549
 C   -0.0636641134   -0.2648897521    0.0377222535
 C    0.6420809698   -0.6874270405    1.3089487210
 C    1.2571944801   -2.0292042744    1.4224428274
 N    2.1076358013   -0.8258283851    1.3222539021
 C   -1.5421348452   -0.6523358142    0.0786302695
 O   -2.1181538439   -0.9737127563    1.0945335667
 C   -2.2381783620   -0.5936787470   -1.1992210365
 C   -2.7959571206   -0.5552791959   -2.2655858131
 H    1.1196927705    1.5312751681   -0.2952489511
 H   -0.4380011369    1.5434697015   -1.1442704908
 H   -0.3757065638    1.8200019601    0.6070174519
 H    0.3830639608   -0.7927766036   -0.8172326897
 H    0.2422677822   -0.2333532816    2.2114664396
 H    1.2883337583   -2.5351079739    2.3825548494
 H    1.1937947706   -2.6940189862    0.5641435022
 H    2.4723373685   -0.7465468461    0.3747800160
 H   -3.3064634290   -0.5257675135   -3.1977437832