15

 N   -0.0705066298    1.2560842955    0.2053815156
 C   -0.0340189300    0.0142106869   -0.0286277385
 O    1.1245908880   -0.6885289040   -0.3641977578
 C    0.7591930519   -2.0324118705   -0.6172579521
 C    0.9291894228   -3.2330401266    0.3893525492
 C   -0.5912808862   -3.5816798055    0.1377538139
 C   -0.6920816095   -2.1402448794   -0.3035552383
 C   -1.1497066335   -0.9510967137    0.0909850989
 H    0.8603536289    1.6661641407    0.1213641150
 H    1.0822844356   -2.3134837224   -1.6251109938
 H    1.6682521136   -3.9928015039    0.1276124877
 H    1.0888912999   -2.8739425410    1.4069105403
 H   -0.7088459355   -4.3064144090   -0.6726409789
 H   -1.1972787321   -3.8887295491    0.9905491588
 H   -2.0793169340   -0.6848641678    0.5718431300