16

 C   -0.0537817223    1.5019085502   -0.0595277514
 C    0.0154624410    0.0120642530    0.0836774883
 O   -1.2188179851   -0.6455896724   -0.1833797182
 C   -1.2495145698   -1.7193665250    0.6486860156
 N   -0.2844453632   -1.8940581926    1.4592266957
 C    0.6482975570   -0.8373014095    1.1688319989
 C    1.2523771470   -0.8114209549   -0.2507589036
 C    1.2116860107   -1.9368882459   -1.1300311830
 C    1.1706610574   -2.8780470566   -1.8776625173
 H    0.9053638318    1.9509237239    0.2116849963
 H   -0.2825963151    1.7851758727   -1.0917869690
 H   -0.8276995357    1.9175125399    0.5929692947
 H   -2.1269797163   -2.3456395640    0.5517364496
 H    1.2488577169   -0.4631639510    1.9891854326
 H    2.1534344208   -0.2065411293   -0.3093530331
 H    1.1413244749   -3.7117245286   -2.5343682163