19

 C   -0.7855703454    0.8783803769    0.2335219191
 N    0.1374647207   -0.2464665398    0.1242694346
 C    1.5190194840    0.0174901236   -0.2335556987
 C    1.1704015539   -0.5527120854    1.1049583255
 C    1.5279807271    0.1792396939    2.3675009407
 N    0.9636830527    1.4881771710    2.6857435588
 C    0.6279643051    0.3367190046    3.5599294452
 C   -0.7314977024   -0.1247594405    3.5975349763
 C   -1.8542057227   -0.5471736371    3.6803039999
 H   -0.3255356503    1.8096993755    0.5812648081
 H   -1.2238685808    1.0391117993   -0.7574490952
 H   -1.5876005359    0.6166540209    0.9276469642
 H    1.9557126010   -0.6044032735   -1.0122232486
 H    1.8467997768    1.0579852730   -0.2414008600
 H    1.3042000667   -1.6275805839    1.2380931311
 H    2.5733068010    0.0133098584    2.6355750257
 H    1.6526212028    2.0767806907    3.1460413346
 H    1.1302942662    0.2981358534    4.5249180150
 H   -2.8487462707   -0.9148860609    3.7383452637