13

 O    0.2813812738    1.3217689734    0.0088399521
 C    0.0509893196   -0.0037405261    0.0092701631
 C   -1.0882924560   -0.7474068397    0.0741220974
 N   -0.6575404217   -2.0862139594    0.0317010603
 C   -1.0163582398   -3.4123680326    0.0377362023
 N    0.0604885963   -4.1627491604   -0.0402374791
 N    1.1826140871   -3.3517600350   -0.1018191709
 C    0.7069519847   -2.1316318108   -0.0563032752
 N    1.1569657492   -0.8307035936   -0.0689311924
 H   -0.5568366685    1.7920585351    0.0645454758
 H   -2.1190110421   -0.4527535654    0.1453611704
 H   -2.0325481579   -3.7635704957    0.0988188144
 H    2.1118414353   -0.5270875197   -0.1351925981