17

 C   -0.0121313024    1.5495916093    0.1899494373
 C    1.4113483630    1.9801459660   -0.1079382959
 C    2.1925121705    0.9757310285   -0.5133399218
 C    1.4294779843   -0.3299020683   -0.6015640736
 C    1.9257947611   -1.5562133623    0.1426604398
 C    1.1132698858   -1.8889220029    1.1517061275
 C   -0.0169493151   -0.9186503516    1.2549923061
 O   -0.9238137554   -0.8912388203    0.1108840063
 C    0.1405686671    0.0397602555    0.1533763992
 H   -0.3850300034    1.9201779450    1.1510127034
 H   -0.7128511829    1.9034265274   -0.5795395114
 H    1.7307441756    3.0118481583   -0.0116914995
 H    3.2365607052    1.0697079482   -0.7899735985
 H    1.2377717746   -0.5905356881   -1.6534258410
 H    2.7974415505   -2.1199962531   -0.1723446660
 H    1.2357178131   -2.7384971304    1.8126024529
 H   -0.4892715515   -0.6744525111    2.2019022351