20

 C    0.0268150045   -1.1925084355    0.0802124328
 C    0.0234332128    0.0073182409    0.0003228222
 C   -0.0394467726    1.4482732018   -0.0868437792
 C    0.4829256637    2.1148438178   -1.3216087746
 N    1.2822326202    2.1263748148   -0.1071728661
 C    1.4552197511    3.4137818074    0.5948894132
 C    0.3442728959    3.7749807899    1.5874796298
 C   -1.0385771651    3.5513647879    0.9718155160
 C   -1.2234221780    2.0605345410    0.6661589994
 H    0.0499988379   -2.2519211622    0.1463425284
 H    0.8689531643    1.5108677962   -2.1387667017
 H   -0.0061969393    3.0384190339   -1.6300665860
 H    2.4169203428    3.3709351938    1.1182370885
 H    1.5430318275    4.2065155668   -0.1593306149
 H    0.4372073061    3.1545697587    2.4883144684
 H    0.4775980943    4.8145490472    1.9054882578
 H   -1.8280225886    3.8776998601    1.6565548936
 H   -1.1487200523    4.1566540767    0.0629818798
 H   -2.1432656365    1.8750429140    0.1006598161
 H   -1.3284306487    1.5205742688    1.6143002466