18

 O   -0.0126218156    1.4506441576   -0.0740870399
 C    0.0320388310    0.0454063996    0.0081721586
 C   -0.0185385866   -0.6290776873    1.3959803019
 C   -1.5327375544   -0.1892352978    1.5293198838
 C   -2.2217880245   -1.3198166790    2.2728292135
 C   -2.9848264476   -2.3187201519    1.4781472711
 N   -1.5439088676   -2.5184901867    1.7305302646
 C   -0.6750178233   -1.8748494132    0.7251688360
 C   -1.3440633386   -0.6297634703    0.0383157968
 H    0.8746300921    1.7886216807    0.0820411860
 H    0.7562279152   -0.3741881666   -0.7037447198
 H    0.7367817322   -0.6374464681    2.1836016533
 H   -1.7777834393    0.8444375417    1.7580116406
 H   -2.3437440310   -1.2589362518    3.3508240119
 H   -3.6263050228   -3.0280984561    1.9934050279
 H   -3.3125753179   -2.0600371319    0.4761092568
 H   -0.0809988774   -2.5778065420    0.1409148752
 H   -2.0887740339   -0.6159587370   -0.7572793483