17

 C   -0.6239346883    1.0480435398   -0.1783077766
 N    0.1807953186   -0.1367890005    0.1515923620
 C    0.7810824101   -0.7686141150   -0.9512471279
 C    0.7026899452   -2.0801311305   -1.3336471648
 C   -0.0202102091   -3.2622702261   -0.7457392870
 N   -1.3119264491   -2.9640859709   -0.1326838553
 O    1.4348813063   -2.2416728168   -2.4295459417
 N    1.9933763580   -0.9377029282   -2.7517488472
 N    1.5903329674   -0.1369957239   -1.8790732018
 H   -0.0613833521    1.8225768427   -0.7159807864
 H   -1.4691775653    0.7429927129   -0.8021342720
 H   -1.0192342694    1.4740344912    0.7475428286
 H    0.8771145577    0.1012837906    0.8502438587
 H   -0.1515230967   -4.0125845597   -1.5313240271
 H    0.6267366238   -3.7238434205    0.0113588776
 H   -1.1938617972   -2.1863674556    0.5125937481
 H   -1.9547336899   -2.6341873795   -0.8471922171