15

 C    0.0141860192   -1.2008100412   -0.0639204059
 C    0.0134931356    0.0030039901   -0.0353761834
 C   -0.0148522360    1.4156491255    0.0007696842
 C   -1.0925303569    2.2682324424    0.1372395240
 C   -2.5295840293    2.7379601234    0.3031441318
 C   -1.9173111898    4.1895033420    0.2708440912
 N   -0.5956780303    3.5326445523    0.1131590551
 C    0.7587154018    3.4647301935   -0.0349063334
 N    1.1299535610    2.2030860186   -0.1045538653
 H    0.0248906190   -2.2618350104   -0.0902539916
 H   -3.2042944753    2.5106421516   -0.5249997713
 H   -3.0134523763    2.4695212261    1.2447085697
 H   -2.1998598829    4.8051997771   -0.5855084442
 H   -2.0079650519    4.7639384806    1.1949987041
 H    1.4130282222    4.3205669183   -0.0855754251