21

 C    0.1396971867    1.5452780682   -0.0351752270
 C    0.0430134495    0.0278345107   -0.0186697688
 C    1.2091541976   -0.7100776288   -0.7975300393
 C    1.8657926641   -0.8464216168    0.5606279089
 C    2.8975669504   -0.3868038146    1.2647289760
 C    4.3078705120   -0.1115200941    0.8575585053
 C    2.3433977172    0.0050532805    2.6341451776
 O    0.9138937192    0.0640842108    2.4830681151
 C    0.5910162130   -0.6522337843    1.3048534065
 H    1.1475282292    1.8779378813    0.2327417200
 H   -0.0960117274    1.9407948631   -1.0285033997
 H   -0.5557924128    1.9879635864    0.6840615232
 H   -0.9611310619   -0.3028386322   -0.3004158724
 H    0.8737318297   -1.6544332160   -1.2364083413
 H    1.7490618590   -0.1365051549   -1.5553780609
 H    4.5830858940    0.9342079122    1.0456876792
 H    5.0172277322   -0.7271996314    1.4258151299
 H    4.4633189751   -0.3236171634   -0.2036844853
 H    2.6079897991   -0.7037939763    3.4365055002
 H    2.7087151969    0.9952310694    2.9404572082
 H    0.0083005071   -1.5511512499    1.5519989446