17

 C   -0.1140327113    1.5302045775   -0.0491662254
 C    0.1162889195    0.0289896882   -0.0118512278
 O    0.9624517272   -0.3230767668   -1.1075223121
 C    1.1612188956   -1.7006674080   -1.1783434356
 C    2.5569295831   -2.1985330521   -0.9000510779
 C    1.4722386246   -2.3589921597    0.1309924687
 O    1.5153219036   -1.5337576006    1.2759551382
 C    0.7505319670   -0.4086909947    1.3150884501
 O    0.6257930693    0.1873829651    2.3470223578
 H    0.8397792463    2.0604023197    0.0097782218
 H   -0.6121181479    1.8032553361   -0.9822396832
 H   -0.7306546739    1.8335918944    0.7976671954
 H   -0.8468284936   -0.5000062463   -0.1044692224
 H    0.5350064850   -2.2174656928   -1.9043475408
 H    2.9087176743   -3.0847726128   -1.4153385559
 H    3.3025794636   -1.4366670828   -0.7049597001
 H    1.0877052476   -3.3460091444    0.3641390090