19

 C   -0.3425550440    1.2346224985    0.0965391544
 O    0.3073629054   -0.0227989171   -0.0480981534
 C    0.8198911672   -0.5442328452    1.1366685974
 C    2.0722843865    0.1159820240    1.6676841718
 C   -0.1747391811   -1.1751621267    2.0819662961
 O   -1.5363280307   -1.1221164955    1.8217344898
 C    0.7273325754   -2.0748656352    1.2233827124
 C    0.0938518443   -2.8148371051    0.1777534423
 C   -0.5075053738   -3.4335899765   -0.6625266865
 H    0.3624925306    2.0321259838    0.3680768288
 H   -0.7718495919    1.4712323570   -0.8797250098
 H   -1.1415787325    1.1848376470    0.8436702694
 H    1.8901441744    1.1644400470    1.9253818904
 H    2.4249679172   -0.3881390573    2.5722140956
 H    2.8703403532    0.0788097555    0.9191527075
 H    0.0300945893   -1.1437763567    3.1485910825
 H   -1.7035485541   -1.6168670588    1.0074195799
 H    1.5480950340   -2.5766149050    1.7271341245
 H   -0.9961544994   -3.9792301439   -1.4313221531