16

 C   -0.2061859039    1.5314612699   -0.1751752687
 C    0.0697728639    0.0275408740    0.0012701855
 C    0.8605281961   -0.5614412007   -1.1117146614
 C    2.0897875632   -1.1507477159   -1.2123073732
 N    2.3299365589   -1.5118494182   -2.5164671003
 C    1.2624351199   -1.1385784710   -3.1601017099
 O    0.3226083785   -0.5493320154   -2.3604249166
 C    0.9204393673   -1.2523814799   -4.5842616337
 O    1.6364061756   -1.7447269601   -5.4202851478
 H    0.7280473115    2.0988013026   -0.2165389013
 H   -0.7583859384    1.7195180415   -1.0997254297
 H   -0.8006905774    1.9095424002    0.6609047811
 H    0.6196911896   -0.1514477972    0.9304446989
 H   -0.8825248629   -0.5103769002    0.0904958197
 H    2.8066342636   -1.3349770880   -0.4271408056
 H   -0.0799439853   -0.8334631616   -4.8220573669