20

 C    0.0660378134    1.6574331559    0.0653399465
 C    0.1226239452    0.1274326980    0.0820079073
 C    0.6814893227   -0.5016609769   -1.2167226949
 C    0.7628923039   -2.0338161373   -1.1314846726
 N   -0.5565979168   -2.6291697804   -1.3033546280
 C   -1.4028421011   -2.2446606819   -2.3172393291
 O   -2.3638400574   -2.9124278577   -2.6594389774
 C   -1.0798614801   -0.9266929992   -2.9246472687
 C   -0.1387470691   -0.1205618168   -2.4265184467
 H    1.0526366492    2.0911402591   -0.1347959364
 H   -0.6235992080    2.0285192078   -0.6990440238
 H   -0.2752753870    2.0433093321    1.0304420967
 H    0.7565471363   -0.2028649771    0.9148221828
 H   -0.8765533055   -0.2821574444    0.2664772498
 H    1.7040008735   -0.1266083775   -1.3550531944
 H    1.4636044091   -2.4013765177   -1.8973783429
 H    1.1554966023   -2.3379996964   -0.1560648116
 H   -0.7045080688   -3.5749831787   -0.9826953850
 H   -1.6967829604   -0.6546681973   -3.7734076898
 H    0.0314307185    0.8570904664   -2.8697638618