20

 C   -0.0258302886    1.6439663240    0.0032081691
 C    0.0213229279    0.1126936670    0.0388393507
 C    0.7568992613   -0.5175858088   -1.1704136961
 C    1.5006034846   -1.7811095520   -0.6267562344
 C    2.8842919941   -1.9916627051   -1.2733417415
 C    1.5698068859   -1.4800481199    0.8684210474
 C    0.7814209406   -0.4663569652    1.2114797770
 C    0.6872736440   -2.9928221541   -0.8393573772
 N    0.0525025782   -3.9453671555   -1.0048257935
 H    0.9846616968    2.0669651498   -0.0142662291
 H   -0.5565766344    1.9992654130   -0.8860111524
 H   -0.5432015679    2.0442820907    0.8811802515
 H   -1.0140240638   -0.2572559764    0.0774279385
 H    0.0952605084   -0.7510139869   -2.0070606606
 H    1.5171894006    0.1828124667   -1.5331189596
 H    3.5110656244   -1.1158371838   -1.0833437862
 H    3.3827982206   -2.8726575041   -0.8594948938
 H    2.7928546806   -2.1302387518   -2.3544555742
 H    2.1765910608   -2.0811805867    1.5355493024
 H    0.6551490357   -0.0944036108    2.2230648322