18

 O   -0.0066364592   -0.0605108254    0.0168617691
 C    0.0277986610    1.1431786341    0.0558297998
 C    1.2941544306    1.9677633843    0.0258612875
 C    1.2838419106    3.0617716359   -1.0868000156
 C    1.4257101049    4.2990532581   -0.2134105150
 C    2.4094180770    4.0510048807    0.9598284595
 C    1.4702356877    4.9257873206    1.8002935366
 N    0.4671545226    4.1016270917    0.9878493685
 C    1.4112715824    2.8983887189    1.2394815326
 H   -0.9041967750    1.7481083696    0.1217402724
 H    2.1452425749    1.2858102725   -0.0467373177
 H    2.1054157672    2.9408336602   -1.7969786029
 H    0.3463711496    3.0780541251   -1.6523332155
 H    1.3694037619    5.2819409298   -0.6847958178
 H    3.5046785824    4.0142611790    0.9409659709
 H    1.4151778583    4.7419624707    2.8769248808
 H    1.4293884579    5.9972003921    1.5847242255
 H    1.3413569552    2.4597697323    2.2367608013