18

 C   -0.3388752336    1.4381780564   -0.0212178482
 C    0.0609287590   -0.0156599793    0.0067982141
 C   -0.6430267695   -1.0014414137    0.9402650903
 C    0.8173214275   -0.6736284237    1.1207883966
 O    1.7706678059   -1.5812194678    0.6258130458
 C    1.4506794782   -1.8472358090   -0.7350114422
 C    0.6290652489   -0.6411555045   -1.2626395084
 O   -0.3142089615   -0.9937399681   -2.2577588475
 H    0.4991116125    2.0717619999   -0.3341545343
 H   -1.1618052783    1.6026466393   -0.7257272803
 H   -0.6692886231    1.7814974915    0.9640695389
 H   -1.3434647534   -0.5783887024    1.6526819974
 H   -0.9146979983   -1.9934784484    0.5915605836
 H    1.1694054781   -0.1539744175    2.0046078764
 H    2.3842666277   -2.0072396828   -1.2803244088
 H    0.8448499354   -2.7614480789   -0.8314055509
 H    1.2874596866    0.0874704543   -1.7484723706
 H   -1.0180331222   -1.4917903653   -1.8265053319