17

 C   -0.0163813501   -1.2419687419   -0.0042552191
 C   -0.0342800462   -0.0403296151    0.0023528909
 C   -0.0201996031    1.4171018281    0.0104490494
 C    1.4065623307    2.0018605901   -0.0008815237
 C    1.4059735873    3.5323339438    0.0077196094
 C    2.8360957109    4.1078928239   -0.0035803640
 C    2.8544002605    5.5690501901    0.0047048082
 N    2.8490679450    6.7245694345    0.0108658656
 H   -0.0156881708   -2.3036915301   -0.0098592994
 H   -0.5760626640    1.7934862374   -0.8584786130
 H   -0.5580835036    1.7835955991    0.8947792444
 H    1.9540131970    1.6212898104    0.8694965897
 H    1.9360420359    1.6311421733   -0.8864945909
 H    0.8607074178    3.9146316035   -0.8627832091
 H    0.8785948647    3.9047630141    0.8933884146
 H    3.3968383044    3.7488164311    0.8675091566
 H    3.3789237538    3.7587848278   -0.8899560994