20

 C   -0.0125729443    1.5273589746    0.1502781031
 C   -0.0441742616    0.0388871031    0.0005712133
 C   -0.0797177186   -0.7005357116   -1.1186223398
 C   -0.0587178629   -0.2588764851   -2.5463630444
 C   -0.0361840940   -2.2011003903   -0.8125700693
 O    1.0850858265   -2.8420776758   -1.4044386026
 C    0.0003739085   -2.2484830476    0.7153202111
 N    1.2746370430   -1.6871314210    1.2253190043
 C    0.0269820758   -0.8568950270    1.2025339253
 H    0.9102005053    1.8500628832    0.6494331447
 H   -0.0747173155    2.0428897537   -0.8107916480
 H   -0.8447532657    1.8805044900    0.7729284497
 H    0.0510063492    0.8226971895   -2.6551231964
 H    0.7678352327   -0.7485956412   -3.0731682083
 H   -0.9792573964   -0.5597924711   -3.0643368073
 H   -0.9163325496   -2.7207694200   -1.2117540100
 H    1.8416291237   -2.5327987445   -0.8854321127
 H   -0.4714909834   -3.0604754000    1.2562935058
 H    1.4249226910   -2.0385107020    2.1698920008
 H   -0.4055006335   -0.5576500572    2.1521114207