19

 O   -0.1095309749    1.5060017728   -0.0706599750
 C    0.0311254948    0.0935185415    0.1007393938
 C   -1.3731903308   -0.4847911644    0.0333797244
 O   -2.1919205392    0.1554062944    0.9851325851
 C   -2.0052276700   -0.7529860569   -1.3563686459
 C   -1.2050595018   -2.0912626006   -1.5361574479
 C   -2.4807949898   -2.8952074166   -1.8522481900
 C   -2.9180950052   -1.8891668119   -0.7713769240
 C   -1.5506436054   -2.0085311920   -0.0058861965
 H    0.7093414312    1.9315964167    0.1969847026
 H    0.6760950859   -0.3364745043   -0.6772176959
 H    0.4683552818   -0.1382394807    1.0831087572
 H   -1.9540850098    1.0907941819    0.9441653458
 H   -2.2743598497   -0.0488088394   -2.1449893396
 H   -0.2084887140   -2.1965321183   -1.9669504858
 H   -2.9095933011   -2.7648398949   -2.8512667333
 H   -2.4785226910   -3.9536428114   -1.5712114720
 H   -3.8931218992   -1.7482938877   -0.3090470323
 H   -1.3005975618   -2.7467492281    0.7585551393