19

 O   -0.2096939755    1.2851283775   -0.1159436763
 C   -0.0120893551   -0.0990595446   -0.0657697464
 C    1.0546373697   -0.7520552947   -0.9479142245
 C    0.3999370678   -2.1088619785   -1.3417077520
 C   -0.7204550939   -2.3022715938   -0.3004921421
 C   -0.1419629428   -2.2852654918    1.1565014896
 C   -0.4529451593   -0.7927578250    1.2377917982
 C   -1.2799484274   -0.8823477001   -0.0476263316
 O   -2.5147881959   -0.4067645521   -0.4174986670
 H    0.3694822157    1.7099190520    0.5250636766
 H    1.2506252717   -0.1199223898   -1.8184857733
 H    2.0068122460   -0.8897164142   -0.4233187124
 H   -0.0350805672   -2.0415430952   -2.3447860078
 H    1.1126146326   -2.9393004182   -1.3447743894
 H   -1.4284571645   -3.0991191870   -0.5251518694
 H   -0.7624943238   -2.8599727119    1.8487889625
 H    0.9015718283   -2.6028811567    1.2665351289
 H   -0.6099257269   -0.2020884417    2.1346221493
 H   -2.4161272395    0.5472507858   -0.5395808830