20

 C   -0.1563764831    1.6795478654   -0.0704915230
 C    0.0256350332    0.1552208673   -0.0364883383
 C   -1.3479800865   -0.5846573961    0.0546052681
 N   -1.3177630152   -2.0483307671    0.0511003960
 C   -2.0833068849   -0.1408479714    1.2503445613
 N   -2.6243936104    0.2169340354    2.2064619984
 C    0.7796724490   -0.3211637391   -1.2631140278
 C    2.2601775372   -0.2892327076   -1.3175443981
 N    1.5486511079   -1.5810014763   -1.2607848134
 H    0.8147973064    2.1798119451   -0.1138190870
 H   -0.7274775448    1.9844166928   -0.9550643725
 H   -0.6885171683    2.0388170477    0.8139517980
 H    0.6075153812   -0.1172270451    0.8558486041
 H   -1.9422007838   -0.2738220619   -0.8163513410
 H   -0.8100127415   -2.3770132088   -0.7644850117
 H   -0.8306067278   -2.3947374228    0.8723184619
 H    0.2448725970   -0.1595796290   -2.1996446036
 H    2.7691574589   -0.0852785715   -2.2547005385
 H    2.7930681285    0.0449301588   -0.4306708782
 H    1.6001061969   -1.9424150557   -0.3110058645