17

 C   -0.0175407138    1.4562878607    0.0907645847
 C   -0.0005104735   -0.0308079476   -0.0254623261
 C   -0.0266903656   -0.7902169409   -1.1258006131
 C    0.0049936129   -2.2253775849   -0.7906894299
 N   -0.0050803295   -3.2575902027   -1.5330346839
 N    0.0530877162   -2.2682361739    0.6267835223
 C    0.0529380088   -0.9189783636    1.1901214252
 C    0.0948231055   -3.3780482975    1.4488077744
 O    0.0992032073   -4.5320241362    1.1121725154
 H    0.8753763157    1.8215891860    0.6128629126
 H   -0.0579436805    1.9320635428   -0.8915744373
 H   -0.8825024999    1.7967798614    0.6731932720
 H   -0.0660054940   -0.4424340968   -2.1502034073
 H   -0.0420625356   -2.9692631413   -2.5109897280
 H    0.9550170749   -0.7300709530    1.7893720298
 H   -0.8117517322   -0.7551144202    1.8488875505
 H    0.1254353033   -3.0603902326    2.5134502385