21

 C   -0.0550931087    1.5811362342   -0.0538911234
 C    0.0271519184    0.0508349131   -0.0314459796
 C    0.6636155457   -0.5206381180   -1.3101151410
 C    0.6167848443   -2.0543923613   -1.3331303489
 C    0.9637664358   -2.6590818336    0.0000732631
 C    1.0153240438   -1.9687339149    1.1394182226
 C    0.7460213248   -0.4823263136    1.2346869616
 C    2.0798469071    0.2085535647    1.5005726794
 O    2.4006077540    0.6927702460    2.5552738025
 H    0.9352083487    2.0391819772   -0.1571717172
 H   -0.6643932487    1.9241553785   -0.8962400133
 H   -0.5032614254    1.9691851079    0.8666501286
 H   -0.9975978786   -0.3416611947    0.0242762152
 H    0.1496908482   -0.1157487457   -2.1891608829
 H    1.7058885619   -0.1859658365   -1.3848477678
 H   -0.3858743113   -2.3979504087   -1.6290160755
 H    1.2927832938   -2.4433770837   -2.1048274351
 H    1.1559731749   -3.7295779743    0.0184442535
 H    1.2776124033   -2.4676368320    2.0687196273
 H    0.1310012780   -0.2793498265    2.1191599310
 H    2.7834692499    0.2027776019    0.6371314000