21

 C   -0.1446250246    1.4547627862   -0.0649394044
 C    1.3777732852    1.6244895279   -0.0075537409
 C    1.9556472063    1.0146230653    1.2385505296
 C    1.3839313766    1.1016246555    2.6496287608
 C    0.1638817626    0.3313051614    3.0816367442
 C   -0.6610916991   -0.4987561683    2.4437041404
 C   -0.6963550159   -0.9431364982    1.0071847715
 C    0.0526914510   -0.1002096261   -0.0170758836
 C    1.5689773699    0.1032484024    0.1072161318
 H   -0.7067331390    1.9049321841    0.7585838650
 H   -0.5857247045    1.7869419170   -1.0072028270
 H    1.9442442511    2.3343222324   -0.5992616740
 H    3.0355986926    1.1560920986    1.2537165815
 H    2.1847948818    0.8023546570    3.3426219441
 H    1.2132419584    2.1635131670    2.8884518882
 H   -0.0456780853    0.4855956246    4.1407114362
 H   -1.4498430316   -0.9431511002    3.0502503112
 H   -0.3309682956   -1.9809989975    0.9472624509
 H   -1.7516471583   -1.0032635954    0.7024559159
 H   -0.1643026265   -0.5067287921   -1.0102573900
 H    2.3052077949   -0.5300921416   -0.3761854214