15

 O   -0.1018750120    1.3786497781   -0.0559173318
 C    0.0503230639    0.0142715008   -0.0668172157
 C    0.8778506117   -0.8004770799   -1.0587292605
 C   -0.0632731032   -1.9966024317   -0.7199837229
 O    0.5177476331   -2.7990805038    0.3163702322
 C    0.5211351072   -2.0646091755    1.4779775649
 O    1.0424282893   -2.4471292254    2.4845418799
 C   -0.2454702278   -0.8081185900    1.2164434993
 C   -1.0516414634   -1.0014197493   -0.0460777291
 H    0.6672890734    1.7746944716    0.3698662998
 H    0.7111326962   -0.4381034236   -2.0764295821
 H    1.9458205074   -0.9559194201   -0.8786512216
 H   -0.3956884565   -2.6492646027   -1.5220425647
 H   -0.6383508534   -0.2452325616    2.0515518411
 H   -2.1260214160   -0.9234507670   -0.1374480989