19

 O    0.0374000569    1.4189859782    0.0407507422
 C    0.0221849116    0.0052891358    0.0400344273
 C    0.8493334266   -0.5874447777    1.1873240303
 C    0.6674053453   -2.0770423957    1.3125552581
 C   -0.3329541324   -2.7447780781    0.7403534123
 C   -1.4039222306   -2.0969646917   -0.0963059762
 C   -1.4249501458   -0.5551061504    0.0484582172
 C   -2.1253241152   -0.1118731361    1.2529513474
 C   -2.6712163231    0.2929215269    2.2462520878
 H   -0.4632500050    1.7062609985    0.8150063197
 H    0.4742300260   -0.2891019336   -0.9141060814
 H    1.9048751044   -0.3368401775    1.0318197231
 H    0.5587915928   -0.0964868852    2.1278593986
 H    1.3990642069   -2.6136542045    1.9115280145
 H   -0.4025189975   -3.8228113797    0.8631924040
 H   -1.2498810994   -2.3482846813   -1.1552356293
 H   -2.3878026885   -2.5026738221    0.1649594500
 H   -1.9423820269   -0.1231946382   -0.8165466030
 H   -3.1747389361    0.6297582926    3.1186611475