21

 O   -0.0652126473    1.4676871785    0.0636952160
 C    0.0402688251    0.0513049716    0.0543358662
 C   -1.3710024716   -0.5167676401   -0.0312703127
 C   -1.4052096303   -2.0474603062   -0.0192207789
 O   -0.7770221063   -2.5780244097    1.1507198846
 C   -2.8283199180   -2.5926870693   -0.1842218080
 C   -2.8659906649   -4.1328938985   -0.2268283676
 C   -4.2186340330   -4.6658283606   -0.3227490188
 C   -5.3451489198   -5.0784353261   -0.4005360797
 H    0.8187091714    1.8327091268    0.1631285296
 H    0.6316130156   -0.2997293598   -0.8077535914
 H    0.5331331723   -0.3256939948    0.9612433533
 H   -1.9599451095   -0.1281947117    0.8113063688
 H   -1.8505956154   -0.1431235633   -0.9434724832
 H   -0.7858269446   -2.4255180990   -0.8443312711
 H   -1.2619865762   -2.2461504780    1.9156205948
 H   -3.4523441466   -2.2370409660    0.6464520872
 H   -3.2719769806   -2.1875155309   -1.1002853751
 H   -2.2714339401   -4.4867639927   -1.0796775859
 H   -2.3688662605   -4.5223432037    0.6685324571
 H   -6.3344404096   -5.4571853865   -0.4698356252