18

 C   -0.1025619704    1.5095102607   -0.1097954666
 C   -0.0080514323    0.0119008301    0.0530373696
 N    1.3158389536   -0.5997659977   -0.1164297017
 C    0.6615436013   -0.6501620389    1.2121276304
 C    1.3152760734    0.0305056850    2.3694990029
 C    1.2697923509   -0.7266812691    3.4718253844
 C    0.5318234918   -1.9974110596    3.1962462507
 O   -0.8485554971   -1.7895657337    2.8019192318
 C    0.1368615196   -1.9494736922    1.7791106555
 H    0.7987082895    2.0019460681    0.2622898650
 H   -0.2133406205    1.7721577279   -1.1673122467
 H   -0.9681953713    1.9054633476    0.4310634500
 H   -0.8604949743   -0.5374602623   -0.3464420404
 H    1.2438736311   -1.5082157038   -0.5713610097
 H    1.7459957764    1.0207140415    2.2945521852
 H    1.6718753073   -0.4657659304    4.4423578008
 H    0.7175453920   -2.9137221478    3.7476166222
 H    0.0247168591   -2.8245531954    1.1409616964