20

 C   -0.0316180773    1.5831966742    0.0071870767
 C    1.5097989167    1.7215212241    0.0398912416
 C    1.7211661180    1.0839950730    1.4345612942
 C    1.2491749622   -0.3130387934    0.9637238542
 C    2.4220541516   -0.5840268151   -0.0094868940
 C    2.0006195012    0.5528126707   -0.9718549783
 C    0.6690079287   -0.0851655702   -1.4366182046
 C    0.0210054174    0.0367252382   -0.0361149402
 H   -0.5000001672    2.0149752548    0.8950861501
 H   -0.5250141551    2.0012615871   -0.8737053945
 H    1.9344094717    2.7097984406   -0.1360071635
 H    2.7527947123    1.0673589436    1.7946245296
 H    1.1024433162    1.5586286829    2.2001291928
 H    1.0400002777   -1.0619891052    1.7274293829
 H    3.3936587490   -0.4576294079    0.4744530595
 H    2.4122234925   -1.5602685592   -0.5004408618
 H    2.7121113811    0.8580596130   -1.7390121697
 H    0.1155893918    0.4759144334   -2.1936489190
 H    0.8095445680   -1.1042715301   -1.8052150065
 H   -0.9059243565   -0.5078487045    0.1432357706