14

 O    0.1555283027    1.4144144077   -0.1976869970
 C    0.1445501285    0.0078052413   -0.1789909407
 C   -1.2677562927   -0.5493209605    0.1356725457
 C   -2.2270717903   -0.1089116364   -0.8758720985
 N   -2.9361140639    0.2713830566   -1.7059386222
 C   -1.2593621265   -2.0859788073    0.2926987581
 O   -0.2211126218   -2.7031532753    0.3200773298
 C   -2.5522311900   -2.7120134824    0.4463088614
 C   -3.6402790863   -3.2085048674    0.5793741191
 H   -0.3253279004    1.7146179201   -0.9772848014
 H    0.5042093908   -0.4326421230   -1.1175342246
 H    0.8198099540   -0.3106221585    0.6168359132
 H   -1.5942617652   -0.1334750819    1.0993677491
 H   -4.5982655390   -3.6569211331    0.6919034381