25

 C   -0.1388893211    1.5758490551    0.0022143644
 C   -0.0134944708    0.0456808827   -0.0039404711
 C    0.5889991495   -0.4310331319   -1.3370734867
 C    0.6103358637   -1.9583639593   -1.5478231340
 C    1.6584863016   -2.6978857051   -0.7518770714
 C    1.7574339303   -2.7081777324    0.5797705182
 C    2.8440759614   -3.4752863984    1.2862649460
 C    0.7893248662   -1.9519513379    1.4703760613
 C    0.7516545228   -0.4267024252    1.2450798438
 H    0.8480837951    2.0504468658   -0.0562916925
 H   -0.7271829867    1.9305891273   -0.8506698303
 H   -0.6236742082    1.9334505269    0.9169215250
 H   -1.0302206117   -0.3730280101    0.0612560710
 H    0.0041005971    0.0198056705   -2.1492983295
 H    1.6099682567   -0.0389307021   -1.4378380954
 H   -0.3905855273   -2.3556253265   -1.3189186611
 H    0.7709092886   -2.1593474603   -2.6121457259
 H    2.3911625934   -3.2619335573   -1.3259866835
 H    3.5025301940   -3.9925167108    0.5829897691
 H    3.4610501412   -2.8104042845    1.9056463921
 H    2.4194151863   -4.2232995390    1.9691472752
 H   -0.2271661189   -2.3518467442    1.3393351550
 H    1.0498068709   -2.1413383489    2.5173771994
 H    1.7796124862   -0.0407985025    1.2121807272
 H    0.2785147498    0.0354704282    2.1209814738