18

 C    0.0403140901    1.5432333889    0.0302565526
 C    0.0906996769    0.0325932701    0.0502268956
 O   -1.0842636509   -0.5761779940   -0.4165268996
 C    1.3329493757   -0.7933467521   -0.1952673769
 N    2.5326262178   -0.1910004888    0.3834320772
 C    1.9471519144   -0.0959992903    1.6599010628
 O    2.3380275669    0.3911637892    2.6836575570
 C    0.6827310132   -0.8113102385    1.1931439739
 C   -0.0789926852   -1.8543563032    1.9544700373
 H    0.9522732564    1.9951609965    0.4247194663
 H   -0.0993840385    1.9074185340   -0.9957965216
 H   -0.8024485617    1.8952367346    0.6323305131
 H   -1.2579065908   -0.2424797025   -1.3037307263
 H    1.3902237739   -1.5979833394   -0.9175050405
 H    3.0621783067    0.5629153096   -0.0407105662
 H   -0.4368566102   -1.4378839561    2.9019945531
 H   -0.9428097781   -2.1988720913    1.3834063959
 H    0.5554161735   -2.7150399866    2.1890366064