20

 C   -0.3093525600    1.5014432078   -0.1134170945
 C    0.0881681157    0.0304217897    0.0785327411
 C    0.8533660095   -0.5285173132   -1.0820980463
 O    0.1274276439   -0.7917213294   -2.2971121047
 C    0.8737194861   -1.8650585884   -1.7019490960
 C    2.3272664804   -1.7081068498   -2.1555888004
 C    2.3256798999   -0.2744241209   -1.5033835336
 C    2.6128992751    0.9190139229   -2.4037924277
 H    0.5705070388    2.1467186654   -0.2005220724
 H   -0.9066009634    1.6222938545   -1.0217889348
 H   -0.9012166285    1.8580180073    0.7347430044
 H    0.6934990236   -0.0781789698    0.9873898942
 H   -0.8116426567   -0.5791475880    0.2197932077
 H    0.3225988676   -2.7664243401   -1.4555916988
 H    3.0183023409   -2.3978257844   -1.6648166281
 H    2.4775649215   -1.7479911445   -3.2377960685
 H    2.9747142382   -0.2641041122   -0.6210709907
 H    1.9072970061    0.9386063188   -3.2390666177
 H    2.5275488493    1.8656721748   -1.8595810805
 H    3.6269522319    0.8637610496   -2.8144650726