19

 C   -0.0649936728    1.5314802468    0.0328946033
 C    1.4172642585    1.8691116754   -0.0532813500
 C    2.1873443052    0.8681858982    0.3882086225
 C    1.3136569755   -0.2520126103    0.9030044530
 C    1.6127228592   -1.7428793852    0.7999848521
 O    0.4502829185   -2.4265048478    1.2831362160
 C   -0.7277260477   -2.0909265339    0.5920722160
 O   -1.0559483135   -0.7160428855    0.6402776187
 C    0.0294982254    0.0054992252    0.0980552546
 H   -0.5145102480    1.9358847449    0.9511089826
 H   -0.6535939702    1.9000168229   -0.8122116135
 H    1.7775027909    2.8272851032   -0.4096682706
 H    3.2694074441    0.8851371928    0.4521003614
 H    1.0821047487   -0.0658979256    1.9636382144
 H    1.8286436795   -2.0363665419   -0.2406013282
 H    2.4417079695   -2.0723802408    1.4319473802
 H   -0.6387966135   -2.4014592020   -0.4666158933
 H   -1.5401460573   -2.6312069807    1.0806884331
 H    0.2148242682   -0.3534306958   -0.9314535625