19

 C   -0.5912425556    1.3329565830    0.1952079687
 O    0.7966488269    1.0041337211    0.0483408826
 C   -0.1436671846   -0.0554794953    0.0578035828
 C   -0.1182646314   -1.1910782890    1.0852054756
 C   -0.4107418085   -2.1960318234   -0.0727913000
 O   -1.7284982266   -2.7095918899   -0.1307091051
 C   -2.5666751522   -1.7515844813   -0.7712771752
 C   -1.6789472470   -1.0585092930   -1.8174451881
 C   -0.3164326999   -1.0322800832   -1.1185909551
 H   -0.8812516681    1.7113695339    1.1751007135
 H   -1.0381128768    1.8519266741   -0.6523317607
 H    0.8691572607   -1.3224025385    1.5362303076
 H   -0.8739026162   -1.1647524966    1.8743163601
 H    0.2800075353   -3.0366996854   -0.1546712529
 H   -3.4198169518   -2.2866843187   -1.1961522122
 H   -2.9509757238   -1.0194073224   -0.0433886047
 H   -1.6206470713   -1.6651667878   -2.7265028801
 H   -2.0487428539   -0.0669579539   -2.0921460537
 H    0.5364571550   -1.0430516037   -1.7989113630