18

 C    0.0512128705    1.3286174729    0.2970240813
 N    0.0045461317   -0.0603879188   -0.1230780550
 C   -1.2078793270   -0.7388616794   -0.0621386853
 C   -1.3653070755   -2.1011577928   -0.0158229807
 C   -0.3656190552   -3.2003368796    0.0357201495
 O    0.6779119038   -2.9289630347    0.9812561724
 O   -2.7036883866   -2.4149825555   -0.0074814806
 C   -3.3837332557   -1.2492802500   -0.0547639539
 C   -2.5344655534   -0.1866572406   -0.0840617869
 H    1.0808060056    1.6866056630    0.2203808176
 H   -0.5599817692    1.9456437476   -0.3701189240
 H   -0.2994081493    1.4972796986    1.3286175445
 H    0.7582952789   -0.6246683581    0.2467537649
 H   -0.8794772558   -4.1481473155    0.2499424604
 H    0.1636507095   -3.3228163475   -0.9173241286
 H    0.2492838259   -2.7740851562    1.8307289478
 H   -4.4585073068   -1.3299294034   -0.0569714976
 H   -2.8140864414    0.8540994601   -0.1162066358