20

 C   -0.0284366596    1.2274844482   -0.0338750848
 C    1.2023761986    2.1351927246    0.1027472717
 C    1.9070996932    2.1423504905    1.4532746669
 N    1.2681880317    1.4736932357    2.5953324441
 C    2.5586785578    0.9642596431    2.0938037858
 C    2.6413423909   -0.4316043912    1.4819418334
 O    2.4298263708   -0.4588278881    0.0728721119
 C    1.1343943818   -0.8448690932   -0.3119375092
 O    0.1257052225   -0.1364359825    0.3318340372
 H   -0.8214303408    1.5932030463    0.6227938534
 H   -0.3888948620    1.2913408958   -1.0737837330
 H    1.9354061849    1.9123835900   -0.6777525679
 H    0.8382393379    3.1522994875   -0.0974649135
 H    2.4071247353    3.0891961310    1.6568587382
 H    1.4055641047    2.0048755760    3.4504583845
 H    3.4304214500    1.2056952872    2.7011427915
 H    3.6570711796   -0.8118806079    1.6376333112
 H    1.9412296548   -1.1037814224    1.9925963326
 H    1.1092733454   -0.7142662393   -1.4044857050
 H    0.9489120124   -1.8981260911   -0.0547698290