19

 C   -0.0414377671    1.5482078697   -0.0427657653
 C   -0.0060165528    0.0146319087   -0.0023622175
 C    0.7091355274   -0.5625003310   -1.1990712300
 O    0.1036360520   -0.2352901615   -2.4663632484
 C    0.1303865682   -1.6223805870   -2.8928743664
 C    0.7974293025   -2.0663867711   -1.5738128522
 C    2.3404884553   -1.9510785528   -1.5159121588
 O    2.7447747537   -0.9607918231   -2.4611043593
 C    2.2763575370   -0.5112755276   -1.1902274475
 H    0.9668412775    1.9746088662   -0.0132490306
 H   -0.5229826426    1.8908551951   -0.9623863059
 H   -0.5986882481    1.9486019059    0.8087910401
 H    0.4922602562   -0.3345458940    0.9114838215
 H   -1.0281142184   -0.3807890686    0.0202286929
 H   -0.8851430607   -2.0082242739   -3.0381935498
 H    0.7201867032   -1.7583076159   -3.8033119631
 H    0.3352435492   -2.8446200097   -0.9687808568
 H    3.0673808753   -2.7089429725   -1.2473195058
 H    2.9402860221    0.1285718030   -0.6179193870