17

 C   -0.3402450215    1.5557047893   -0.1922452975
 C   -0.0679330198    0.0940057044   -0.0009383347
 C    0.3416989556   -0.7984373742   -0.9655448297
 N    0.4673374995   -2.0375102522   -0.3861458698
 C    0.1599905127   -1.9532578149    0.9481826370
 C    0.1598590309   -3.1585232307    1.8460037777
 C    1.2406850482   -4.0974647857    1.5330777958
 N    2.0788948148   -4.8358208777    1.2368322780
 C   -0.1780788403   -0.6468151294    1.2149107029
 H    0.2937510979    2.1744766369    0.4533392868
 H   -0.1528185908    1.8589968100   -1.2263822842
 H   -1.3804408509    1.8103325298    0.0425106329
 H    0.5613112547   -0.6496562608   -2.0109602251
 H    0.8242353357   -2.8612541123   -0.8407951339
 H    0.2617322513   -2.8346589262    2.8865668457
 H   -0.7869355933   -3.7143554054    1.7860183291
 H   -0.4807086547   -0.2597844308    2.1771674991