23

 C   -0.0176336965    1.5605927283   -0.0294631834
 C    0.0064890133    0.0245493986    0.0189171226
 C    0.6803451087   -0.4561451823    1.3162061043
 C   -1.4327803778   -0.5192658531   -0.0396233058
 C    0.7864377774   -0.5469360722   -1.1972579527
 O    0.1536224725   -0.1540580987   -2.4237023503
 C    1.1032465227    0.4000957319   -3.3283197184
 C    2.3944882964    0.4394962873   -2.5622661991
 C    2.2157581139   -0.0960944370   -1.3607982724
 H    0.9922424341    1.9798076965    0.0226138391
 H   -0.4814992827    1.9090310094   -0.9561471647
 H   -0.5924412145    1.9627513635    0.8114562859
 H    0.0873510988   -0.1564927901    2.1866735596
 H    0.7707907440   -1.5483965555    1.3394819801
 H    1.6815808262   -0.0307907571    1.4402651662
 H   -1.9180285803   -0.2325359819   -0.9756529431
 H   -1.4438844261   -1.6134509707    0.0251209961
 H   -2.0276541209   -0.1296143947    0.7934598509
 H    0.7428988349   -1.6486039785   -1.1170849193
 H    1.1773377991   -0.2276744606   -4.2318231308
 H    0.7681954185    1.3965506604   -3.6544682565
 H    3.3151952832    0.8373153852   -2.9700942686
 H    2.9692082551   -0.2298245187   -0.5960585597