20

 C    0.3596248068    1.0409143460   -0.5249111940
 N    0.0392334649   -0.1601430014    0.2395012874
 C    0.4845070714   -0.0678715952    1.6183588896
 C   -1.2772338329   -0.6361604906    0.0792663820
 C   -2.2715620237   -0.7652531492    1.0343890290
 N   -3.3328700703   -1.3277152974    0.4001844466
 N   -3.1023763402   -1.5723428986   -0.9010597548
 C   -1.8543636597   -1.1602935762   -1.1147881542
 C   -1.2212897579   -1.3054785349   -2.4616109682
 H    1.4395288820    1.2175615855   -0.4865840266
 H    0.0745568102    0.9123136005   -1.5702899042
 H   -0.1513050986    1.9408115176   -0.1383105450
 H   -0.0319716866    0.7238839948    2.1933744944
 H    0.3186019382   -1.0230385927    2.1242347352
 H    1.5560864256    0.1539714226    1.6396282154
 H   -2.2988310421   -0.5212849590    2.0834485960
 H   -4.2121007195   -1.6047901926    0.7997846018
 H   -1.2194556166   -0.3646144983   -3.0259435514
 H   -0.1800826321   -1.6301082048   -2.3654291322
 H   -1.7703475789   -2.0430414061   -3.0511624169