19

 C   -0.3903346522    1.4641684944   -0.0993441670
 C    0.1447285139    0.0484583662   -0.0855561552
 O    1.4450368239   -0.0650781142   -0.7217726906
 C    1.9800988612   -0.8092061523    0.3835623865
 C    0.6990918822   -0.5954711156    1.2198142784
 C    0.8257209532    0.3179753355    2.4458813121
 O   -0.4360011309    0.7062303848    2.9159187415
 C    1.5970694476   -0.3845304456    3.5458700396
 O    1.1246137155   -0.5456378942    4.6456828984
 H    0.3117010435    2.1643362102    0.3613188913
 H   -0.5531779774    1.7812121798   -1.1342009421
 H   -1.3388480455    1.5179297980    0.4412027946
 H   -0.5735150758   -0.6223437676   -0.5780527515
 H    2.1881874438   -1.8550821919    0.1230461657
 H    2.9031116349   -0.3561002289    0.7701721954
 H    0.1756046279   -1.5077613499    1.5151261952
 H    1.4252904871    1.2029820506    2.1629587220
 H   -0.4645127474    0.4330725613    3.8471699828
 H    2.6138743346   -0.7450482107    3.2918626829