16

 O    1.2766247673    0.5015017634    0.9752415585
 C    0.6157810830    1.1925802722    0.2460414449
 C    1.2014163468    2.0609299832   -0.8614295867
 N    0.3175007917    3.1631151339   -1.1640462701
 C    0.8006327124    4.3240398111   -1.1281889035
 O    0.0152964996    5.3915204144   -1.3792988591
 C    0.6621129736    6.6681282807   -1.3224056745
 C    1.5780847150    6.9003401555   -2.4343608736
 C    2.3372048392    7.0820598378   -3.3472607650
 H   -0.4928959377    1.2403518131    0.3140180659
 H    2.2275004513    2.3454316171   -0.5806974556
 H    1.2756089925    1.4101166388   -1.7470854180
 H    1.8491272424    4.5662679993   -0.9014859323
 H   -0.1535113211    7.3956080776   -1.3387460384
 H    1.1882775484    6.7833010735   -0.3650977990
 H    3.0043619955    7.2477923584   -4.1573834536