19

 O    0.0031322235    1.4669932758    0.0150063388
 C    0.0440943290    0.0443977946   -0.0369169773
 C    0.8439668432   -0.5124796375    1.1225329351
 C    0.2447826557   -1.1870117328    2.1037243934
 C   -1.2458521975   -1.4383719232    2.0393452379
 C   -1.5534325971   -2.6755138076    1.1646286396
 C   -1.4072720039   -2.0840278058   -0.2618115944
 C   -1.3733632848   -0.5516786967   -0.0152816644
 O   -1.8817143048   -0.3801042782    1.3165938070
 H   -0.4629977539    1.6819928390    0.8327163745
 H    0.5294037569   -0.1957701152   -0.9904479010
 H    1.9070823672   -0.2911222306    1.1451538162
 H    0.8004722257   -1.5961799952    2.9431624239
 H   -1.6962190320   -1.4787111455    3.0338312161
 H   -0.8774101833   -3.5117540990    1.3555706605
 H   -2.5775827312   -3.0106140678    1.3486474711
 H   -0.4964055045   -2.4274604286   -0.7588333119
 H   -2.2516434038   -2.3607846504   -0.8960558468
 H   -2.0164255443    0.0186727649   -0.6888459183