25

 C   -0.1324688908    1.6411741822    0.0121551999
 C    0.0069229856    0.1146028588    0.0026735483
 C   -1.3592495860   -0.5830384795    0.0117937799
 C   -1.3543748004   -2.1412877518    0.0033599411
 C   -0.6672413298   -2.6894423176   -1.2693143632
 C   -0.6434526843   -2.7030602246    1.2568948510
 C   -2.7544094735   -2.5891334143    0.0141087282
 C   -3.9050927134   -2.9462604983    0.0232050046
 C   -5.2954205503   -3.3810743922    0.0346442745
 H    0.8461258594    2.1313692374    0.0055866132
 H   -0.6881245992    1.9928060217   -0.8641970495
 H   -0.6715275957    1.9833486483    0.9025056375
 H    0.5800686468   -0.1869518863   -0.8818073780
 H    0.5965707331   -0.1963421215    0.8729409006
 H   -1.9217092935   -0.2548001296    0.8948600487
 H   -1.9382209173   -0.2453677569   -0.8569294138
 H    0.3942507273   -2.4248066669   -1.2876929210
 H   -0.7443813082   -3.7797842667   -1.3043425859
 H   -1.1395223255   -2.2892532762   -2.1714427394
 H   -1.0986079562   -2.3126428057    2.1720140638
 H   -0.7200572514   -3.7937220204    1.2816322708
 H    0.4182315951   -2.4385592938    1.2581285056
 H   -5.3726849184   -4.4742182573    0.0302983252
 H   -5.8206047902   -3.0174724392    0.9251025779
 H   -5.8376572930   -3.0092489695   -0.8420854699