22

 C    0.1610412329    0.5329961549   -1.0054383256
 C    0.0350169527   -0.1760229106    0.3526484256
 C    0.4589526191    0.7470830180    1.5049977283
 C   -1.4212161302   -0.6042780262    0.5578388939
 O   -2.3248523300    0.2132322212    0.6368461349
 N   -1.6296657011   -1.9486847865    0.6424371623
 C   -2.9474089977   -2.5385041250    0.7721081167
 C   -3.1963433648   -3.5656514752   -0.3222121836
 O   -2.1822210023   -4.5580951333   -0.2003519617
 H    1.1825535555    0.8948943515   -1.1583116614
 H   -0.0892455013   -0.1382599734   -1.8334556225
 H   -0.5220601065    1.3859492389   -1.0428109940
 H    0.6798689209   -1.0642617144    0.3515794290
 H    0.4301119957    0.2258847927    2.4672132310
 H    1.4769983068    1.1170465001    1.3483842986
 H   -0.2207211723    1.6013267741    1.5628813194
 H   -0.8597452033   -2.5862100461    0.5207474114
 H   -3.0532675517   -3.0272979173    1.7495275760
 H   -3.6724767361   -1.7241434989    0.7143603281
 H   -4.1999671191   -3.9996681613   -0.1971932064
 H   -3.1543696584   -3.0741601167   -1.3054115775
 H   -2.2470479688   -5.1563055863   -0.9499627024