15

 N   -0.0761135700    1.3783287837   -0.0937856881
 C    0.0190307944    0.0107083176   -0.0426703306
 N   -1.1593206453   -0.6348870960   -0.0508657852
 C   -1.1488595580   -1.9638776590   -0.0306136472
 C    0.0087299397   -2.7431217513    0.0115729653
 C    1.2213884932   -2.0774003755    0.0141385949
 C    1.2590468186   -0.6797355289   -0.0237384955
 C    2.5642524312   -0.0033092758   -0.0643470705
 O    3.6334748894   -0.5716827749   -0.0040471475
 H    0.6737919954    1.9439526815    0.2639835337
 H   -1.0070944387    1.7298814769    0.0696541016
 H   -2.1273562657   -2.4398947932   -0.0437130076
 H   -0.0519668580   -3.8240164685    0.0367159340
 H    2.1692711131   -2.6043803077    0.0360912129
 H    2.5348898508    1.1035486411   -0.1721170503