18

 C    0.0216318911    1.4651969422   -0.0242166116
 C    0.0171409134   -0.0412439154    0.0141496782
 C   -0.3509758998   -0.7963161887   -1.2874258132
 C   -0.0612272504   -2.2777725881   -1.1457356959
 N   -0.7428088232   -2.2730213887    0.2069816380
 C    0.2813293469   -2.1116603733    1.2511508872
 C    0.9327802536   -0.7432095139    0.9776655452
 O    1.9319835868   -0.2910142603    1.4797295211
 C   -1.2344533152   -0.8840279077   -0.0823352571
 H    1.0135976753    1.8327702268   -0.3034566746
 H   -0.7037251074    1.8501013157   -0.7473943549
 H   -0.2196245893    1.8846438347    0.9574106814
 H   -0.4923915582   -0.2286653342   -2.2000520159
 H   -0.6325892711   -2.8919115962   -1.8476500078
 H    0.9823434858   -2.6123569005   -1.1376931260
 H   -0.1954607243   -2.0874668165    2.2390945846
 H    1.0059764349   -2.9294367199    1.2457840708
 H   -2.2473919190   -0.5624446561    0.1258457305