19

 C    0.0413438219    1.4419128521    0.2370405639
 C    0.0096678630   -0.0042837161    0.0745199598
 C   -0.0039098828   -1.2017234686   -0.0541312580
 C   -0.0333629540   -2.6600064663   -0.2188950760
 O    0.7842524515   -3.3218372138    0.7518937999
 C   -0.0240615561   -4.1413775406    1.5946610579
 C   -1.4008277661   -4.0760328528    1.0032250158
 C   -1.4281863866   -3.2430117418   -0.0315878506
 C   -2.5642700094   -2.8552970208   -0.9179799299
 H    0.9489726553    1.7573820343    0.7633795344
 H    0.0282467151    1.9515962292   -0.7327084054
 H   -0.8182089357    1.8006736870    0.8138381983
 H    0.3614167624   -2.9044990145   -1.2190054676
 H    0.3887810761   -5.1612920367    1.6051234758
 H    0.0049014561   -3.7690874184    2.6317549869
 H   -2.2407831947   -4.6371260949    1.3947452104
 H   -3.4930135445   -3.3449237848   -0.6150364790
 H   -2.7187821080   -1.7704326500   -0.8970900983
 H   -2.3610662135   -3.1245652824   -1.9623463385