21

 C   -0.7181116169    0.8863273960   -0.7770013518
 C    0.3491816088   -0.0893687307   -0.3068302462
 C    1.6670978614   -0.1996258066   -1.1250342328
 C    2.4582030785   -0.2759360002    0.2148480392
 O    3.6698426113    0.4464254100    0.3085215357
 C    1.1980531509    0.2789316594    0.9411413142
 C    2.8362886027   -1.6962017545    0.5848563849
 C    2.8552634630   -2.1812196795    1.9663387459
 O    1.8054162292   -2.5570032674    1.0660683403
 H   -0.3005899121    1.8902424870   -0.9201053455
 H   -1.1562352752    0.5699496648   -1.7302696575
 H   -1.5323892789    0.9665408806   -0.0482095963
 H   -0.0804137784   -1.0846099303   -0.1671072142
 H    1.7787921341   -1.0306525084   -1.8271619263
 H    1.8906511396    0.7352601384   -1.6542202673
 H    3.5237511111    1.3210409574   -0.0656355766
 H    1.2882163835    1.3640049672    1.0659393444
 H    0.9141590282   -0.1653408630    1.8970760687
 H    3.5181156018   -2.1629661493   -0.1280481198
 H    3.5374060787   -2.9825512939    2.2441352859
 H    2.5600681488   -1.5170881568    2.7761258249