17

 O   -0.0829515652    1.2813940165   -0.3415462097
 C   -0.0518924262   -0.0580572769   -0.0233217765
 C   -0.3556613666   -1.1161258345   -1.0324837514
 C   -1.3363162385   -0.9096043757    0.1286796936
 O   -1.2444333220   -1.7517923191    1.2366147695
 C    0.1186265154   -1.7433690201    1.6905270673
 C    0.7640219858   -0.4294851323    1.1989057908
 C   -2.6122873827   -0.2355724114   -0.0951742807
 O   -2.7661420776    0.5982345571   -0.9716798044
 H   -0.8898289202    1.4367834026   -0.8611423091
 H   -0.7108403944   -0.7721996294   -1.9983542368
 H    0.1969674947   -2.0498181425   -1.0405535127
 H    0.1098245113   -1.8378515156    2.7789824135
 H    0.6441766112   -2.6149593882    1.2790943215
 H    1.8298820109   -0.5564357828    0.9901579854
 H    0.6501175830    0.3781467839    1.9275832423
 H   -3.4187808691   -0.4883059115    0.6211163875