21

 C   -0.0293323863    1.4617219450    0.1019119876
 C   -0.0502273668   -0.0436324293   -0.0228392769
 C    0.6592254564   -0.6567931153   -1.2473705921
 C    0.0923450664   -2.1141193594   -1.2873411234
 C   -0.7728445629   -2.1684615477   -0.0125729114
 C    0.1624928653   -2.0103675469    1.1978862777
 O    0.5382868353   -0.6153148159    1.1748578549
 C   -1.4192163178   -0.7608309157   -0.0293645061
 O   -2.2449664330   -0.4373453565    1.0633851999
 H    0.9923423705    1.8213161321    0.2550381629
 H   -0.4272253103    1.9253634236   -0.8054782490
 H   -0.6398564370    1.7870617467    0.9488266964
 H    0.4280255568   -0.1018059702   -2.1614273603
 H    1.7421486299   -0.6263375059   -1.1035400473
 H   -0.5189655320   -2.2780404427   -2.1799206619
 H    0.8781904549   -2.8742980459   -1.2864411281
 H   -1.4594863177   -3.0124079346    0.0567287861
 H   -0.3350624032   -2.2314569339    2.1501260352
 H    1.0567935445   -2.6411940970    1.1254605657
 H   -1.9997274807   -0.5796896457   -0.9385985419
 H   -1.6612697024   -0.2993268346    1.8197855120