19

 O    0.1830927817    1.3522275401    0.3776863547
 C    0.0841217815   -0.0120971121    0.0781254678
 C    1.1448640225   -0.6107830337   -0.8161338341
 C    1.1701101017   -0.8537478831    0.6805432171
 C   -1.3145763285   -0.5610992525    0.0189781795
 C   -2.4309861713    0.1109659094    0.7563323466
 C   -2.4167444809    0.1527366732   -0.7673373070
 C   -2.1634169079    1.3725378826   -1.4784460919
 C   -1.9572623045    2.3810573859   -2.1053770187
 H   -0.1722952090    1.8413991006   -0.3770649133
 H    0.8727588264   -1.4315298456   -1.4715486547
 H    1.8817746095    0.0729790556   -1.2213665323
 H    1.9167263139   -0.3234100767    1.2599219557
 H    0.9188153501   -1.8410585594    1.0527152590
 H   -1.3530564022   -1.6441218609   -0.0534473956
 H   -3.1965359585   -0.4933937812    1.2292208979
 H   -2.1812808040    1.0333562440    1.2660103487
 H   -3.1261148789   -0.5031176843   -1.2637375865
 H   -1.7956220816    3.2738862781   -2.6572029930