14

 N   -0.1184274668    1.4900633672    0.0851978005
 C   -0.0215206902    0.1522053574    0.0080264516
 O    1.0172122064   -0.4918820712   -0.0336409792
 C   -1.3773826863   -0.5477756895   -0.0264329598
 N   -2.4505442877    0.1337016854    0.0177442891
 N   -1.2001802840   -1.9184991817   -0.1064219938
 C   -2.1769638380   -2.8810211805   -0.1573427929
 N   -3.4226965498   -2.6069314702   -0.1359487077
 H    0.7128040802    2.0541570909    0.1145111748
 H   -1.0414155421    1.8967902631    0.1130482728
 H   -3.2686188400   -0.4784597020   -0.0139612392
 H   -0.2225888099   -2.1852559863   -0.1260082394
 H   -1.7533901447   -3.8897510538   -0.2172994862
 H   -3.9768561471   -3.4581728089   -0.1823990407