19

 C   -0.0270545541    1.4632624605   -0.0512721332
 C    1.2933065807    0.7127828010    0.0442860077
 O    1.9779350348    0.7084709332    1.2647935818
 C    2.0802424424   -0.6137208479    1.7920030671
 C    0.7091568168   -1.1257764937    2.2528602698
 C   -0.3505210007   -0.9883371735    1.1509589138
 C   -0.4369611652   -2.0025852213   -0.0181931968
 O   -0.3913016859   -0.9334676969   -0.9993543621
 C   -0.0073997302   -0.0228341284    0.0250307770
 H   -0.3703594716    2.0210685161    0.8143050194
 H   -0.2495347189    1.9151549077   -1.0125052489
 H    1.9269907516    0.6974894609   -0.8421279233
 H    2.5232662990   -1.2856363667    1.0408483691
 H    2.7713825259   -0.5528875933    2.6370593074
 H    0.7880849768   -2.1661433773    2.5909074546
 H    0.4028868374   -0.5323465137    3.1212846460
 H   -1.3403975265   -0.8060655031    1.5780504789
 H    0.4338593722   -2.6662944754   -0.1062830664
 H   -1.3553146444   -2.5907266782   -0.1019682118