19

 C    0.4697628471    1.4158018940   -0.5149307103
 C    0.0868726400    0.0380258198   -0.0309024178
 N    1.1623724492   -0.9603933296    0.1439922377
 C    0.4134464067   -0.4969728532    1.3188595288
 C    1.2149471578    0.2760615463    2.3438157787
 C    2.3841530917   -0.4158968142    2.9711383663
 N    2.6022931643    0.6634746485    2.0059132757
 C    0.4436179390    1.2228384674    3.1110349671
 C   -0.2406428005    1.9800405993    3.7466704314
 H    1.3725217290    1.7825026776   -0.0235176779
 H    0.6443058757    1.4071303247   -1.5960545829
 H   -0.3384525501    2.1245662810   -0.3074639524
 H   -0.8423148815   -0.3400087441   -0.4561682799
 H    0.8624479344   -1.8870686932   -0.1423857856
 H   -0.3168454151   -1.1735635624    1.7594990091
 H    2.6503803188   -0.1837312935    3.9975650735
 H    2.5744328637   -1.4391835791    2.6560525064
 H    2.7988327859    0.2368631484    1.0987284382
 H   -0.8291161863    2.6613829725    4.3095093842