16

 N   -0.3937219351    1.1303312444   -0.0597845857
 C   -0.1311946702   -0.0923549001    0.0434990950
 O    0.8990264480   -0.6638845250    0.7338165447
 C    0.9376836754   -2.0625120481    0.4425362648
 C   -0.4788505464   -2.3433338952   -0.0839940294
 C   -1.4477737117   -2.8600247749    0.9873963275
 C   -2.8742207044   -2.9760041912    0.4794458911
 O   -3.5218143409   -3.9892840723    0.5358186510
 O   -0.8898424077   -1.0505017343   -0.5490878002
 H    0.3128255803    1.6846198150    0.4175461857
 H    1.7056629335   -2.2592160789   -0.3136111775
 H    1.1784596978   -2.6064433614    1.3580469459
 H   -0.4700667862   -3.0128560755   -0.9476795172
 H   -1.1269293005   -3.8429396412    1.3451452300
 H   -1.4369711070   -2.1577958015    1.8326216392
 H   -3.2891979050   -2.0439104300    0.0429021551