18

 C   -0.1617923742    1.3924685390    0.2977193912
 C   -0.1796150333   -0.0449567795    0.0705917295
 C   -0.2009818882   -1.2371907656   -0.0999136517
 C   -0.2163848634   -2.6749662878   -0.3614577016
 O   -1.3279249091   -3.0312070075   -1.2038067814
 C    1.1325835764   -3.1479301960   -0.9476981569
 C    1.3221459394   -4.6659787899   -1.0654881181
 N    0.2413794036   -5.3520488436   -1.5264867719
 O    2.3840747065   -5.1939364228   -0.7949350143
 H    0.5774237693    1.8896635547   -0.3394521218
 H   -1.1400315588    1.8375239608    0.0860958381
 H    0.0876300926    1.6214307275    1.3393916924
 H   -0.4037139365   -3.2163617537    0.5734933183
 H   -1.3503144202   -2.3956366396   -1.9285773298
 H    1.2586432989   -2.6965802273   -1.9400696248
 H    1.9499010650   -2.7829561446   -0.3231016484
 H   -0.6441095544   -4.8834114802   -1.6501762926
 H    0.3059166064   -6.3556132740   -1.5729906262