15

 C   -0.0114772785    1.4519967360    0.0440682868
 N    0.0080622649    0.0050539183    0.0629046495
 C    0.0004810864   -0.7842212831   -1.0782870082
 O   -0.0225775987   -0.4266449180   -2.2279971905
 O    0.0244677820   -2.0850913499   -0.6565255780
 C    0.0470365887   -2.0984997170    0.7577342536
 N    0.0746486056   -3.2739491556    1.4923504676
 C    0.0365535127   -0.8246399101    1.1737654459
 O    0.0486106298   -0.2786462598    2.4023277445
 H    0.8805312645    1.8637806452    0.5254529087
 H   -0.0319602334    1.7514660964   -1.0044773447
 H   -0.8985447476    1.8401083520    0.5534461156
 H   -0.7419723604   -3.8603272647    1.3457746277
 H    0.9032224559   -3.8366618485    1.3219098950
 H    0.0673400880   -1.0107185414    3.0330082266