17

 N    0.0648428436   -1.1135229394   -0.0851197070
 C    0.0407732321    0.0409485239   -0.0313918887
 C   -0.0148539037    1.4835089194    0.0336355361
 C   -0.4049574408    2.2510718275    1.3231309309
 C    0.4283626609    3.3364899916    0.6478360996
 C   -0.0348644806    3.5551528348   -0.8512334540
 C    1.3761961228    3.0574312503   -1.2129106765
 N    1.3387303457    2.2530567078    0.0559235283
 C   -0.8304567626    2.2498618057   -1.0452924461
 H   -1.4675443416    2.4043439882    1.5168404057
 H    0.1073900280    1.8594756454    2.2028388782
 H    0.9020416302    4.1610047892    1.1789059038
 H   -0.4656938089    4.4841748402   -1.2247731276
 H    1.5188417764    2.4960353980   -2.1413801104
 H    2.1618909298    3.8105756969   -1.1079441212
 H   -0.7339872471    1.8365352781   -2.0514264542
 H   -1.8892886143    2.3084914023   -0.7853595668