21

 C    0.3312611785    1.2088444227    0.3322492186
 O   -0.3590817498    0.1958866140   -0.3705884759
 C    0.4211763174   -0.4171635673   -1.3488327930
 C    1.3815731190   -1.5410885439   -0.9410241057
 C    0.1097622228   -1.8222080784   -1.6795092870
 C   -1.1037430159   -2.7050003956   -1.3364855151
 C   -1.7154650912   -2.2321283068   -2.6911260109
 C   -0.2185180248   -2.5465803366   -2.9996843349
 C   -0.3913861124   -3.8376146166   -2.1410464142
 H    1.2159568019    0.8128236319    0.8515525190
 H    0.6590064908    2.0168290672   -0.3398140981
 H   -0.3624210522    1.6215508612    1.0687108250
 H    0.7554160755    0.2551437929   -2.1432649803
 H    2.3363935448   -1.6167928933   -1.4533106531
 H    1.4118043353   -1.7870954622    0.1164866917
 H   -1.6056300730   -2.7848565768   -0.3726350751
 H   -2.4517039976   -2.8993938858   -3.1481318835
 H   -2.0215857325   -1.1854841469   -2.7494383692
 H    0.2990842791   -2.4477000677   -3.9550044541
 H    0.5148637715   -4.2579599715   -1.6988104061
 H   -1.0378289171   -4.6141602105   -2.5596467982