15

 O   -0.5468591455    0.5449893862   -0.5604097171
 C    0.2492318624   -0.3638608141    0.1221246385
 C    1.6378202173   -0.4410130615   -0.5147831637
 O    1.9468130483    0.3356721906   -1.3837721429
 C    0.4099282139    0.0419026422    1.6150841467
 O    0.4098459853    1.1951182628    1.9455790364
 C    0.5001918934   -1.0857537867    2.6610034691
 C    1.2274330779   -2.2742366390    2.2416381805
 C    1.8384789444   -3.2486134281    1.8909160995
 H    0.0563659457    1.0561313609   -1.1236135284
 H   -0.1896735906   -1.3729882791    0.0889668932
 H    2.3230515505   -1.2192015054   -0.1366843363
 H    0.9313422691   -0.6508644624    3.5676162026
 H   -0.5385722929   -1.3546482154    2.9040045727
 H    2.3731691307   -4.1177935410    1.5950841494