16

 O   -0.1001602617    0.2598613654   -0.9507026990
 C   -0.0768446439    1.2892614806   -0.3308506627
 C   -1.2100262482    2.0190931487    0.2888603631
 C   -0.9725760618    2.4750065319    1.7377491901
 C   -0.6652692038    3.4058578756    0.6263580006
 N    0.7373784913    3.5251486777    0.2468864784
 C    1.2118550209    2.1717596695   -0.1229443973
 C    2.0921236629    1.5707584289    0.8750685120
 C    2.8007109827    1.0477993614    1.6929148593
 H   -2.2149426752    1.8035833048   -0.0488494022
 H   -1.8759597315    2.6529203504    2.3094219963
 H   -0.1563943712    2.0310082650    2.2962387679
 H   -1.2594175282    4.2998534922    0.4824536494
 H    0.7987552075    4.1181134866   -0.5729731959
 H    1.7352943255    2.2037940819   -1.0838174577
 H    3.4355843646    0.5929803493    2.4126460279