14

 N   -0.0523830901    1.0534953635    0.9967628445
 C   -0.0551303971    0.1294371387    0.1115272795
 C    1.2034466390   -0.2823637918   -0.5429077026
 N    1.5542874900   -1.1395943012   -1.4373107881
 N    0.7125953574   -1.9748572483   -2.0645905985
 C   -0.6354590785   -2.1595804361   -1.9635573226
 C   -1.5535892561   -1.5462754783   -1.1858934255
 C   -1.4202726870   -0.4850135696   -0.1957887165
 O   -2.3987044964   -0.0777867256    0.3966581278
 H    0.8968455380    1.4101481510    1.1427878928
 H    2.0612498088    0.2837304511   -0.1770366056
 H    1.2028706522   -2.5570242176   -2.7241356273
 H   -0.9717589783   -2.9389138675   -2.6414677858
 H   -2.5771549020   -1.8851004884   -1.2995144921