20

 O    0.0225402012    1.4338682813    0.4084104555
 C    0.0072641229    0.0689883372    0.0584108556
 C    0.2944840176   -0.9982831749    1.1564146188
 N   -0.9888846918   -1.7105290995    0.8414617693
 C   -2.0911127277   -1.3820274497    1.8096396914
 C   -2.5916266849   -0.2178069974    0.9213894881
 C   -3.5475482219   -0.6321429863   -0.2396894779
 C   -2.3299277719   -0.7647887251   -1.2111442910
 C   -1.3919663313   -0.5254609463   -0.0255311613
 H    0.9348065276    1.7402052974    0.4018372487
 H    0.5843547250   -0.1156542218   -0.8593282234
 H    1.1778790347   -1.6278251239    1.0129852192
 H    0.3229954461   -0.5586715426    2.1607158660
 H   -2.7942498884   -2.2114160431    1.9468357246
 H   -1.7176841872   -1.0805329559    2.7950919292
 H   -2.7674971338    0.7532121565    1.3829770323
 H   -4.0932395094   -1.5614221551   -0.0555036465
 H   -4.2671066700    0.1376889589   -0.5259634981
 H   -2.1994624106   -1.7190332529   -1.7278918554
 H   -2.2892420365    0.0468076431   -1.9442620851