21

 C   -0.0776955253    1.3598354214    0.0754695497
 O    0.0931098220   -0.0375826691    0.0576318553
 C    0.6803551708   -0.5421275919   -1.1369591082
 C    1.2868022708   -1.9017627882   -0.7830351356
 O    1.6884553695   -2.5859794223   -1.9528104696
 C    0.5993726286   -2.9329538113   -2.7829189792
 C   -0.4005331100   -1.8194110073   -2.9865749517
 C   -1.4417852747   -2.0542094412   -4.0439832576
 C   -0.3354397066   -0.7173351207   -2.2386430780
 H    0.8796865894    1.8879393574   -0.0581326038
 H   -0.7730958357    1.7127182244   -0.7008157756
 H   -0.4914948909    1.6217667828    1.0526296159
 H    1.4834411628    0.1421130147   -1.4603853435
 H    2.1778797789   -1.7841006516   -0.1619283411
 H    0.5392504263   -2.4764117534   -0.2136507822
 H    1.0322271508   -3.2353371961   -3.7447375515
 H    0.0737498056   -3.8198223443   -2.3801507670
 H   -2.0108998079   -2.9710424666   -3.8427495580
 H   -2.1491967580   -1.2229677967   -4.0993195454
 H   -0.9845421936   -2.1818900613   -5.0336355399
 H   -1.0493563027    0.0888922112   -2.3903075631