17

 O   -0.0129010927   -0.1181633686    0.1663489865
 C   -0.0092125279    1.0934800065    0.0599060526
 C   -1.2767815113    1.9039387975   -0.1303164911
 C   -1.4369666520    3.0802150173    0.8501432467
 C   -0.7275131236    4.3549667037    0.3885994458
 C    0.7401183406    4.2257786365    0.0979916617
 C    1.5074830120    3.1361622243   -0.0034929484
 N    1.1908075067    1.7779014789    0.1037457828
 H   -1.3005740821    2.2787546791   -1.1624411997
 H   -2.0928980514    1.1868912132   -0.0263065133
 H   -2.5034508756    3.2992823145    0.9650697332
 H   -1.0756886679    2.7842532037    1.8419524964
 H   -1.2358726689    4.7405435157   -0.5089577021
 H   -0.8638795922    5.1373655585    1.1476645842
 H    1.2626527080    5.1646637564   -0.0635317669
 H    2.5659849821    3.2738451335   -0.2023043960
 H    1.9725750563    1.1433631293    0.1838850875