16

 O    0.0228317747    1.4301828740    0.0064441176
 C    0.0083217683    0.0150738986    0.0022106941
 C   -1.4077037448   -0.4694643159    0.0123578367
 C   -2.4862456550    0.3488041427    0.0232778451
 C   -3.8042950126   -0.2100213231    0.0323720844
 N   -4.0358918108   -1.4886163478    0.0307843890
 N   -2.9504665987   -2.2838893814    0.0199072780
 C   -1.6029303387   -1.9157087583    0.0099758279
 N   -0.6053016906   -2.7282647715   -0.0003636884
 H    0.9398454975    1.7165828946    0.0001374645
 H    0.5134270540   -0.4064120107   -0.8810511708
 H    0.5279100899   -0.4118748617    0.8743566574
 H   -2.3491983271    1.4229816347    0.0251340697
 H   -4.6831824921    0.4246606901    0.0411528003
 H   -3.1718107574   -3.2690764738    0.0190174711
 H   -0.9057842364   -3.7041996006   -0.0006126867