17

 C    0.1642192454    1.3511010469    0.1906877670
 O   -0.2942010441    0.0838222084   -0.2312094229
 C    0.4720533931   -0.4797665730   -1.2634602771
 C    1.7385365178   -1.2812419206   -0.8888585529
 C    0.9139585235   -2.4981591348   -0.3713274571
 O    1.6188838994   -3.4735599751   -1.1929495385
 C    1.5008997510   -2.3029134291   -2.0495768551
 C    0.0667074411   -1.9240695731   -1.5830467957
 O   -1.0966423966   -2.3892878098   -2.1349269904
 H    1.1777420339    1.3009083008    0.6146076419
 H    0.1719125496    2.0739916185   -0.6392844164
 H   -0.5237245125    1.7058610263    0.9616476216
 H    0.5671081163    0.2115034684   -2.1139826998
 H    2.7046498394   -0.9525801001   -0.5168215437
 H    0.6220269394   -2.7709974125    0.6402251138
 H    1.9259168585   -2.3315218465   -3.0514452274
 H   -1.8322404651   -2.0426096748   -1.6164342072