18

 O   -0.6095175910    0.6747792630    0.7432360359
 C    0.1463706730    0.9203461741   -0.1643810962
 C    1.2451106052    1.9502481951   -0.1356346149
 C    1.3976513402    2.9197308821   -1.3058248134
 C    0.4906200138    4.0929077110   -1.1897088247
 C   -0.7600523659    4.0304175149   -0.3201716889
 C   -0.1873542521    3.7232075489    1.0876071741
 C    1.2147976096    3.2100199738    0.7791299527
 N    1.7311310381    4.0692952705   -0.3793272884
 H    0.0789933667    0.3613713005   -1.1284724973
 H    2.1891120182    1.4061639393   -0.0001118893
 H    1.9827684074    2.7284078722   -2.2005719493
 H    0.5238721021    4.7972864493   -2.0152547036
 H   -1.2955387456    4.9830178106   -0.3455048566
 H   -1.4594036382    3.2598741321   -0.6586782561
 H   -0.1106464010    4.6408819545    1.6792107255
 H   -0.7802163507    2.9961848743    1.6436856968
 H    1.8993849103    3.1982183237    1.6258571638