18

 C   -0.0396225879    1.5176810300    0.0503160524
 C    0.0013681182    0.0124167971    0.0000893895
 C    0.0370811541   -0.6590084843   -1.2265781818
 C    0.0366633158    0.0699376332   -2.5457231206
 C    0.0739269383   -2.0625421440   -1.1721350893
 O    0.1094287430   -2.7569141846   -2.3357171488
 N    0.0771588561   -2.7845509869   -0.0584525062
 C    0.0426057632   -2.1212801588    1.1013606764
 C    0.0044405641   -0.7396638769    1.1811807826
 H    0.8348421860    1.9573582745   -0.4431031877
 H   -0.9216363417    1.9103989309   -0.4686134499
 H   -0.0642353177    1.8782928503    1.0810033728
 H    0.9010301742    0.7390244393   -2.6338985373
 H    0.0663475447   -0.6318256107   -3.3786891996
 H   -0.8581679272    0.6937461218   -2.6583668535
 H    0.1305864813   -3.6883902727   -2.0764628437
 H    0.0459216437   -2.7311911938    2.0011641993
 H   -0.0227093982   -0.2474402142    2.1469962753