17

 O    0.0636686590    1.4355632080    0.1678486089
 C    0.0412388578    0.0663075903   -0.1843687126
 C   -1.3556029178   -0.5338968468   -0.0375471132
 C   -1.4360375744   -2.1188974902   -0.0763760268
 N   -1.8792596432   -2.0119211187    1.3196600750
 N   -2.3311767277   -2.6565910477    2.4006940247
 C   -2.6100738101   -1.6280640777    3.2210844340
 C   -2.3535850376   -0.3479132590    2.6526232717
 C   -1.8745600798   -0.6736586468    1.3959088540
 H   -0.1224412808    1.4943124062    1.1114436794
 H    0.3623876848    0.0149102829   -1.2303188528
 H    0.7569646010   -0.5195482426    0.4135953978
 H   -2.0507463641   -0.0426577559   -0.7233474892
 H   -2.1896673664   -2.5335921307   -0.7500166875
 H   -0.4843070340   -2.6420102743   -0.2058587278
 H   -2.9913842341   -1.8367454007    4.2104525954
 H   -2.5155998226    0.6152509538    3.1067215690