17

 C    0.1188940472    1.5334839285    0.0254308002
 O    1.2163191792    0.6253546911   -0.0429202802
 C   -0.1102690371    0.0817323539    0.0134881193
 C   -0.4513037465   -0.6641556255    1.2709318759
 C   -1.9139403402   -1.2273575203    1.3563739986
 O   -1.4949078762   -2.2859368835    0.4312002938
 C   -0.2538174786   -2.2213997009    1.2119033290
 C   -0.7388538983   -2.6433939804    2.6085767062
 C   -1.8799632931   -1.9583957936    2.7092937375
 H    0.0256948741    2.0850068842    0.9607719200
 H   -0.0668629221    2.1162417032   -0.8758449580
 H   -0.4466036350   -0.3823253185   -0.9117538324
 H   -0.0601046666   -0.1509930047    2.1525216961
 H   -2.7990633925   -0.6743122291    1.0445611063
 H    0.6039212888   -2.7050201636    0.7475054576
 H   -0.2451593172   -3.3113583097    3.2982438484
 H   -2.6065474858   -1.8952935512    3.5053242717