23

 C   -0.0442811598    1.4958127148    0.0179080999
 C    0.0311942198   -0.0463637126    0.0083806465
 C    0.6735112695   -0.5675407693   -1.2804402178
 C    0.8222449425   -0.4838134934    1.2441271594
 O    2.0295610403   -0.5919770644    1.2159646201
 C    0.0272734220   -0.7600619372    2.5164494278
 C   -0.5695815220   -2.1820121895    2.4537699877
 C    0.9002315670   -0.5760735770    3.7568342870
 O    0.0684108409   -0.7470409325    4.8970035898
 H    0.9592620273    1.9254522254   -0.0625040814
 H   -0.6378755235    1.8513707117   -0.8297031808
 H   -0.5056656774    1.8788395871    0.9339318444
 H   -0.9908701854   -0.4343927887    0.0983164617
 H    1.7158594432   -0.2448459374   -1.3402864643
 H    0.6621783156   -1.6611322724   -1.3171398296
 H    0.1378578639   -0.1916897453   -2.1575870143
 H   -0.8055730992   -0.0467823516    2.5720095261
 H    0.2263417362   -2.9272866520    2.3513021938
 H   -1.1150755208   -2.3851394311    3.3772366329
 H   -1.2567602167   -2.2987468864    1.6106981667
 H    1.7203450926   -1.3064121365    3.7358935313
 H    1.3566789033    0.4248715721    3.7420556568
 H    0.6254643304   -0.7193510135    5.6798517464