18

 O   -0.0777218015   -0.0526591732   -0.0030574473
 C   -0.0566091360    1.1585242580    0.0345919604
 N   -1.1487575170    1.9830833127    0.0642987890
 C   -0.8653819144    3.4056453501    0.0284957737
 C    0.6380724625    3.4674079038    0.3740272996
 C    0.9481705225    3.6148252146    1.8759015099
 O    2.1643131917    2.9228230391    2.0762276349
 C    2.1200545632    1.7397202059    1.2837724685
 C    1.1871924646    2.0532493446    0.0857928251
 H   -2.0762857947    1.5979563753   -0.0198901517
 H   -1.0672510125    3.8357682818   -0.9614758989
 H   -1.4770834088    3.9516493940    0.7568993397
 H    1.1488909243    4.2455351991   -0.1950516465
 H    1.0904336023    4.6498063487    2.1975365644
 H    0.1322839955    3.1724373994    2.4744392400
 H    3.1433744687    1.5065211543    0.9801618060
 H    1.7289644393    0.8892672183    1.8593434628
 H    1.7124579803    1.9694292733   -0.8683569095