24

 C    0.3078081116    1.6872827722   -0.6953656427
 C   -0.0008525160    0.1932018435   -0.8116615571
 C    1.2240837003   -0.6950630522   -0.5840093649
 O    1.7802156863   -0.5195689343    0.7180502627
 C    0.9368967400   -2.1844462729   -0.8324074914
 N    0.5851168918   -2.4156717523   -2.2275937829
 C    1.6481082111   -2.8396903141   -3.1364133205
 C    0.5517590564   -3.7784732693   -2.7631972896
 C    0.8177004863   -5.0075963246   -1.9212794556
 H    0.7611282790    1.9165338108    0.2731815880
 H    1.0121011671    2.0039380290   -1.4727582107
 H   -0.5989191875    2.2903824257   -0.8025804543
 H   -0.7719650801   -0.0895289181   -0.0778194101
 H   -0.4150588946   -0.0467121221   -1.7961282853
 H    2.0243401597   -0.3839311681   -1.2683572950
 H    1.0806639450   -0.6951716242    1.3575903375
 H    1.8192148455   -2.7500643633   -0.4954390465
 H    0.0884261948   -2.4966030921   -0.2066987928
 H    1.6717405434   -2.3570599408   -4.1101654999
 H    2.6296509423   -3.0379481173   -2.7051060181
 H   -0.2534545017   -3.9143025179   -3.4849302464
 H    1.6806607886   -4.8850298723   -1.2626324800
 H   -0.0506766833   -5.2592452354   -1.3020240532
 H    1.0167589939   -5.8656776799   -2.5720060114