20

 C   -0.1045840767    1.6749067171    0.0624361079
 C    0.0086198272    0.1562437060   -0.0036910260
 C   -1.3503540866   -0.5426394254   -0.0233937960
 C   -1.2576516221   -2.0528408443    0.1816835488
 C   -2.4716037675   -2.8603886752   -0.2289347650
 O   -0.2710856174   -2.5692173056    0.6567517752
 O    0.6989070359   -0.1821004715   -1.2159844325
 C    1.7845193450   -0.9797878343   -1.1390779446
 N    2.4120167120   -1.2812456242   -2.1924376347
 H    0.8893725335    2.1296047713    0.0521418865
 H   -0.6630897347    2.0587938674   -0.7966397965
 H   -0.6184534965    1.9841003425    0.9778947765
 H    0.5815716127   -0.2186481902    0.8520773618
 H   -1.9890423739   -0.1479926191    0.7795104449
 H   -1.8705470565   -0.3219627026   -0.9625945447
 H   -3.3924814791   -2.4132602935    0.1607604559
 H   -2.5539391355   -2.8549346120   -1.3224714140
 H   -2.3741245911   -3.8891233126    0.1194264624
 H    2.0168061800   -1.3061564934   -0.1191288341
 H    3.1979070712   -1.8848027806   -1.9595256317