22

 C    0.4224751610    0.8262865579   -0.4849961967
 O    0.8726311465   -0.4670773969   -0.1230215742
 C    0.8772945086   -0.7256865963    1.2565048138
 C    1.9433342260    0.0170541857    2.0341984796
 C   -0.4580215055   -1.0279021367    1.9118898430
 C    0.5313346664   -2.1444020155    1.6727144261
 N    0.2073307072   -3.2732671164    0.8451040899
 C   -0.3880142066   -3.1517430865   -0.4783738501
 C    1.0271065360   -3.5969715319   -0.3192983507
 H    1.1117750207    1.6131146502   -0.1505914871
 H    0.3714841991    0.8495394590   -1.5761271446
 H   -0.5744342973    1.0369889935   -0.0734244467
 H    1.7553268138    1.0962095377    2.0584606451
 H    1.9740793683   -0.3296666517    3.0708552896
 H    2.9289751309   -0.1487951977    1.5866230706
 H   -0.6559941565   -0.6907737571    2.9240786022
 H   -1.3222052891   -1.0188363081    1.2553893071
 H    1.0815651642   -2.4771519056    2.5503771535
 H   -1.1687507373   -3.8785753994   -0.6907603860
 H   -0.5397374646   -2.1648407944   -0.8993135382
 H    1.7920239659   -2.8845658576   -0.6167358871
 H    1.2955212622   -4.6448028822   -0.4288750990