18

 C   -0.0178553272    1.5055176811    0.0516573006
 C    0.0093605279   -0.0017717908   -0.0298762439
 C   -0.5255003892   -0.6917946144   -1.2416586442
 C   -1.2059400992   -1.7813784969   -0.8915586496
 C   -1.2057417202   -1.9424418066    0.6110736977
 N   -0.4351180614   -0.7926752867    1.1391832167
 C    1.0121379938   -0.7885982470    0.7833341186
 C    1.6852461994   -1.9553921121    0.2958225967
 C    2.2706175978   -2.9461821076   -0.0563129981
 H    0.6461682772    1.9467274808   -0.6996277013
 H   -1.0304732429    1.8829690561   -0.1258360079
 H    0.3039930294    1.8462020702    1.0388211865
 H   -0.3587103235   -0.3270770351   -2.2474182988
 H   -1.6732639894   -2.4893204051   -1.5658483972
 H   -2.2172997818   -1.9100231671    1.0355331296
 H   -0.7506948958   -2.8886519621    0.9294505421
 H    1.5928858569   -0.2206402009    1.5085430451
 H    2.7927591381   -3.8106313961   -0.3842162526