15

 N    0.1617063157    1.4416774578    0.0082675777
 C    0.0036834566    0.0423428520   -0.0162175928
 C   -1.0987627595   -0.7688073600   -0.0309466960
 O   -2.3748106593   -0.2925543019   -0.0231903057
 C   -0.6631447505   -2.1357916384   -0.0546992939
 C    0.7020088932   -2.1246537103   -0.0537779826
 N    1.1265902130   -0.8099075124   -0.0306025016
 C    2.4578363006   -0.4051298424   -0.0229580261
 O    3.3874895497   -1.1735873775   -0.0359318010
 H   -0.2609207196    1.8548834675    0.8332294871
 H   -0.2613266794    1.8834697825   -0.8015273708
 H   -2.9836273485   -1.0364884012   -0.0369609379
 H   -1.2931806337   -3.0132088221   -0.0703715833
 H    1.4312553551   -2.9163792977   -0.0672366621
 H    2.5444156265    0.6909014142   -0.0038067510