15

 O   -0.5826599030    0.8989275247    0.5309498685
 C    0.0699186333    1.3294686493   -0.3860277855
 C    1.3522595413    2.0931050695   -0.2064311021
 C    1.3541620172    3.5976687895   -0.0401098171
 C    0.0561419569    4.3514720068   -0.1228238454
 O   -0.9457048528    3.8991044446   -0.6166603090
 C    1.6723735509    2.7053371180    1.1403467462
 C    0.7037743810    2.6225370906    2.2870581130
 O   -0.1587698130    3.4392549058    2.4900079572
 H   -0.2055018012    1.1289417495   -1.4402870557
 H    2.1780650854    1.6827340521   -0.7833731826
 H    2.1957012493    4.1501584116   -0.4522011080
 H    0.1015171869    5.3944859450    0.2481532183
 H    2.7116469943    2.6344333430    1.4535957072
 H    0.8816589632    1.7795356201    2.9836697249