18

 C   -0.1677283109    1.4365640881   -0.0572096708
 N    0.0612312421    0.0169742326    0.1058914707
 C   -1.1119129475   -0.8424892909    0.3816601438
 C   -0.2996024538   -1.5116092731    1.4934600683
 O   -0.4425825011   -2.4565976288    2.2083011583
 C    0.7919854587   -0.4347581873    1.3185333145
 C    2.2116183514   -0.8845718311    1.0998586584
 C    2.7616772761   -2.0504043368    1.8050685353
 O    2.3841282825   -2.1284587898    0.4268095723
 H    0.7881842809    1.9558398221   -0.1780595050
 H   -0.7579552424    1.6157072548   -0.9611849283
 H   -0.7021779968    1.8949773369    0.7975517764
 H   -1.9873788090   -0.3107053110    0.7913042835
 H   -1.4368804510   -1.4737873138   -0.4519518826
 H    0.7529125602    0.2942872776    2.1485680817
 H    2.8980395636   -0.1004629607    0.7749061330
 H    3.8316943786   -2.0994073586    2.0001121324
 H    2.1234247384   -2.6068201805    2.4877879783