23

 C    0.1338753322    1.5992881827   -0.0105173364
 C   -0.0058553309    0.0687330116    0.0394097660
 C    0.5933322287   -0.6353926521   -1.2025208611
 C   -0.1026077294   -0.2669410668   -2.4992358782
 C    0.4227628540    0.8203192282   -3.4116002964
 C    0.4692568435   -0.6210689154   -3.8556699762
 C    1.7850521550   -1.3491516580   -4.0286598001
 C    0.6943409787   -0.4590864122    1.2754081094
 O    0.1836550166   -1.1225815850    2.1402000901
 H    1.1884543723    1.8979798184   -0.0377206431
 H   -0.3486801107    2.0031459595   -0.9030108712
 H   -0.3248036336    2.0651679492    0.8670864185
 H   -1.0622201364   -0.2074382505    0.1323284329
 H    1.6629893098   -0.3999347700   -1.2646111283
 H    0.5239958543   -1.7204849459   -1.0490790505
 H   -1.1865497143   -0.3368442563   -2.4341121314
 H   -0.2795173439    1.4986164054   -3.8844478315
 H    1.3663165859    1.2839243465   -3.1379454575
 H   -0.2777558930   -0.8992955741   -4.5951838525
 H    2.5367689001   -1.0184528434   -3.3062144720
 H    1.6630846316   -2.4315952514   -3.9083534776
 H    2.1954704451   -1.1717378422   -5.0287678117
 H    1.7765527545   -0.1832221984    1.3305672490