20

 C   -0.2779044986    1.3669575167   -0.2264126082
 C    1.1544846816    1.4286747614    0.2378943820
 C    0.5008259454    0.0890269862   -0.0131107045
 C    0.1530880423   -0.7637625856    1.1723673600
 C   -0.6361410325   -2.0491177675    1.2810753539
 C   -0.2376499308   -3.1916978858    0.3048320848
 N    0.8201504426   -2.7225130489   -0.6279422052
 C    1.1631476941   -3.1321445711    0.7590045918
 C    0.8249905360   -1.9870772133    1.7547473993
 H   -1.0528707788    1.6174140778    0.4916058576
 H   -0.5087119139    1.6621937169   -1.2441822583
 H    1.9137129364    1.7666509515   -0.4589901693
 H    1.3396872919    1.7206012589    1.2671479457
 H    0.8103491861   -0.4438775130   -0.8973661404
 H   -0.1452125359   -0.1264508204    2.0093276513
 H   -1.5262628723   -2.1228854905    1.8943051573
 H   -0.8616721743   -4.0412445519    0.0597977574
 H    1.0487776164   -3.5149207116   -1.2289113264
 H    1.8754663554   -3.9247968990    0.9473617419
 H    1.1894412487   -2.0069028607    2.7748290096