17

 C   -0.0875344950    1.5594710235    0.0630989829
 C    0.0705401782    0.0572288129    0.0638458577
 C    1.3629572626   -0.6542843256   -0.2267485058
 O    2.5602669123    0.0892264802   -0.0569958399
 C    2.6162893758    0.4089727877    1.2736431678
 C    3.7862672507    1.2348456035    1.6806741147
 N    1.6805245675   -0.0248409931    2.0250313969
 C    0.7610384553   -0.7339080912    1.1703375011
 H    0.7406418973    2.0599993005    0.5685245508
 H   -0.1385130330    1.9451270959   -0.9605021949
 H   -1.0083482692    1.8470761204    0.5803892029
 H   -0.7813785096   -0.4816111256   -0.3452964948
 H    1.4613932683   -1.4455731042   -0.9593319241
 H    3.7468637220    2.2206255041    1.2060042753
 H    3.7859120855    1.3562397942    2.7634205690
 H    4.7171685873    0.7567786897    1.3604618673
 H    0.2764150543   -1.6039009630    1.5972601630