18

 C   -0.0874926990    1.5342531873    0.1604995887
 C   -0.0190868939    0.0105261807    0.0009739812
 C   -1.4199687527   -0.6125817519    0.0065556734
 C    0.7308651747   -0.3953718320   -1.2912406795
 C    2.1678853335   -0.0058329469   -1.2890721043
 N    2.7206006562    0.8861844256   -2.0616840451
 O    4.0256480373    0.9009657827   -1.6981331320
 N    4.2164178512   -0.0232445156   -0.6752630372
 N    3.1089316277   -0.5625115408   -0.4323063958
 H    0.9066635170    1.9910309106    0.1665853395
 H   -0.6564071182    1.9874211648   -0.6599036746
 H   -0.5837307231    1.8025762589    1.0981287167
 H    0.5447364981   -0.4025293128    0.8472575618
 H   -2.0170676749   -0.2439106828   -0.8359258311
 H   -1.3749635134   -1.7041347117   -0.0661297089
 H   -1.9542531866   -0.3587769877    0.9271677718
 H    0.6757873522   -1.4831460021   -1.4126304030
 H    0.2521662640    0.0586815838   -2.1645208216