19

 C    0.0942029449    1.5348487884    0.0083994410
 C    0.0798112267    0.0240080114    0.0043280645
 O    0.7405725178   -0.4431270044   -1.1552183218
 C    1.0854482195   -1.8028583864   -1.0432132845
 C    0.3157930550   -2.6828726867    0.0003013596
 C    1.5610565186   -3.6031111661    0.0134307177
 C    2.1567640572   -2.1744427324    0.0245197386
 C    1.0591816828   -1.8082888977    1.0671613983
 O    0.7115347163   -0.4491353477    1.1775495268
 H    1.1268212424    1.8915030500    0.0222966206
 H   -0.4036945020    1.9135345773   -0.8873722338
 H   -0.4260758406    1.9089630574    0.8933064801
 H   -0.9537052222   -0.3651723915   -0.0095338245
 H    1.2162189491   -2.2039870358   -2.0509445465
 H   -0.7298299615   -2.9915699101   -0.0135067934
 H    1.7096724782   -4.2002185162    0.9164864678
 H    1.7321381685   -4.1955735912   -0.8887072452
 H    3.2053605111   -1.8781285636    0.0383304067
 H    1.1648648784   -2.2146115547    2.0757549881