22

 C    0.0452987242    1.4642444624   -0.1747599282
 C    0.0368049877   -0.0240464276    0.1342983329
 O   -1.2520083844   -0.5293007309   -0.1501219821
 C   -1.4011063933   -1.9363904241   -0.0129677104
 C   -1.5561970592   -2.3474623127    1.4559059399
 C   -2.6044433696   -2.3623098621   -0.8357525959
 C   -3.8129238284   -1.4699184784   -0.9603757036
 C   -2.9198449678   -1.7109362999   -2.1546201924
 H    1.0298399987    1.8921130045    0.0371453822
 H   -0.1915662766    1.6400116423   -1.2280154572
 H   -0.6981504575    1.9862410194    0.4344305347
 H    0.7910002900   -0.5496523546   -0.4751970084
 H    0.3030275011   -0.1913026927    1.1897547631
 H   -0.5036024542   -2.4285450255   -0.4277257908
 H   -2.4388545366   -1.8671992944    1.8884633305
 H   -1.6777380979   -3.4325746278    1.5374002011
 H   -0.6811711017   -2.0672202518    2.0494901594
 H   -2.7997939579   -3.4290173169   -0.7658189959
 H   -4.7957116101   -1.9280480382   -0.9439919562
 H   -3.7564238403   -0.4926672988   -0.4962694101
 H   -2.2845720193   -0.8891836820   -2.4626609409
 H   -3.2868093770   -2.3355415502   -2.9617373717