21

 C   -0.1364755116    1.5203547775    0.0375646122
 C    0.0314267245    0.0080404744   -0.0825195184
 N    0.7859054112   -0.5340949210    1.0329845094
 C    2.2339759364   -0.2630205160    1.1449521770
 C    2.4376258143   -1.7004088582    1.6945273831
 C    2.5203407750   -1.8056179631    3.2104682308
 C    1.0294159736   -1.9844758345    1.0697056979
 C    0.0558761157   -2.7737581492    1.8247921393
 N   -0.7016861523   -3.4090810322    2.4236952449
 H    0.8334870581    2.0286975795    0.0298643434
 H   -0.7212413722    1.9084136240   -0.8014271687
 H   -0.6474103903    1.7775832910    0.9694844478
 H   -0.9519316498   -0.4772768704   -0.0828975944
 H    0.5126770660   -0.2404741911   -1.0496966692
 H    2.7240063797   -0.1116748560    0.1691371163
 H    2.4953802296    0.5675390928    1.8082556899
 H    3.2404373130   -2.2664795173    1.2195099503
 H    1.7195017980   -1.2332603635    3.6876698409
 H    2.4362706148   -2.8449939715    3.5419104303
 H    3.4791837531   -1.4134368651    3.5646739382
 H    1.1309074831   -2.4334322099    0.0670433090