15

 O   -0.0113219051    0.0804808102   -0.3744850122
 C    0.0269720051    1.2638296529   -0.1243507406
 N    1.1497658053    1.9226038796    0.2815621897
 C    2.5465715144    1.4720864955    0.1583241795
 C    2.9682841858    2.9548607965    0.0464034693
 C    2.2079165593    3.6421092280   -1.0755844346
 C    1.4821391002    3.3334900124    0.1964611640
 C    4.1061802544    3.5288935022    0.6794618607
 N    5.0385082343    3.9861250684    1.1904208888
 H   -0.8553492352    1.9344461160   -0.1590947469
 H    2.9099855676    0.9890299802    1.0681629645
 H    2.7446349702    0.8373068776   -0.7094303709
 H    2.4728239464    4.6837871864   -1.2219155341
 H    1.9841437508    3.0858276243   -1.9811487955
 H    1.0294528964    4.0721120597    0.8460308484