17

 O   -0.0390879963   -0.0098044063   -0.0856402249
 C   -0.0123605948    1.1946246646    0.0051514547
 C   -1.2824914372    2.0256420257   -0.0329434478
 O   -1.5555168993    2.8580918829    1.1101442821
 C   -1.0787218953    3.4871708766   -0.0763473764
 C    0.3741144464    3.9572510057   -0.0732524986
 C    1.1625841873    3.2050765870    1.0324911873
 C    1.2668378183    2.0149606249    0.0306847607
 C    1.1616010247    3.0955753360   -1.1051549034
 H   -2.1535464596    1.5374948876   -0.4637764305
 H   -1.8114217490    4.1072490048   -0.5894475185
 H    0.4511114828    5.0446680658   -0.1267130139
 H    2.1453048370    3.6570517023    1.1849439908
 H    0.6703546324    3.0394892741    1.9894342802
 H    2.1325278918    1.3532734283    0.0588172825
 H    0.6632786901    2.8211592033   -2.0390892821
 H    2.1457635407    3.5150337268   -1.3271847719