14

 N    0.0282537438    1.3376795056    0.0092729382
 N    1.2768068797    1.8576669229   -0.0000586462
 C    2.1050640408    0.8296446485   -0.0137411158
 C    1.3956639773   -0.4080093775   -0.0134705008
 C    0.0343596248   -0.0270548878    0.0018719989
 C   -0.9768888973   -0.9969993038    0.0065115791
 N   -0.6778830842   -2.2848646376   -0.0033533627
 C    0.6246928003   -2.6557968514   -0.0180670459
 C    1.6928020297   -1.7782517253   -0.0237575144
 H   -0.7580600427    1.9639149769    0.0203890170
 H    3.1713922410    0.9990192932   -0.0232458359
 H   -2.0307064578   -0.7265681279    0.0182501443
 H    0.8003438947   -3.7275992174   -0.0255665473
 H    2.7133046502   -2.1441632885   -0.0356980985