19

 C    0.3940380210    1.3264959386   -0.3034876444
 O    0.2141637318   -0.0826201358   -0.1096079449
 C    0.8301899186   -0.5907242820    0.9727574885
 O    1.4869688940    0.0691755186    1.7435846181
 C    0.6217505980   -2.0718538981    1.1063143980
 C    1.8237363362   -2.8467388732    1.5997610974
 C    0.6651468972   -2.6219850195    2.5243617982
 O   -0.1560613047   -2.7198282918    0.1578243025
 C   -1.5557971268   -2.5348946528    0.3052578145
 H    1.4528779350    1.5641390655   -0.4315364314
 H   -0.1653078452    1.5741035200   -1.2055109056
 H    0.0107267694    1.8862190389    0.5533329280
 H    1.9410075778   -3.8306054915    1.1615425668
 H    2.7335182897   -2.2852306446    1.7721138235
 H    0.7820851518   -1.9047254431    3.3272614981
 H    0.0084099298   -3.4608187477    2.7235162979
 H   -1.9043265377   -2.8697067658    1.2919796689
 H   -1.8415381944   -1.4867525655    0.1611645392
 H   -2.0319540917   -3.1445825303   -0.4657553534