20

 C    0.0669215825    1.5263129660    0.0537104657
 C   -0.0922070339    0.0330089745   -0.2641554780
 C   -1.4959226600   -0.4525758210   -0.0361262652
 C   -1.9726675832   -1.0126972852    1.2468504685
 N   -1.8493652806   -1.9331084042    0.0950632775
 C   -3.0620793673   -1.6585645522   -0.7589821968
 C   -2.6844151102   -0.1777253370   -0.9649745900
 C   -3.0087105075   -2.5417000417   -1.9872131158
 O   -3.0638307335   -2.1458146870   -3.1225261894
 H    1.0928896501    1.8574228325   -0.1308656018
 H   -0.5962987919    2.1370688204   -0.5679813564
 H   -0.1727443913    1.7355760278    1.1013725139
 H    0.1893769259   -0.1555160008   -1.3078225244
 H    0.5905723821   -0.5603870936    0.3548263542
 H   -1.2319492590   -1.2063690535    2.0172271918
 H   -2.9661621629   -0.7751352761    1.6237785291
 H   -4.0054946091   -1.8709453063   -0.2348891576
 H   -3.3989548281    0.5826741824   -0.6406475171
 H   -2.3995721712    0.0153180520   -2.0011143295
 H   -2.9016635109   -3.6225477169   -1.7477208787