17

 O   -0.0006309011    0.6839952987    1.2865631345
 C   -0.0684713805    1.5379458490    0.4527922630
 C   -1.2636625408    1.9320142760   -0.4127962683
 C   -0.8836882383    3.3129206887   -0.9613651225
 C   -1.4080515305    4.4499671548   -0.0529078848
 C   -1.0281174024    5.7752101901   -0.5254388589
 C   -0.6971674475    6.8532779319   -0.9416212249
 C    0.6544055640    3.2222409597   -0.9479762372
 O    0.9887530664    2.3352390101    0.1327526411
 H   -1.3624561206    1.1888017864   -1.2116007421
 H   -2.1826350947    1.9061029757    0.1757378866
 H   -1.2503114377    3.4783316608   -1.9766106209
 H   -2.5009589967    4.3795850705    0.0089174077
 H   -1.0336000598    4.3020607462    0.9690507181
 H   -0.4156506792    7.8144988941   -1.2946590353
 H    1.0450432939    2.8010566553   -1.8814346211
 H    1.1410640955    4.1816261921   -0.7625048050