18

 C    0.4511992517    1.6558303103    0.0835378761
 C    0.1300557101    0.1867751237    0.2692615136
 N    0.6889546187   -0.7290761807   -0.7781794415
 C    1.2561337281   -1.6269705153    0.2416593193
 C    2.7096637882   -1.2680808743    0.5961311616
 O    2.2725186155   -0.2611953064    1.5495409449
 C    0.8903608446   -0.6045041887    1.3712687164
 C    0.1861093498   -0.9400316824    2.6484444141
 O   -1.0102387644   -1.0749843287    2.7362737878
 H    1.5326616746    1.8091201911    0.0587831354
 H    0.0260965871    2.0200146392   -0.8570207878
 H    0.0304748203    2.2510384463    0.9009877995
 H   -0.9427622614    0.0272447682    0.4331646817
 H   -0.0217457307   -1.1641017606   -1.3542221653
 H    0.9547046223   -2.6748627439    0.2229074594
 H    3.2770554870   -2.0603094595    1.1000955693
 H    3.2921393107   -0.8412272913   -0.2254186807
 H    0.8669431478   -1.0771014270    3.5167378562