18

 O   -0.0848717406    1.4708563822   -0.0272399170
 C    0.0630180375    0.0744587692    0.1171187635
 C   -1.2695260135   -0.6485351091   -0.0872198756
 N   -1.8033366998   -0.2582264118   -1.3925300189
 C   -2.4451456323   -1.0802104984   -2.0817339884
 O   -2.7877877142   -2.3941810761   -1.8401869705
 C   -3.5744429950   -2.4560023839   -3.0757677689
 C   -3.1634051289   -1.0119662810   -3.4210031536
 O   -4.2470561233   -0.1237212340   -3.5084468594
 H   -0.6084810724    1.5864329624   -0.8308764790
 H    0.8043229612   -0.3283183067   -0.5932624024
 H    0.4378359573   -0.1117977672    1.1292904440
 H   -1.1451801098   -1.7340880726    0.0144888289
 H   -1.9744675819   -0.3127136638    0.6839885602
 H   -3.2120992656   -3.2491383905   -3.7320080059
 H   -4.6384194525   -2.5691943788   -2.8602850496
 H   -2.4846645095   -0.9276934288   -4.2802527350
 H   -3.9209263369    0.7557796489   -3.2866277226