23

 C    0.0667002134    1.5051896177    0.0433894365
 C    0.0470872951   -0.0063535168   -0.0431911917
 O    0.7892361971   -0.3939742767   -1.1767986854
 C    0.8241547343   -1.8060820792   -1.3094255166
 C    1.4400231044   -2.4401466125   -0.0617224188
 C    0.7361066675   -1.9459081027    1.2208182554
 C   -0.6364222078   -2.6101377061    1.4254544521
 C    1.6160947605   -2.1877054505    2.4465974945
 O    0.6014372586   -0.5118895317    1.1494805132
 H    1.0982900183    1.8493005336    0.1501850424
 H   -0.3619241897    1.9365743775   -0.8641351017
 H   -0.5105697070    1.8369586033    0.9092885175
 H   -0.9880787073   -0.3791687047   -0.1600370794
 H   -0.1929275111   -2.1923324497   -1.4895997416
 H    1.4223178175   -2.0229516025   -2.1987545545
 H    1.3946670676   -3.5332123924   -0.1252427088
 H    2.4953156110   -2.1510389299   -0.0137228437
 H   -0.5129115118   -3.6787634354    1.6279403379
 H   -1.1432827870   -2.1537966743    2.2804819317
 H   -1.2895350937   -2.5142043513    0.5545970846
 H    2.5640422648   -1.6534684808    2.3411355772
 H    1.1182761853   -1.8260993972    3.3512063212
 H    1.8254355899   -3.2551335877    2.5679221881