14

 O   -0.0131691429    1.4144872517    0.0944201255
 C   -0.0447655538    0.0277616468    0.0004273695
 C   -0.3224978478   -0.7939712934    1.2721759080
 C   -1.3881485971   -0.6127307191    0.2386160223
 C    0.8594003280   -0.6306745818   -0.9792197178
 O    0.7654485639   -1.7878943421   -1.3348212475
 C    2.0783590926    0.1454701296   -1.5006046111
 O    2.5201807588    1.1464560681   -0.9922786594
 H    0.9141538453    1.6848778747    0.1455268036
 H    0.1579217484   -1.7619454531    1.3554746244
 H   -0.3826734690   -0.2042680238    2.1793012716
 H   -2.1889817053    0.0861085394    0.4491056543
 H   -1.6385486205   -1.4586083969   -0.3906443725
 H    2.5690411794   -0.3643059101   -2.3540931008