19

 O   -0.3395490550    1.5452454893   -0.4588558190
 C    0.1281163891    0.2702727296   -0.0121732822
 C   -1.0001346362   -0.7262163555    0.3553837053
 C   -1.1163877721   -1.7167416469   -0.8390919916
 C    0.1944682862   -1.5033210790   -1.5678147731
 C    0.8774338709   -0.4588714742   -1.1027800609
 C   -1.4007076358   -3.1315275371   -0.3734597684
 C   -0.8412346840   -4.3450787505   -0.9819440658
 O   -0.3354306737   -3.8436567886    0.2578468586
 H   -0.7358865010    1.4159555220   -1.3277262657
 H    0.7519329403    0.5063528817    0.8553443284
 H   -0.7089438488   -1.2877646137    1.2483148751
 H   -1.9288085688   -0.1954181687    0.5773229435
 H   -1.9533085281   -1.4403259692   -1.4996845123
 H    0.5056317904   -2.1256143266   -2.3997797575
 H    1.8204003258   -0.0941671266   -1.4944985149
 H   -2.3588732365   -3.2371896000    0.1410192140
 H   -1.3933956178   -5.2820404809   -0.9179264885
 H   -0.1584538250   -4.2721631951   -1.8260721150