14

 N    0.0019701077    1.3108642581    0.0462930409
 C   -0.0472951848   -0.0353471597    0.0154472268
 N   -1.1768837324   -0.6939693493    0.0102619850
 C   -1.1327309108   -2.0558822708   -0.0037922488
 O   -2.3317032410   -2.6909809685   -0.0049374399
 C    0.0248413669   -2.7625729527   -0.0163600019
 N    1.2119154942   -2.0387012416   -0.0171647144
 C    1.2929120437   -0.6765824122   -0.0039992865
 O    2.3425981148   -0.0380249009   -0.0116515710
 H    0.9141499393    1.7335580221   -0.0180208095
 H   -0.8386272157    1.8561703182   -0.0171604204
 H   -2.9967722579   -1.9914376053    0.0089822617
 H    0.0879875396   -3.8390453362   -0.0267778494
 H    2.0965588466   -2.5256735314   -0.0323113025