20

 C   -0.1108333607    1.6397633418    0.1702095072
 C    0.0158072164    0.1234625686    0.1205926310
 C    1.1533916655   -0.5990699062   -0.6791962327
 C    2.1514779151   -0.1654835890    0.4333729926
 C    0.8615407095   -0.6620168522    1.1604653667
 O    0.5745277321   -0.6566107935    2.5150909814
 C    0.8794180613   -1.8835464667    0.1722590976
 C   -0.3276537390   -2.7846345840   -0.0404094100
 H    0.8394482900    2.1612639630    0.3041655981
 H   -0.5647438636    2.0130182440   -0.7545284869
 H   -0.7661102019    1.9331041815    0.9974566561
 H   -0.9760156224   -0.3027362334   -0.0450921576
 H    1.3260124890   -0.5592231923   -1.7530720237
 H    3.0437104094   -0.7888817355    0.5464277511
 H    2.4004607425    0.8923217040    0.5074851274
 H    1.2527997110   -1.1642935836    2.9735698762
 H    1.7783149682   -2.5020141321    0.2886332625
 H   -1.2629782092   -2.2439981829   -0.2008233534
 H   -0.1703849651   -3.4356068428   -0.9075132811
 H   -0.4712326581   -3.4324656187    0.8316661675