13

 N    0.0013593554    1.4014208975    0.1495470888
 C   -0.0602200080    0.0163977287    0.0468238235
 C   -1.1893269789   -0.7448379024    0.0182729903
 N   -1.1915696225   -2.1223914494   -0.0145935535
 C   -0.0468795442   -2.6839741146   -0.0184506954
 O    0.0817149949   -4.0103954102   -0.0384957507
 O    1.1498810714   -2.0564454737   -0.0072263520
 C    1.2273258456   -0.6560331244    0.0138643184
 O    2.3141745064   -0.1428021762   -0.0063638592
 H    0.8988735852    1.7701603807   -0.1353571573
 H   -0.7756641799    1.9015573758   -0.2564593415
 H   -2.1712330370   -0.2808698138    0.0237629533
 H    1.0236141315   -4.2247811280   -0.0410473448