20

 C    0.8827813628    1.1889639394    0.1342089285
 N    0.0436256042    0.0010293030    0.0729040702
 C   -0.8650373873   -0.2206921711    1.0679604025
 O   -0.9903699262    0.4476738702    2.0731838600
 C    0.0210458102   -0.7791988888   -1.1564005533
 C   -0.8517697884   -0.1369356537   -2.2381502874
 C    1.3983367498   -1.2414109472   -1.6995416491
 O    0.9085472558   -2.5856528762   -1.8666679547
 C   -0.2255752833   -2.3065904079   -1.0253302580
 H    1.9370423350    0.9301034124   -0.0070965098
 H    0.5993936628    1.9246729327   -0.6279181596
 H    0.7472484839    1.6331648023    1.1200591518
 H   -1.4936194815   -1.1083964047    0.8654612068
 H   -0.5028914032    0.8712516089   -2.4821201064
 H   -0.8233453196   -0.7364516002   -3.1527537679
 H   -1.8906271091   -0.0662240112   -1.9003490529
 H    1.7397163053   -0.8021849093   -2.6426363385
 H    2.2025468527   -1.1927219156   -0.9534452220
 H   -0.0795286436   -2.6932424333   -0.0086461507
 H   -1.1593597203   -2.6986093898   -1.4411882798