16

 O   -0.0907671436    1.3746719480   -0.0733352505
 C    0.0170507360   -0.0035855949    0.0261023422
 C   -0.4035556143   -0.7291296955    1.2802559726
 C   -1.2633950589   -0.8234231422    0.0354870972
 O   -2.4401065482   -0.0387137527    0.0271794446
 C   -3.3952668414   -0.6637132141   -0.7502535204
 N   -4.5190281262   -0.1041614950   -0.9125856810
 C   -2.8051340543   -1.9244524675   -1.2290679335
 C   -1.5535136586   -2.0177153564   -0.7649481700
 H   -1.0315341473    1.5880662264   -0.1371174550
 H    0.8647871095   -0.3948838110   -0.5296729651
 H    0.1436196711   -1.6132798450    1.5900560281
 H   -0.8150977159   -0.1261036587    2.0822601260
 H   -5.1144129469   -0.6826227022   -1.5020207697
 H   -3.3361557678   -2.6229952960   -1.8595606586
 H   -0.8388702832   -2.8127738932   -0.9295914471