17

 C   -0.0532253153    1.4341170597    0.0296422579
 N    0.0184862178   -0.0141250528    0.0397960626
 C   -1.0499017350   -0.6838939992    0.0239435151
 O   -2.2976862001    0.0153741573   -0.0035280675
 C   -3.4403854362   -0.6779811299   -0.0212115540
 C   -3.4735052551   -2.0201646796   -0.0140169245
 C   -2.1963606128   -2.7012200012    0.0144257334
 C   -2.1666670370   -4.2026702983    0.0241193300
 N   -1.0694602702   -2.0623405382    0.0319843656
 H    0.9610957670    1.8395509611    0.0463391518
 H   -0.5633045314    1.8178427673   -0.8647911268
 H   -0.5966688041    1.8286120758    0.8993996779
 H   -4.3112011935   -0.0305327002   -0.0415366188
 H   -4.4113523645   -2.5576250173   -0.0287403281
 H   -2.6724207040   -4.6013208428   -0.8632043976
 H   -1.1362042837   -4.5569392410    0.0453271685
 H   -2.7048712519   -4.5905344108    0.8970240142