21

 C   -0.4563609077   -3.3920651015    1.4816306871
 C   -0.4885542889   -1.8649965824    1.6171772491
 C   -1.5721330195   -1.2456966615    0.7567600145
 C   -2.9423066325   -1.0089244535    1.2963730265
 N   -2.0764471510    0.1150145165    0.9570215343
 C   -1.5120522340    0.9628603970    1.9789545607
 C   -2.3724022876    1.9891746902    2.6536276222
 C   -1.7650565919    0.8673546951    3.4699166106
 H    0.3495262709   -3.8256979317    2.0815192755
 H   -1.4008445474   -3.8365790197    1.8122344659
 H   -0.2954875927   -3.6940564081    0.4408315312
 H   -0.6367061695   -1.5856028456    2.6645378299
 H    0.4852617831   -1.4527350982    1.3209169932
 H   -1.4878703236   -1.5046143921   -0.2996475522
 H   -3.8251752530   -1.1278153571    0.6731226100
 H   -3.0973571481   -1.2538671269    2.3456325529
 H   -0.5166235497    1.2930043344    1.6946568609
 H   -1.9914093319    2.9973628145    2.7728240460
 H   -3.4389275111    1.9337090769    2.4619423519
 H   -2.4415432860    0.1089604338    3.8466485892
 H   -0.9424397079    1.0932424198    4.1406872105