18

 C    0.0348690130    1.5656555601    0.0370141588
 C   -0.0361648467    0.0319846872   -0.0313767443
 C    0.7356037902   -0.5567470333   -1.2379550455
 N    2.1082575305   -0.6956550592   -0.6988323091
 C    1.9874671833   -1.2238391896    0.6591931028
 C    0.6969587999   -0.5817540353    1.1711681989
 O    0.3237744886   -0.5494751793    2.3133414795
 C    0.1598654648   -1.8264676366   -1.7005865772
 C   -0.2737523221   -2.8868479238   -2.0680688107
 H    1.0708017542    1.9090406220   -0.0383302433
 H   -0.5376504607    2.0148894916   -0.7799064549
 H   -0.3794532802    1.9169917273    0.9855554677
 H   -1.0786145883   -0.2928438967   -0.0169619059
 H    0.7550321626    0.1504828036   -2.0744406989
 H    2.6765515221   -1.2848461010   -1.2955804620
 H    1.8626112555   -2.3186547070    0.7196307805
 H    2.8391941925   -0.9465708304    1.2868253708
 H   -0.6658766092   -3.8163530995   -2.4005536572