16

 C   -0.0339332687    1.3396636075   -0.1017561882
 O    0.0132087309   -0.0690037560   -0.0814486715
 C   -1.2465102135   -0.6440686963    0.1965051259
 C   -1.1261197938   -2.1275259033    0.1594144840
 N   -1.2471971184   -2.9607744136    1.1520119369
 C   -1.0525930806   -4.2011323902    0.5832604145
 O   -1.1055272479   -5.3299912106    1.3129310112
 C   -0.8178639632   -4.0654981651   -0.7468420483
 O   -0.8715918007   -2.7184358954   -1.0216228485
 H    0.9741265744    1.6926530482   -0.3295196479
 H   -0.7264011968    1.7135138268   -0.8725510944
 H   -0.3458765263    1.7527135614    0.8703639968
 H   -1.6099076986   -0.3622188430    1.1950060013
 H   -1.9920155998   -0.3101198306   -0.5448359104
 H   -1.2776061447   -5.0626765018    2.2238777382
 H   -0.6134452923   -4.7323464479   -1.5632745697