16

 C    0.9849077794    1.1932534418   -0.2918224990
 O    0.9624276546   -0.2114361527   -0.4250362594
 C   -0.1967996558   -0.6890188514   -1.0507999615
 C   -0.0773299162   -2.2180838125   -1.1751599961
 O   -1.2888753357   -2.7887233611   -1.6409049475
 C    1.0640958999   -2.6012791307   -2.0094089969
 C    1.9693674322   -2.9185728127   -2.7440149040
 C    2.9961076799   -3.2755199015   -3.5701890684
 N    3.8674012877   -3.5778077149   -4.2765083469
 H    0.9447110893    1.6933234868   -1.2713922232
 H    0.1437089064    1.5562241935    0.3181265576
 H    1.9222108303    1.4557369198    0.2028832446
 H   -1.1027172391   -0.4712360725   -0.4637677322
 H   -0.3275032632   -0.2448087441   -2.0529460523
 H    0.0761510430   -2.6217681582   -0.1678677106
 H   -1.3862374128   -2.5704235296   -2.5749610042