19

 C   -0.7057504262    1.4258301646   -0.4174650212
 N   -0.4632757733    0.0232292111   -0.1037902468
 C   -1.2215259956   -0.6006558694    1.0214598291
 C   -0.1121651610   -1.6774230455    1.2116033426
 C   -0.0517003434   -1.4756181020    2.7305995369
 C   -0.3117210974   -0.0454147127    2.2015055523
 C   -0.4528591293    1.1760379872    3.0748748112
 C    0.5785956914   -0.3139003227    0.9116724587
 H    0.0937412839    1.7841872460   -1.0752891573
 H   -1.6473480695    1.5064006278   -0.9717606756
 H   -0.7627568452    2.1047466099    0.4458780134
 H   -2.3044945908   -0.7445916204    1.0090447294
 H   -0.0051857179   -2.5791097924    0.6106772446
 H   -0.8547018036   -1.9296742455    3.3207881231
 H    0.9163897846   -1.6476077968    3.2128005915
 H    0.4558412330    1.3232257792    3.6706465135
 H   -0.6335014505    2.0937665317    2.5116207967
 H   -1.2848128409    1.0459632006    3.7772086405
 H    1.6434155118   -0.1156940806    0.7682367073