20

 C    0.1894746084    1.6473090344   -0.3616279020
 O   -0.3247429832    0.3565550626   -0.6105255765
 C    0.6206164671   -0.5285387015   -1.1480456123
 C    1.6628961223   -1.2025546907   -0.2016227257
 C    1.3469156327   -2.5700286300   -0.8864508981
 O    1.2373236929   -3.7275735799   -0.1015852604
 C    0.0797219379   -1.9220122936   -1.4593282678
 C   -1.3183325739   -2.3553399388   -1.2437968403
 N   -0.7098608997   -2.3790207480   -2.5912399534
 H    0.9965538724    1.6306039154    0.3854106044
 H    0.5794748136    2.1121847013   -1.2805580685
 H   -0.6327851532    2.2560911452    0.0215621239
 H    1.1116988975   -0.0742890601   -2.0245429868
 H    2.6946518310   -0.8485119272   -0.2264624263
 H    1.2940220782   -1.1902761024    0.8289776631
 H    2.0677528876   -2.8108838801   -1.6731123808
 H    0.5806502194   -3.5574973912    0.5826468847
 H   -1.5177960082   -3.3390041398   -0.8266463744
 H   -2.0478579810   -1.5869661386   -1.0073295959
 H   -1.0367331417   -1.5775847269   -3.1281855269