21

 C   -0.7952176224    1.1334712868   -0.0348989417
 C    0.0247499346   -0.1542355844   -0.1116912138
 C    1.0881421212   -0.1690692119   -1.2018484186
 C    2.3765451623    0.5208095058   -0.9300589435
 N    2.2745565153   -0.9382120232   -0.7695358142
 C    2.0222163360   -1.3502443154    0.6229085031
 C    0.8320325071   -0.5359539954    1.1388152638
 C    0.9072009466    0.3165588959    2.3536257751
 N    0.1943998148   -0.9759215956    2.3812903128
 H   -0.1527084349    2.0081571453    0.1023204983
 H   -1.3704505413    1.2797278399   -0.9544521849
 H   -1.5133158024    1.1037139911    0.7933555493
 H   -0.6635611510   -0.9875673793   -0.3198645687
 H    0.7638326191   -0.3196203973   -2.2282426061
 H    3.0017128828    0.8400282977   -1.7587736678
 H    2.4563101725    1.1396065125   -0.0393308468
 H    1.7657786367   -2.4156948244    0.6193336862
 H    2.9222646636   -1.2254900766    1.2325824128
 H    1.8249141140    0.3414356897    2.9365352437
 H    0.3251165127    1.2327335929    2.3926066634
 H   -0.8102084175   -0.8132521641    2.3362905576