15

 C    0.0425644023    1.3985965441   -0.0345179325
 N    0.0115540318   -0.0344234646   -0.2510250414
 C   -1.0815447281   -0.6190383564   -0.0771380709
 O   -1.1369028763   -1.9747418763   -0.3072456224
 C   -2.2684326402   -2.6363165051    0.0054359770
 N   -3.2647982982   -2.1092943153    0.6778904410
 O   -4.2068492117   -3.1334561775    0.7745851264
 C   -3.7279542145   -4.2269758619    0.1642880516
 C   -2.4977570589   -3.9941448971   -0.3524856878
 H    0.7886278823    1.6304112570    0.7331090071
 H    0.3673022180    1.8951532170   -0.9552958544
 H   -0.9229747103    1.8279705161    0.2737494914
 H   -2.0334151155   -0.1794877463    0.2314230173
 H   -4.3739096523   -5.0912231655    0.1780924571
 H   -1.8475587382   -4.6548540983   -0.8985692197