17

 O   -0.4425148804    0.2318134784   -0.1416468758
 C   -0.0085788140    1.3112685204   -0.4415611954
 C    1.3280308406    1.8603659856    0.0106381605
 C    1.2341252866    2.7300562678    1.2956975543
 C    2.0192865944    1.5714483735    1.9396045166
 C    3.2757193441    1.7637654215    2.8026604042
 O    2.6454304950    1.1221493843    3.9288135732
 C    1.4928931081    0.7608365312    3.1371945353
 O    2.1548175365    0.9018323980    0.6769467608
 H   -0.5916151057    2.0293496533   -1.0664001481
 H    1.8343011469    2.3325690018   -0.8421099854
 H    1.7789653358    3.6736050204    1.2416797555
 H    0.2319922996    2.9071505165    1.6907689359
 H    4.1413649174    1.2033281507    2.4261622773
 H    3.5719104786    2.7969597328    3.0225529905
 H    0.5538335429    1.0969722317    3.5925031711
 H    1.4410082737   -0.3146959381    2.9295660595