15

 N   -0.0521140879    1.4215104615    0.0828967160
 C    0.0758921794    0.0225863944    0.0699486644
 C   -0.1778019932   -1.0827837061   -1.0005215422
 N    0.4973865100   -2.0720339628   -0.0642711556
 C   -0.8210306404   -2.2063308991    0.6884292689
 C   -1.2167270919   -0.8898998955    0.0289308176
 O   -2.4480661215   -0.3046772708   -0.1333988771
 C    1.0952522715   -0.8864631687    0.6530217731
 O    2.0739016008   -0.8279593498    1.3254592459
 H    0.5757638336    1.8837059857   -0.5642404084
 H   -1.0049169553    1.7059387284   -0.1194223126
 H   -0.1011605955   -1.0644020730   -2.0766982182
 H   -1.3896949358   -3.0610547380    0.3126024325
 H   -0.7142988523   -2.2596054298    1.7773865305
 H   -2.7859006415   -0.0538085261    0.7354705351