22

 C   -0.0354810956    1.5565778450    0.4002707486
 C   -0.1116415052    0.0415484320    0.1269212466
 C    0.4324765089   -0.7471539701    1.3273974308
 C   -1.5786708807   -0.3457055064   -0.1309682856
 N    0.6234007119   -0.4374594479   -1.0694603250
 C    0.9726341168    0.4125071152   -2.1834219684
 C    2.0480288430   -0.2162050010   -1.3389267155
 C    2.9300907057    0.5976465483   -0.5421171160
 C    3.7400266239    1.2130868663    0.1018875877
 H    0.9917219843    1.9018902926    0.5297071925
 H   -0.4992583988    2.1334122604   -0.4063760726
 H   -0.5858212099    1.7865274393    1.3182445593
 H   -0.1706161039   -0.5494847991    2.2188882979
 H    0.4011907355   -1.8207422088    1.1198897338
 H    1.4666857010   -0.4680716860    1.5460640742
 H   -1.9631417209    0.1620180424   -1.0218054101
 H   -1.6687858940   -1.4233339374   -0.2901154833
 H   -2.2081983963   -0.0606974516    0.7182594704
 H    0.7694887698    0.0187594110   -3.1771216200
 H    0.8644573863    1.4904181064   -2.0876438677
 H    2.5388583863   -1.1072475947   -1.7280191317
 H    4.4395101318    1.7700265342    0.6750115142