18

 O   -0.7846656081    1.0231410017    0.4952126396
 C    0.2660632502    0.8552617646   -0.0754112949
 C    1.4190133173    1.8072800785   -0.0070961255
 C    1.4294271763    2.8567926402    1.1348798951
 C    1.5727458084    4.0093620481    0.0903459357
 C    1.5532919834    2.9628273903   -1.0572882378
 C    2.8758951699    2.3054085356   -1.4747574537
 C    3.8163789929    2.0930352147   -0.3617285996
 N    2.6981098513    1.1439069576   -0.4990493223
 H    0.4443576518   -0.0244819672   -0.7307326475
 H    0.4654146471    2.8532530578    1.6467870148
 H    2.2238395563    2.7523324773    1.8771450837
 H    0.7169501952    4.6868852183    0.0727928397
 H    2.4850751439    4.6078141048    0.1523275825
 H    0.8255158046    3.0853724681   -1.8582237749
 H    3.1608317427    2.1252605274   -2.5068580092
 H    4.7683713070    1.6311637721   -0.6066505315
 H    3.8618698501    2.7719005199    0.4828611758