16

 O    0.9729853183    1.5156897990   -0.4140958371
 C    0.0146799885    0.5967032524    0.0839729353
 C   -0.1285142487   -0.6386704183   -0.8323557021
 C   -0.4032833995   -0.2864046491   -2.2180305059
 C   -0.6471070893   -0.0013229428   -3.3592602734
 C    0.3759938167    0.2471786717    1.5164347190
 C    0.1865624692   -1.0575251256    2.1604902358
 O    1.4749175203   -0.6620649655    1.6815136346
 H    1.8359821907    1.0873368718   -0.3605308151
 H   -0.9330910272    1.1470464515    0.0870453655
 H    0.7937312182   -1.2295512638   -0.7627830671
 H   -0.9374212739   -1.2765184219   -0.4551653351
 H   -0.8539962873    0.2538521692   -4.3687636418
 H    0.4394975576    1.1258760933    2.1595079755
 H    0.0876236536   -1.1029899083    3.2440129515
 H   -0.2776903072   -1.8807423436    1.6224853803