21

 O    0.0469738680   -0.0778144081   -0.0214517239
 C   -0.0194299113    1.1279583128    0.0353151110
 C   -1.3485698384    1.8730029612    0.1531597644
 C   -1.2822331318    3.0910272702    1.1040294176
 C    0.0493362283    3.8566304657    0.9856638060
 C    0.3415422121    4.2999372787   -0.4697088387
 C    1.0935625344    3.0999976844   -1.1220976950
 C    1.2114502870    2.0262259071   -0.0053841173
 C    1.2070771422    2.8867369155    1.2808010136
 H   -1.6017866350    2.2167968121   -0.8594017117
 H   -2.1236828637    1.1607022616    0.4447573060
 H   -2.1256445739    3.7605494964    0.9010054171
 H   -1.3982058651    2.7469546080    2.1390335500
 H    0.0345793336    4.7077269245    1.6729898288
 H   -0.5741596709    4.5632360523   -1.0077801931
 H    0.9740812928    5.1923473096   -0.4731344267
 H    0.5871604369    2.7163430210   -2.0126739932
 H    2.0975854263    3.3973661748   -1.4379488696
 H    2.0915483777    1.3898709735   -0.1129497872
 H    2.1606794785    3.4178144708    1.3792990212
 H    1.0572558724    2.2996869579    2.1929240807