13

 C   -0.0210909973    1.3655220147    0.1113028283
 N    0.0921219286   -0.0799054654    0.0874599863
 C    0.5431079627   -0.6035620275   -0.9565250261
 O    0.6561182886   -1.9786896216   -0.9937787562
 C    1.1518324266   -2.5438623143   -2.1326321202
 O    1.5006031615   -1.9402244193   -3.1119285254
 C    1.1974918723   -3.9781490424   -1.9909932390
 C    1.2604065103   -5.1759928936   -1.9255571020
 H    0.5680939645    1.7566062782    0.9475465634
 H    0.3106806449    1.8582519829   -0.8151620405
 H   -1.0644211064    1.6394210504    0.3006017113
 H    0.8705274349   -0.1082798956   -1.8725299923
 H    1.3140299387   -6.2360392765   -1.8658925077