18

 C   -0.1202281470    1.5621134576    0.0974908539
 C   -0.0304092152    0.0269260368   -0.0151697497
 C   -1.3799993037   -0.5478040674    0.0251304413
 N   -2.4556995174   -0.9683707166    0.0521341335
 C    0.7151898144   -0.4484215779   -1.3001907595
 C    2.1456684864    0.1305422586   -1.4174781064
 N    2.7680621525   -0.3387612306   -2.6478929713
 C    0.7916542049   -1.9132683838   -1.3319389231
 N    0.9104396510   -3.0627482182   -1.3461774070
 H    0.8693543698    2.0005433789    0.2388947021
 H   -0.5730091584    1.9932159787   -0.7999698150
 H   -0.7380283855    1.8372070706    0.9549482451
 H    0.5134607575   -0.3626841462    0.8540444114
 H    0.1491482404   -0.1256833907   -2.1811890979
 H    2.0689763913    1.2195085080   -1.4744075473
 H    2.6966221040   -0.1125450753   -0.4921963341
 H    3.6441850855    0.1471486497   -2.8046367564
 H    2.9858581797   -1.3286520118   -2.5810788395