18

 O    0.0170414096    0.0500757060    0.3405642227
 C    0.0001159230    1.2279473227    0.1047155037
 C   -1.2610796629    2.1185163301   -0.0637530490
 C   -0.7583761724    3.5822070590   -0.1940850549
 N    0.5661739271    3.3711596810   -0.8076232911
 C    1.9163816516    3.8376673533   -0.2603010116
 C    1.6596582670    3.1296730706    1.0928281874
 C    1.1439900247    2.1961136265   -0.0692744652
 C    2.4768581563    2.4827701275   -0.8104549635
 H   -1.7592604582    1.7915457555   -0.9831445863
 H   -1.9591273270    1.9525938327    0.7602323024
 H   -1.3848199009    4.1803048142   -0.8605648364
 H   -0.7555445721    4.0780528709    0.7860968149
 H    2.3043840477    4.8401941979   -0.4465672866
 H    2.5286896645    2.7815299887    1.6557585822
 H    0.9154012767    3.5655306530    1.7578145154
 H    2.4370000489    2.3636123483   -1.8926663182
 H    3.3954553762    2.1085540222   -0.3587212460