23

 C   -0.0171185220    1.6706829817    0.2644750427
 C   -0.1050325729    0.1601596563    0.2546092045
 C    0.9878093945   -0.6841084030   -0.3474197587
 C    0.7674050676   -0.7118922404    1.1490308321
 C    1.7413850024   -0.1147638682    2.1032881257
 C    1.6638906040   -0.6759934475    3.3101784800
 C    0.5954908170   -1.7411776182    3.3630378095
 C    0.2443872578   -1.9794260838    1.8673036069
 C   -1.2168177662   -2.3530391579    1.6284997706
 H    1.0161809226    2.0170877192    0.3598823244
 H   -0.4176637822    2.0889183577   -0.6658752294
 H   -0.5869742379    2.1001709490    1.0960311541
 H   -1.1126136965   -0.2169493013    0.1010187069
 H    0.7085777553   -1.5664725812   -0.9166607720
 H    1.8753201838   -0.1803467958   -0.7202545529
 H    2.4149865494    0.6891388263    1.8288189438
 H    2.2589844471   -0.3930393760    4.1711405533
 H    0.9256830043   -2.6612441491    3.8590373452
 H   -0.2798425880   -1.3862078036    3.9283595313
 H    0.8699430861   -2.8120972449    1.5182069950
 H   -1.8924173693   -1.5634861778    1.9749910328
 H   -1.4259622417   -2.5345683904    0.5682922564
 H   -1.4710629453   -3.2698115410    2.1710551981