15

 C   -0.4145006151    1.6753054094    0.4196193440
 C   -0.1558600861    0.2422462320    0.0391817485
 O    1.1422654079   -0.0866943936   -0.4814031569
 C    0.7919470106   -0.6214496133    0.7970025496
 C    1.5242482362   -0.1131501407    1.9359825431
 N    2.1006492556    0.2716151925    2.8607558676
 C   -1.3233082584   -0.4766894834   -0.6334566495
 N   -0.9462700002   -1.4154316415   -1.5401670812
 O   -2.4708064709   -0.2199480085   -0.3320734922
 H    0.3992119369    2.0765094486    1.0257596029
 H   -0.5176302482    2.2849941633   -0.4828879297
 H   -1.3531867255    1.7324912820    0.9738279244
 H    0.6201447810   -1.6957192397    0.8179153761
 H    0.0077248144   -1.4414982996   -1.8611846494
 H   -1.6659006982   -1.8773060277   -2.0718490873