15

 C    0.0498545112    1.5131881742    0.0294777784
 C   -0.0361109408    0.0292810319    0.0600194328
 C   -1.0719422991   -0.8602098246    0.0220478268
 N   -2.4370326208   -0.5694288235   -0.0649709508
 C   -3.4457696654   -1.4911273252   -0.1389032582
 O   -3.3006845266   -2.6925885139   -0.1379443191
 C   -0.4375785400   -2.1355954450    0.0943011461
 N    0.8631572224   -2.0190223611    0.1705310739
 O    1.1227203746   -0.6539004978    0.1505638252
 H    0.7780123738    1.8429273193   -0.7179475521
 H   -0.9169635995    1.9561193071   -0.2250422307
 H    0.3627201450    1.9174865505    0.9985962218
 H   -2.7053603987    0.4024786229   -0.0695388857
 H   -4.4332016430   -0.9957070182   -0.1997288519
 H   -0.9073179332   -3.1050476267    0.0886348134