14

 C   -0.0022331947    1.4884540591   -0.0525263508
 C    0.0022411784    0.0335992083   -0.0180213892
 C    0.0091516261   -1.1687750392    0.0084811775
 C    0.0033474630   -2.6287694970    0.0412489699
 C   -1.3830759787   -3.1971586883    0.0587840814
 N   -1.8924421597   -3.8887822435    1.0357815854
 O   -3.1439827351   -4.1968949617    0.6232463169
 N   -3.3433773148   -3.6535872501   -0.6457282789
 N   -2.2902920311   -3.0575477822   -0.9790036449
 H    1.0170566925    1.8871060145   -0.0100658918
 H   -0.4677326970    1.8604472098   -0.9714125409
 H   -0.5577676170    1.9032624313    0.7952770104
 H    0.5285939858   -3.0289203116   -0.8353890179
 H    0.5285259121   -3.0028909496    0.9262210229