19

 C   -0.0815471010    1.5458041112    0.0209178480
 C    0.0282877822    0.0256702727   -0.0287992039
 C    0.9736658283   -0.5378987136   -1.0856482316
 C    2.3259269492   -0.6056264825   -0.3751059441
 O    2.1481403258   -0.1405586731    0.9509401607
 C    0.8184793215   -0.6149056681    1.1419023655
 O    0.8728031924   -1.9897013432    0.7875362243
 C    1.4798370359   -1.8506307303   -0.4935677624
 C    1.7938269629   -3.1239523378   -1.2066981887
 H    0.9050012621    2.0016446243    0.1370047283
 H   -0.5341000783    1.9358873469   -0.8961443619
 H   -0.7076087938    1.8674118451    0.8605699651
 H   -0.9590464151   -0.4427229069   -0.0893158223
 H    0.8672570176   -0.3660987502   -2.1479819076
 H    3.3030026289   -0.4321993917   -0.8016323296
 H    0.4930621782   -0.4776723130    2.1699015846
 H    0.8803719851   -3.6802722469   -1.4408805423
 H    2.3141878420   -2.9142482487   -2.1455762257
 H    2.4366291260   -3.7616826741   -0.5918151965