17

 O    0.0118976964    1.3704050445   -0.0789111504
 C    0.0072303697   -0.0177363925    0.0314291542
 C   -0.3812997485   -0.9024538858   -1.1354567659
 C   -1.2872249135   -0.7729703110    0.0684681203
 O   -1.2693172762   -1.7772921653    1.0527331559
 C   -0.0384963330   -1.7414202035    1.7608339996
 C    1.0435994238   -2.7401556292    1.3101576210
 O    1.8025604962   -1.6879793257    0.6656770846
 C    0.8681722637   -0.6731401023    1.1047074561
 H    0.7491368985    1.6216919186   -0.6465348662
 H   -0.7108345353   -0.3876634287   -2.0320084931
 H    0.1818038634   -1.8145029014   -1.2940102921
 H   -2.2479569503   -0.2807141670   -0.0297404503
 H   -0.2417031935   -1.6932306024    2.8331991300
 H    1.6130764984   -3.2051004361    2.1236540818
 H    0.7009631931   -3.5080353579    0.6083308500
 H    1.3440148970    0.0840261257    1.7346546344