13

 C    0.0555316772    1.5230431743   -0.0136939829
 C   -0.0899457719    0.0483305744    0.0644762981
 C   -1.0960780221   -0.8511199016   -0.0390349769
 O   -2.4376123327   -1.0189400437   -0.2484911478
 C   -2.5671616413   -2.3920370971   -0.1747468118
 N   -1.5095792573   -3.0944809897    0.0481835680
 C   -0.5162962567   -2.1189982509    0.1443156052
 N    0.7771998823   -2.0693594617    0.3540349582
 O    1.0367372819   -0.6859190659    0.3009978926
 H    0.7415666742    1.8068712743   -0.8181752391
 H   -0.9156764877    1.9831607734   -0.2056153145
 H    0.4547985813    1.9274001578    0.9219723173
 H   -3.5739171572   -2.7580740134   -0.3153054364