15

 C    0.0739912127    1.5463611585    0.0157656980
 C   -0.0509071011    0.0616067122   -0.0175528636
 C    0.4954853453   -0.9627118127   -0.9928090274
 N    0.9229562130   -0.9369807850    0.4510812484
 C   -0.1695112830   -1.6609233529    1.2035753432
 C   -1.2150498362   -0.9676732375    0.3199776105
 C   -0.8816507186   -1.5505866470   -1.0701332906
 O   -1.5325134017   -2.0504753837   -1.9429025260
 H    1.0934068830    1.8410744868   -0.2490163096
 H   -0.6170124414    2.0121098922   -0.6940053113
 H   -0.1470017513    1.9390862910    1.0137301555
 H    1.2667768869   -0.8598420115   -1.7436229472
 H   -0.1122247453   -2.7546894467    1.1728778960
 H   -0.1511005230   -1.3125489567    2.2385533270
 H   -2.2437477593   -0.7706492171    0.6095888271