15

 O    0.5133172500    0.6367685614   -0.8378193994
 C   -0.1264211688    0.2718834164    0.3603617563
 C   -1.4560150902   -0.4089525850    0.1447160903
 C   -1.9584231561   -0.8203049197   -1.0325631263
 C   -3.2723027779   -1.4652075070   -1.1263559761
 O   -3.7700772836   -1.8460006843   -2.1754231668
 C   -3.9260223106   -1.6070683869    0.1827092474
 C   -3.3333304211   -1.1660624385    1.3009438934
 O   -2.1184123260   -0.5634886769    1.3225084247
 H   -0.0183092563    1.3154905989   -1.2675439422
 H    0.5506354523   -0.4190326962    0.8768296458
 H   -0.2802985249    1.1253850580    1.0391427635
 H   -1.3736805196   -0.6854331988   -1.9332958544
 H   -4.9002005782   -2.0773961263    0.2330298939
 H   -3.7470260792   -1.2341023852    2.2995025099