17

 C   -0.6006505703    1.5047685344   -0.0718741414
 O   -0.2296179061    0.2452400873    0.4489727765
 C   -1.0762161548   -0.7928957174    0.0543023254
 C   -0.9022640309   -1.4029991349   -1.3688985231
 C   -1.0004720974   -2.8256334756   -0.7198519047
 C   -0.7126945459   -2.1582578550    0.6678517645
 C   -2.3210531342   -3.4274340163   -0.8226365238
 N   -3.3745644952   -3.8981183051   -0.9025598434
 H    0.1046915887    2.2388247470    0.3235715380
 H   -0.5543497889    1.5261353301   -1.1707778677
 H   -1.6192991191    1.7848153058    0.2370076551
 H   -2.1290380240   -0.5309315828    0.2402278908
 H   -1.6313279055   -1.1567344996   -2.1413961875
 H    0.1100911644   -1.2267709702   -1.7403514232
 H   -0.2578531499   -3.5509790294   -1.0577945800
 H    0.3552472388   -2.1966301616    0.8929466139
 H   -1.2850323596   -2.5085043566    1.5268037705