24

 C    0.0964993414    1.4929554674   -0.4746740100
 C    0.0528394155    0.0315940608   -0.0821449189
 C    1.2997172213   -0.7722813025    0.0698112299
 N    0.4687682246   -0.4657275880    1.2307444614
 C    1.0057016384    0.4520365836    2.2291985435
 C    1.7154910719   -0.3308106348    3.3358673600
 C    2.2687134928    0.5727419099    4.4404190498
 C    2.9743185277   -0.2053772360    5.5428747517
 O    3.4486039933    0.7261885120    6.5044842516
 H    1.0297395589    1.9796200552   -0.1820152790
 H    0.0019881852    1.5868389326   -1.5617845373
 H   -0.7329549716    2.0491573027   -0.0235124534
 H   -0.8306457100   -0.4874696473   -0.4536523394
 H    1.3417170414   -1.8154078488   -0.2338836665
 H    2.2426521645   -0.2338305841   -0.0335558101
 H    1.7055753087    1.1934027150    1.8070000595
 H    0.1661984368    1.0143158248    2.6575641185
 H    1.0093714579   -1.0583443191    3.7536497567
 H    2.5307208331   -0.9149443285    2.8881224405
 H    2.9783823582    1.2974513308    4.0219832868
 H    1.4592381976    1.1577772406    4.8946983315
 H    2.2730478304   -0.9247235494    5.9969440855
 H    3.8040743167   -0.7899480711    5.1119178270
 H    3.8865253554    0.2363733542    7.2064225106