18

 C    0.2840109201    1.6586384730   -0.1347195132
 C   -0.0579504652    0.1724161352    0.0729354480
 C    0.5514675687   -0.4000335673    1.3077607774
 C    0.0345302662   -0.8696670603    2.4784243656
 C   -1.3806514594   -0.9926768557    2.9420862376
 C    1.2084594924   -1.2386148782    3.2006314830
 O    1.1994923220   -1.7652602827    4.4373249684
 N    2.3187011223   -1.0174923813    2.5446314708
 O    1.9000845245   -0.4772598894    1.3232961170
 H    1.3658020141    1.8007414199   -0.1974210947
 H   -0.1662752477    2.0294672410   -1.0599144625
 H   -0.0889929394    2.2657748556    0.6954546209
 H   -1.1425225435    0.0379630563    0.1279852343
 H    0.2884450175   -0.4058706942   -0.7922569570
 H   -1.6273512381   -2.0287121543    3.1982321596
 H   -1.5618692499   -0.3903855001    3.8391518674
 H   -2.0812171362   -0.6621211609    2.1710305943
 H    2.1175500316   -1.9254551869    4.6936653131