12

 N   -0.0361163703    1.1400861627    0.5803020399
 C    0.0516372646   -0.0003429200    0.0350790227
 N   -1.1797956480   -0.6579207539   -0.2463412196
 N   -1.5488223297   -1.9390046316   -0.3426635247
 N   -0.7956882264   -2.9110360760   -0.0750681575
 C    0.5729707691   -2.8210313866    0.2821086101
 O    1.0658539079   -3.6046069158    1.0536574593
 C    1.4507830130   -1.8143881019   -0.4146378994
 N    1.2323701462   -0.5630630293   -0.4657288384
 H    0.8802278388    1.5872894548    0.6000354569
 H   -1.9769085818   -0.0351214743   -0.2749980484
 H    2.3934830066   -2.1975955582   -0.8075797809