18

 O   -0.1076765650    1.3782672810    0.0577711795
 C   -0.0001357105   -0.0153950456   -0.0239064267
 C   -0.4507986175   -0.6923189114   -1.2946317250
 C   -1.3085515330   -0.7427041357   -0.0424016284
 C   -1.3664574629   -1.9917808643    0.8258349810
 N   -0.6798588915   -1.7564127750    2.0917743217
 C    0.5489702658   -1.1635810023    2.1868316683
 O    1.1628259268   -1.0771768536    3.2326651530
 C    1.0843642551   -0.6426395200    0.8507603698
 H    0.6539450408    1.7627442694   -0.3906574086
 H   -0.7963283867   -0.0499960868   -2.0965675762
 H    0.0506140227   -1.6010050339   -1.6154977026
 H   -2.1903356549   -0.1120451262   -0.0359428240
 H   -2.4027106730   -2.2600779439    1.0466304844
 H   -0.9275809110   -2.8487577844    0.2931949722
 H   -1.0213890440   -2.1868713881    2.9373311190
 H    1.5553068681   -1.4879792521    0.3333508434
 H    1.8710772107    0.0796815727    1.0747266392