16

 C   -0.4370918660    1.1246552930   -0.0862332173
 C   -0.0743488898   -0.3450383052   -0.0695812050
 N    0.1276586084   -0.9096737130    1.0401264230
 N   -0.0324734464   -1.0090996237   -1.3732891565
 C    0.2144948390   -0.2288546042   -2.4944713198
 O    0.2280911272   -0.5936316432   -3.6531577073
 C   -0.2143789738   -2.4517725849   -1.4489350421
 N   -0.4060427651   -2.9342357736   -2.6921576753
 O   -0.2156152508   -3.1435880405   -0.4509894526
 H    0.3937990130    1.7607297174   -0.4098101200
 H   -1.2945408678    1.3342994941   -0.7329536403
 H   -0.6797431399    1.3956832554    0.9405840909
 H    0.3256612830   -1.9027011282    0.9232399417
 H    0.4304088754    0.8132910731   -2.2357724608
 H   -0.2673646445   -2.3391587633   -3.4995379903
 H   -0.4495509518   -3.9369612332   -2.7634019282