15

 N    0.0653922140    1.3932242185    0.1467681821
 C   -0.0790754408    0.0281044201    0.0474011277
 C   -1.1382681693   -0.8237641436    0.0239243001
 C   -2.6286604119   -0.9863380973    0.0304483084
 C   -2.7517000592   -2.5068908524   -0.0086865462
 C   -1.5577263394   -3.1279002353   -0.0303021675
 C   -0.5193776712   -2.1018068627   -0.0088442027
 N    0.7887184146   -2.0765109603   -0.0071132484
 O    1.0743733002   -0.6777760895    0.0270258932
 H    0.9668656090    1.7296109168   -0.1624627920
 H   -0.6985763835    1.9243670476   -0.2437706435
 H   -3.1172493844   -0.5751123675    0.9244742355
 H   -3.1340741094   -0.5296304465   -0.8320301837
 H   -3.7149740774   -3.0026986610   -0.0169058425
 H   -1.3843273513   -4.1947584268   -0.0572087705