16

 O   -0.0585404707    1.3706575527   -0.0328781765
 C    1.1569992452    1.9594184459    0.0207424563
 N    2.2615794928    1.3431946557    0.1000872009
 C    2.1238788756   -0.0992821710    0.1306197449
 C    1.1073088336   -0.6624596079   -0.9437813118
 C    1.0173889034   -2.1211207894   -0.5506687710
 C    0.9412107317   -2.0854993515    0.7881101812
 C    0.9902204457   -0.6077793355    1.1109990891
 C    0.0144020798   -0.0507315949    0.0091093933
 H    1.0837187981    3.0426401916   -0.0122787790
 H    3.0950110137   -0.5913920592    0.1990584595
 H    1.1761762345   -0.3723415215   -1.9910531498
 H    1.0079862672   -2.9653259841   -1.2247946655
 H    0.8528847035   -2.8928097276    1.5006162947
 H    0.9406305603   -0.2623447312    2.1424569319
 H   -1.0062477846   -0.4304799322   -0.0389511681