18

 C    0.0293975961    1.5201786325   -0.0665894214
 C   -0.0131935158    0.0186664133    0.0501362952
 C   -1.3738139856   -0.6627038440    0.3847092566
 C   -0.6530798911   -1.4758008976    1.4874158654
 O   -1.0157537556   -2.2908807772    2.2836945938
 C    0.6911480000   -0.7845808959    1.1873784616
 C    1.5382477668   -1.4339718298    0.0754662294
 C    0.7481444746   -2.0871562950   -0.9822700067
 N    0.8792936086   -0.6170869067   -1.0216193290
 H    1.0634309234    1.8715834231   -0.1277979641
 H   -0.4857442952    1.8449961011   -0.9774559826
 H   -0.4527223924    1.9978350079    0.7925778256
 H   -2.0831780991    0.0456802080    0.8275593621
 H   -1.8974270695   -1.2252394265   -0.3925385195
 H    1.2410258908   -0.3264673586    2.0090739185
 H    2.6174199160   -1.5295540056    0.1373948006
 H    1.3034365138   -2.5607448943   -1.7867120679
 H   -0.2040100257   -2.5636193948   -0.7719623378