21

 C    0.0799090286    1.4477958209   -0.1585042798
 C   -0.0055089950   -0.0372480631    0.0090236652
 O    0.5869773167   -0.8949805862   -1.0347706182
 C    0.0337123075   -1.8350755364   -0.0416080496
 C    0.1835407802   -3.3032083777   -0.2923161555
 C    0.5747215737   -0.9561778423    1.1287530860
 C   -0.3943503737   -1.0104200374    2.3045578994
 C   -1.7570021153   -1.0185795993    1.5377637652
 C   -1.2553841304   -0.9671025174    0.0989129614
 H    1.1246816911    1.7700812298   -0.2086636876
 H   -0.4224882884    1.7608927529   -1.0791023207
 H   -0.3977332594    1.9568299554    0.6851119207
 H    1.2412996103   -3.5763977458   -0.3590055622
 H   -0.2706611984   -3.8792257553    0.5206110288
 H   -0.3056628923   -3.5855436404   -1.2298129801
 H    1.6515176978   -0.9375327248    1.3007751179
 H   -0.2531981261   -1.9058712446    2.9182021547
 H   -0.2916163772   -0.1455630451    2.9677222730
 H   -2.3465950412   -1.9184333544    1.7401555213
 H   -2.3850510523   -0.1581281738    1.7897444766
 H   -1.9614073765   -0.9590946551   -0.7322885965