16

 N   -0.1199929064    1.0431587022   -0.7421667081
 C   -0.0762100827   -0.0219101491   -0.0710616432
 C   -1.2715744103   -0.8950942029    0.2805974791
 C   -0.6631289563   -2.1282573281    0.9126063653
 C    0.3523386315   -2.9044992306    0.1074189192
 C    0.8165223549   -1.8216411143    1.0570756460
 O    1.0765863749   -0.5643238369    0.4452159622
 C    1.6015651445   -2.0901842877    2.2193320778
 C    2.2595964742   -2.3331782080    3.1953418046
 H    0.8126381810    1.4459037164   -0.8451216493
 H   -1.9145157878   -0.3614234803    0.9873447300
 H   -1.8659822256   -1.0949292717   -0.6145075215
 H   -1.1870163605   -2.6348112499    1.7126377838
 H    0.5421032973   -3.9304953227    0.3994863016
 H    0.4561918684   -2.6954602667   -0.9528037592
 H    2.8422384531   -2.5421109097    4.0584177817