15

 C   -0.1217056068    1.4477469704   -0.1602213295
 C    1.2874107806    0.9526118059    0.0755450923
 C    0.1386750588   -0.0179535982    0.0541005860
 N   -0.2939561252   -0.6767183602    1.2565980336
 C   -0.3458134933   -0.2105501205    2.5415188212
 N   -0.8041110752   -1.1288346666    3.3555408870
 N   -1.0702820629   -2.2490802011    2.5979575963
 C   -0.7603986378   -1.9576448814    1.3603762670
 H   -0.6098384757    1.9899257192    0.6416930728
 H   -0.4034476103    1.7707849442   -1.1558313407
 H    1.9815345575    0.9327735089   -0.7567831881
 H    1.7449308349    1.1624399802    1.0357259508
 H    0.0490612607   -0.6791863485   -0.7990956484
 H   -0.0447215960    0.7846592550    2.8274742174
 H   -0.8491347892   -2.6168475472    0.5105257624