10

 O   -0.0646740809   -0.0757834191    0.0023327339
 C   -0.0194008912    1.1312409744    0.0073932411
 C    1.2082168524    1.8936359321    0.0003445927
 C    2.2162569831    2.5542531479   -0.0052945963
 C    3.4551201335    3.3238155211   -0.0129237162
 C    3.2395127459    4.7762587786   -0.0032088688
 N    3.0835418502    5.9197556461    0.0043147527
 H   -0.9369766747    1.7517009269    0.0179723943
 H    4.0672639208    3.0530455319    0.8572261178
 H    4.0506840508    3.0623363101   -0.8973080913