21

 C   -0.3418309607    1.4286823406    0.6251537928
 C    0.0186346492    0.0134343493    0.2372406421
 O   -1.0416897447   -0.7519710816   -0.2771248279
 C    1.4073549599   -0.2994244367   -0.2955413940
 C    0.9856059094   -0.7999618679    1.0582470800
 O    1.6354871335   -0.2429149034    2.1559950820
 C    0.8953670503   -0.3211616992    3.3701312376
 C    1.6816133510    0.4709142076    4.4031966982
 O    1.8701159248    1.8118458448    3.9921067085
 H    0.4422514975    1.8840977593    1.2345062547
 H   -0.4943464401    2.0555337558   -0.2617024794
 H   -1.2708682420    1.4315126040    1.2036048733
 H   -1.2500950244   -0.4154609211   -1.1561181047
 H    1.4964493874   -1.0252650932   -1.0957957300
 H    2.1338750292    0.5062298267   -0.3101358012
 H    0.7485370729   -1.8598302046    1.1540034982
 H   -0.1034579616    0.1149240277    3.2341876752
 H    0.7777707328   -1.3696997505    3.6855818322
 H    1.1288252486    0.4964741952    5.3476609509
 H    2.6445121024   -0.0307569769    4.5877133462
 H    2.2830718447    1.7604569341    3.1225022053