27

 C   -0.1092282150    1.5247663659    0.2000223273
 C    0.0157093214    0.0029742727    0.0657929716
 C    0.7144168333   -0.5260299792   -1.2136796023
 C    0.7462995099   -2.0657798929   -1.1493423654
 C    0.0159305681   -0.0498301177   -2.5121552210
 C   -1.4593644014   -0.4354274997   -2.6696152284
 C    2.1650702491   -0.0153773578   -1.2818088034
 O    2.8563865937   -0.3598025908   -0.0986111243
 C    4.2032304730    0.0420290836   -0.1114346318
 H    0.8706316160    2.0115514541    0.2266868468
 H   -0.6821740473    1.9694018752   -0.6201914612
 H   -0.6229089687    1.7812377249    1.1321084120
 H    0.5704667268   -0.3810872746    0.9275155115
 H   -0.9834110241   -0.4449544693    0.1229554442
 H   -0.2547929488   -2.4845687919   -1.0101921205
 H    1.1622638353   -2.4901724528   -2.0706724610
 H    1.3701767636   -2.3969234133   -0.3154244698
 H    0.1041372854    1.0411688609   -2.5870748610
 H    0.5772129757   -0.4519370899   -3.3663341489
 H   -1.8452677454   -0.0720674010   -3.6273316649
 H   -1.6036037378   -1.5197971632   -2.6492292418
 H   -2.0822684775   -0.0018283887   -1.8812058668
 H    2.6706637932   -0.4595321416   -2.1572456925
 H    2.1846730887    1.0783165465   -1.4228471734
 H    4.6467397386   -0.2611191395    0.8404292037
 H    4.7645913846   -0.4328777376   -0.9321798135
 H    4.3044261598    1.1341526576   -0.2182787251