17

 C   -0.6970895548    1.2926162676    0.0308496819
 C    0.0394883565   -0.0574036656   -0.0447958701
 N    0.6918432960   -0.1823665497   -1.3458548045
 C    1.9415224315   -0.3585615199   -1.4327254936
 N    2.9007766425   -0.5525457570   -0.3999328786
 C    3.2205945706    0.6585974628    0.3668918513
 C    2.3859850351   -0.4279053178    0.9715537455
 C    0.9171633022   -0.2600141254    1.1915400741
 O    0.4405757749   -0.3491922504    2.3005724887
 H    0.0093918408    2.1274441669   -0.0194522118
 H   -1.3874765029    1.3810988515   -0.8106212221
 H   -1.2510483729    1.3579579788    0.9694750665
 H   -0.7255037979   -0.8438980981    0.0116939230
 H    2.3975328277   -0.3963971533   -2.4225868494
 H    4.2524969787    0.7571628910    0.6887037948
 H    2.7300610595    1.5818718586    0.0715335400
 H    2.8650362625   -1.0768931400    1.6995044046