18

 O    0.0718387326    1.3472592380   -0.2997625541
 C    0.0802829504    0.0027484385    0.1535669502
 C   -1.3149797384   -0.5553173043    0.2386214629
 C   -2.3386272102   -0.0049061856    1.2286945415
 N   -3.3209210014   -1.0741157129    1.5235648538
 C   -4.1801279443   -1.5022317853    0.4142141693
 C   -2.9453874081   -2.2676529091    0.7302988033
 C   -1.7144356853   -1.9380589439   -0.0771019362
 O   -1.9026049017   -0.8898215652   -1.0403036563
 H   -0.3372886453    1.3445862738   -1.1726119548
 H    0.6874509979   -0.6423978004   -0.4982318759
 H    0.5447257308    0.0181734453    1.1450764665
 H   -1.8346041491    0.2613338742    2.1644042098
 H   -2.8364111525    0.8931547658    0.8514760245
 H   -5.1475715569   -1.8885889629    0.7237868623
 H   -4.1753360778   -0.9278585775   -0.5064784791
 H   -2.9779136087   -3.2320632711    1.2290240647
 H   -1.0155842321   -2.7201087973   -0.3613290324