21

 C    0.1851099125    1.5168382097   -0.1189558096
 C    0.1922067273   -0.0017266413    0.0582952714
 C    0.5457076221   -0.4543666919    1.4967685143
 C   -0.4354847973    0.0044102030    2.4790016615
 C   -1.2623590839    0.3535274528    3.2792274432
 C    0.6580089334   -1.9729479696    1.5541608414
 O    1.8047420268   -2.5525796989    0.9299450427
 C    1.6476017159   -2.7154709510    2.3492176408
 C    2.6884815449   -2.0973290882    3.2463670792
 H    1.1678609931    1.9461497064    0.1059369235
 H   -0.0678393397    1.7867571656   -1.1485768828
 H   -0.5459222308    1.9878606090    0.5448563404
 H   -0.7877266582   -0.4154316017   -0.2080809094
 H    0.9265083005   -0.4598024887   -0.6130273763
 H    1.5234416000   -0.0261332047    1.7476232055
 H   -1.9823962669    0.6721142366    3.9917198732
 H   -0.2806886987   -2.4811629791    1.3224734724
 H    1.3652051051   -3.7318442035    2.6325615366
 H    2.9546524350   -1.0863252594    2.9327102864
 H    2.3229804503   -2.0580706910    4.2779525242
 H    3.6000246186   -2.7038197341    3.2355482714