18

 N   -0.0840290379    1.3161192762   -0.3480928481
 C   -0.0285424186    0.0911706734   -0.0378433093
 C   -1.2837657875   -0.7546545677    0.0698878762
 C   -1.0630625555   -1.9583228411    0.9903634222
 C   -0.7040727204   -1.5571154424    2.4403271911
 C    0.8453166142   -1.4626944590    2.3957158352
 C    1.1479879449   -1.7725699405    0.9201619935
 O    0.1213100893   -2.6226426003    0.5079967729
 O    1.1646413327   -0.5574031576    0.1428349747
 H    0.8602619228    1.7041264964   -0.4065777962
 H   -2.1092277747   -0.1179757740    0.3944471882
 H   -1.5233034052   -1.1249267391   -0.9333308605
 H   -1.8892711304   -2.6677814310    0.9256331307
 H   -1.1765576448   -0.6155010561    2.7286119499
 H   -1.0321263353   -2.3239828653    3.1446768985
 H    1.2373803253   -0.4870396746    2.6865010807
 H    1.3083169090   -2.2207718638    3.0314760126
 H    2.1087346220   -2.2466614335    0.7216913078