14

 N   -0.0363050159   -1.2349643960    0.0446377555
 C   -0.0079943913   -0.0801138913    0.0071987421
 C    0.0357772916    1.3743041698    0.0080427165
 C   -0.1732116832    2.1347271015    1.3573656795
 N    1.1453176354    2.8480317455    1.2382102880
 C    2.1702697980    1.8003306521    1.2295805926
 C    1.4249428189    2.0410913130   -0.0300123207
 C    2.0090928610    2.5952030264   -1.2124284482
 N    2.4639919833    3.0205471557   -2.1869733818
 H   -0.6174850573    1.7647893320   -0.7737214138
 H   -0.9963249270    2.8470662511    1.3166731856
 H   -0.2570723835    1.5160244104    2.2535944680
 H    3.1802622548    2.1924587915    1.2771847431
 H    2.0022622750    0.8715607183    1.7707426636