18

 N   -0.9838455005    0.4832272994   -1.0150188009
 C   -0.2052346646    0.6805939836   -0.1833163439
 C    0.8260574070    0.9388074127    0.8382897620
 N    1.8016843311    1.9876038929    0.5611213436
 C    1.9852422712    2.5233627503   -0.7842038567
 C    1.4013053827    3.3738876993    0.2956795224
 C   -0.0223687386    3.8344903951    0.2556247569
 C   -0.5765706498    4.5586952609    1.4325286316
 N   -0.2979290328    5.2795826497    0.1816558383
 H    0.3278364471    1.1627770609    1.7875417101
 H    1.3761299846    0.0013258951    0.9815480657
 H    3.0169165916    2.6483039750   -1.1015932044
 H    1.3019569969    2.1933322176   -1.5648933241
 H    2.0604269304    4.0869983692    0.7947436592
 H   -0.6995264162    3.2404048672   -0.3500478561
 H   -1.6292225840    4.4646376968    1.6829687402
 H    0.0813918664    4.7160212202    2.2841400863
 H    0.5703904675    5.8042044242    0.2679375698