19

 C   -0.0069167739   -0.8340607427    1.2926100444
 C    0.0506090537    0.0426105995    0.0525933478
 O    0.0393908362    1.2562725455    0.1237986043
 N    0.1162406765   -0.6401427329   -1.1497295537
 C    0.1331585564   -2.1050698686   -1.2898283306
 C    0.2138862974   -2.2775580314   -2.8297586256
 N    0.2337101031   -0.9300112713   -3.4015949036
 C    0.1791923250   -0.0794144106   -2.4527065233
 C    0.1807332590    1.3963611888   -2.6838136924
 H   -0.8852373361   -1.4875861238    1.2797508699
 H    0.8762695193   -1.4765287915    1.3694597191
 H   -0.0553258523   -0.1801763099    2.1625437354
 H    0.9953221625   -2.5380197249   -0.7731663990
 H   -0.7719653000   -2.5496268954   -0.8645418679
 H    1.1141888290   -2.8213543229   -3.1354720430
 H   -0.6422122397   -2.8340471739   -3.2261287420
 H    0.2340796086    1.5664152399   -3.7597398390
 H   -0.7175957297    1.8596117523   -2.2700517828
 H    1.0262458849    1.8715943536   -2.1817487481