21

 C   -0.1311177276    1.5557831152    0.0174353942
 C    0.0633746548    0.0595603310   -0.0591312108
 C    0.6511676379   -0.5798556969   -1.3419067596
 C   -0.4283762441   -1.6415267670   -1.0537525957
 C    0.0398292515   -2.7016955371   -0.0556365531
 C    0.9735725916   -2.0661447238    1.0076561633
 O    2.3475278050   -2.1443083420    0.6100602465
 C    0.6709211957   -0.5638208506    1.2055317946
 O   -1.1940523434   -0.6582450591   -0.3043537516
 H    0.8357134404    2.0648866583    0.0910686249
 H   -0.6514640772    1.9185556509   -0.8732296591
 H   -0.7259096296    1.8257860965    0.8968620834
 H    0.4091241202    0.0122228230   -2.2267371267
 H    1.6971129323   -0.8818131852   -1.3386568134
 H   -1.0004433428   -2.0599726518   -1.8866981402
 H   -0.8487053852   -3.1271925628    0.4239723869
 H    0.5654054083   -3.5241289883   -0.5579081492
 H    0.8498902402   -2.5920723351    1.9648725599
 H    2.5562420792   -3.0707082419    0.4518772264
 H    1.6037926723   -0.0688858700    1.4937002018
 H   -0.0493992197   -0.4281962332    2.0189844475