17

 C   -0.4313789660    1.0588257348   -0.5141455926
 N    0.6204001056    1.5234629025    0.4078722925
 C    0.3933588934    0.0751930882    0.2318312257
 C   -0.1429623565   -0.6261346419    1.4218384727
 N   -1.2447665105   -0.0841708478    2.2807992901
 C   -0.9028175515   -1.3827963413    2.9475710959
 C   -0.6658864244   -2.0920262524    1.5835185566
 O    0.6292931989   -2.6480384909    1.9486913210
 C    0.6195620303   -1.3440086745    2.5998289964
 H   -1.4439436838    1.2561549812   -0.1772254608
 H   -0.2697849257    1.1519592729   -1.5846268915
 H    1.4428037897    1.8097210162   -0.1167050430
 H    1.1302652663   -0.4972049471   -0.3277176299
 H   -0.8946780622    0.7063587247    2.8264330091
 H   -1.4025244176   -1.7590631924    3.8397826692
 H   -1.3417994216   -2.6750562610    0.9598053284
 H    1.4867842155   -1.0370572513    3.1863990202