21

 C   -0.0565516083    1.5507427755   -0.0643366988
 C    0.0512363404    0.0229786312   -0.0330597497
 C    0.7047419077   -0.5222243299    1.2397904211
 C   -0.0819928518   -0.2449593215    2.5596505323
 C    0.0868168068   -1.5219172884    3.3820728757
 C   -0.3579804128   -2.8119232718    2.7185914923
 O   -0.5205701153   -2.6203802066    1.3121848122
 C    0.8339936757   -2.0462824693    1.2628117393
 C    1.0928423066   -2.4538417768    2.7280346520
 H    0.9304493424    2.0203795427    0.0183579207
 H   -0.5103945371    1.8950400654   -0.9988564599
 H   -0.6715552875    1.9272559620    0.7596627457
 H   -0.9429428344   -0.4282947765   -0.1303485626
 H    0.6304787302   -0.3145278649   -0.9028646575
 H    1.7186303775   -0.1051962428    1.3318297781
 H    0.3117054833    0.6238901919    3.0942309691
 H   -1.1379462111   -0.0468144562    2.3464552814
 H    0.0346886605   -1.4915102917    4.4650733690
 H   -0.9278462946   -3.6015833323    3.1943790293
 H    1.4250364339   -2.4989312658    0.4638589183
 H    1.9669599877   -2.9108849641    3.1695884219