22

 C    1.4115248061    0.8326078978   -0.6732005964
 C    0.2071166126    0.1423954268   -0.0801733441
 N    0.4073283023   -1.1513394331    0.6025914913
 C   -0.0650601687    0.0077445767    1.3747589652
 C    0.8129725477    0.5392707481    2.4840671619
 O    0.5555564725    1.9391633724    2.5249232563
 C    0.6477098668   -0.1601912460    3.8715182189
 C    2.1907119433   -0.1408681002    4.0478483128
 C    2.3286329040    0.1718023667    2.5322829442
 H    2.3057900983    0.6696417069   -0.0709201136
 H    1.6114902984    0.4550781500   -1.6820384523
 H    1.2351913074    1.9109218346   -0.7410689220
 H   -0.6878640618    0.2219426316   -0.6974807767
 H   -0.3590588523   -1.7881675885    0.4054406258
 H   -1.1189055138    0.0260174244    1.6545090986
 H    1.0143632192    2.3080529022    3.2869685592
 H    0.0366566564    0.3797406856    4.6006590312
 H    0.2566337446   -1.1762243379    3.7675370876
 H    2.5345120177    0.6786067105    4.6864657316
 H    2.6565496783   -1.0615506814    4.4047037687
 H    2.5383306914   -0.7200931435    1.9395098766
 H    3.0119164993    0.9738836664    2.2404792155