15

 C   -0.0153095938    1.4761143586   -0.0225095556
 N   -0.0083259305    0.0307529708    0.0222435056
 C   -0.0394481454   -0.8266500829   -1.0547981394
 N   -0.0231278123   -2.1110080362   -0.7440691328
 C    0.0209949923   -2.0754467611    0.6200709872
 C    0.0320581532   -0.7878861760    1.1377462096
 C    0.0779646353   -0.9323561072    2.5388363282
 N    0.0936715513   -2.2299899310    2.8541407543
 N    0.0588472933   -2.9188830871    1.6819159615
 H    0.8880226344    1.8859090478    0.4410131376
 H   -0.0499300309    1.7995138889   -1.0647579991
 H   -0.8902149657    1.8791571732    0.4979757046
 H   -0.0740821982   -0.4384353983   -2.0634169513
 H    0.1002557218   -0.1953581630    3.3264787388
 H    0.0639465252   -3.9232366365    1.7045164209