20

 C   -0.7660328435    1.1253244760    0.0035729604
 C    0.1485729460   -0.0900790963   -0.1172027833
 C    1.3418204015    0.0715200421   -1.0909667591
 C    2.3673941605   -0.8856361274   -0.5387210533
 C    2.0744830157   -1.2747949141    0.6989007504
 C    0.8112862335   -0.5976077138    1.2209905890
 C    1.1851011085    0.5307360086    2.2133294996
 C   -0.0776491744   -1.5461021298    1.9045684645
 N   -0.7836832205   -2.2854630719    2.4450190357
 H   -0.2243278055    2.0155277213    0.3381975182
 H   -1.2120583149    1.3581864425   -0.9686482717
 H   -1.5853430450    0.9404421332    0.7058463289
 H   -0.4470677017   -0.9316513229   -0.4869820483
 H    1.0545096308   -0.1515184591   -2.1242884528
 H    1.7287911026    1.1012181606   -1.0949929168
 H    3.2532131958   -1.1841195362   -1.0881032822
 H    2.6631565704   -1.9337703536    1.3258919508
 H    1.8141290787    1.2720938041    1.7135562182
 H    0.2949326067    1.0278540616    2.6069467965
 H    1.7465399650    0.1219080949    3.0577232054