17

 C    0.1088363414    1.5059852736    0.0316380813
 C   -0.0183281539    0.0102378814   -0.1103551999
 N   -0.1501352142   -0.5079681291   -1.2620144802
 C   -0.1173764561   -1.9655452245   -1.3836842485
 C   -1.2490574894   -2.6640981264   -0.6760604089
 C   -1.4995432528   -2.5450594996    0.6301990633
 C   -0.7148722310   -1.7487177224    1.5927028622
 O   -0.7387209703   -1.9709439332    2.7885382636
 N    0.0534501246   -0.6778476837    1.1168308976
 H    1.0398999436    1.7655085057    0.5503078419
 H    0.1161850054    1.9626777638   -0.9568780618
 H   -0.7186640532    1.9165654745    0.6203589114
 H   -0.1409165949   -2.2087093660   -2.4483286385
 H    0.8390996504   -2.3431983108   -0.9873443715
 H   -1.8873465010   -3.3118975921   -1.2719839229
 H   -2.2968868289   -3.1087010601    1.1022640841
 H    0.4128483700   -0.1442587710    1.8990920369