18

 O    0.4852126736    0.6166961806   -1.1085273380
 C    0.0544586935   -0.2641845862   -0.1169828393
 C    0.0934749351    0.1123290789    1.3960526571
 C   -1.2586611999   -0.6380876750    1.5954922914
 C   -2.4845048476    0.2874885632    1.7204787951
 C   -2.5363920206    0.4185291917    0.1548219489
 C   -2.2239534269    1.7346186044   -0.3796655943
 N   -1.9492006654    2.7877006040   -0.7749966793
 C   -1.4304173542   -0.6950747623    0.0325697265
 H    0.0287347987    1.4607664353   -1.0097077976
 H    0.6347581103   -1.1808154100   -0.2685653642
 H    0.9529001431   -0.2609637360    1.9561307318
 H    0.0099500659    1.1891900881    1.5755703618
 H   -1.2272298146   -1.5341107483    2.2136508958
 H   -3.3763334993   -0.2204773838    2.0938698908
 H   -2.3466902963    1.2163170964    2.2785544882
 H   -3.4917597327    0.1006329509   -0.2682864875
 H   -1.7623176227   -1.5733364321   -0.5214006173