21

 C   -0.0416179310    1.5518196500   -0.0185940756
 C   -0.1204162306    0.0579646164    0.3120275843
 C   -1.4869057617   -0.5431903916    0.0046990257
 C   -1.8412559800   -0.7686051679   -1.4870091764
 O   -1.9353628454   -2.2019276586   -1.2981304157
 C   -1.6384897960   -2.0602585446    0.0870704940
 C   -0.8423427454   -3.0742020812    0.8560725805
 C   -2.3238774318   -2.8549391709    1.1404628966
 O   -2.7165520659   -2.1509403565    2.2830337263
 H    0.9488067867    1.9571009095    0.2093781538
 H   -0.2377633126    1.7363871433   -1.0807112450
 H   -0.7778195540    2.1232358040    0.5573865411
 H    0.6489511416   -0.4902677309   -0.2466098537
 H    0.1026657047   -0.0940584005    1.3755217611
 H   -2.2659277706   -0.0173026528    0.5636740107
 H   -2.7912144016   -0.3429342603   -1.8285748964
 H   -1.0497689483   -0.5092400464   -2.2011781351
 H   -0.5607089567   -3.9898105590    0.3460467842
 H   -0.1263770934   -2.7057148757    1.5845347794
 H   -3.0073659535   -3.6341856240    0.8019965434
 H   -2.5638606845   -2.7148701725    3.0488618267