19

 O   -0.0494266326    1.4055100755   -0.0588417564
 C   -0.0034487294    0.0062359411    0.0284096446
 C    0.3114095027   -0.6977667796    1.3813019056
 C   -0.7524029636   -1.7249168579    0.9637259299
 C   -0.3830417018   -2.4878970567   -0.3732261091
 C   -1.5679174007   -1.7671825266   -1.0763637985
 C   -1.4181454090   -0.6854947727    0.0080401317
 O    0.8688877945   -2.0520852448   -0.8839171650
 C    0.8852920603   -0.6340209854   -1.0444976490
 H    0.8447651114    1.7480910536    0.0533423985
 H    1.3378844342   -1.0341615875    1.5555930419
 H   -0.0403079449   -0.0973640748    2.2252499898
 H   -1.3077197307   -2.3017801531    1.7036040551
 H   -0.3496947209   -3.5779900003   -0.3592487627
 H   -1.4556562705   -1.5171979611   -2.1352998531
 H   -2.5018343788   -2.3198836165   -0.9376878795
 H   -2.2378025299   -0.0271168331    0.2965256470
 H    0.5417741526   -0.3389814262   -2.0462671872
 H    1.9281746670   -0.3112417637   -0.9326253938