16

 C   -0.0342322282    1.4767761797    0.1187040699
 C   -0.0387913221   -0.0172499615    0.0443980696
 C   -1.2448859394   -0.9273364404   -0.2407183931
 C   -0.3031105086   -2.1102569819    0.1187322994
 O   -0.7384643591   -3.3413302958    0.5230326325
 C    0.6431948035   -1.0363137159    0.8519288180
 N    1.2033144671   -0.6800500635   -0.5203619803
 C    0.7492571400   -1.9927944605   -0.9793998772
 O    1.2204023460   -2.7036547231   -1.8069408651
 H    0.9485942409    1.8421576529    0.4254989575
 H   -0.2708256662    1.9128664484   -0.8572149461
 H   -0.7808306550    1.8267280906    0.8394583655
 H   -2.0195686694   -0.7789206973    0.5197826093
 H   -1.6931057301   -0.9262750234   -1.2400532440
 H   -1.5512504952   -3.2448294227    1.0303061189
 H    1.2725225159   -1.0510154856    1.7300326851