15

 O    0.0125093853    1.4599615399   -0.0005907341
 C    0.0734049399    0.0667415750    0.0023260991
 C    0.8305816053   -0.4296216284   -1.2245020416
 O    1.0923410609    0.3221256813   -2.1298880797
 C    0.6752692927   -0.4583668312    1.3314895550
 C    2.1462526744   -0.0261771513    1.4519440793
 O    2.8911086193   -0.0483659855    0.5093284022
 C   -0.1065189128   -0.0715833382    2.4961678337
 C   -0.7182485864    0.2608787320    3.4746717712
 H    0.3761234201    1.7284902531   -0.8612202362
 H   -0.9370875016   -0.3772599430   -0.0771557199
 H    1.0507720360   -1.5139157116   -1.2721565988
 H    0.7017494029   -1.5587196126    1.2680482529
 H    2.4792180163    0.2795334274    2.4634340046
 H   -1.2717765925    0.5552926932    4.3321607223