14

 O    0.0583082298    1.3449896362    0.0086689088
 C   -0.0209231070   -0.0534671507    0.0018748594
 C   -1.4854630370   -0.4669234361    0.0117736053
 O   -2.4053915766    0.3154773267    0.0229937286
 C   -1.7496051346   -1.9272204573    0.0059979930
 C   -2.9192795684   -2.6274554129    0.0116159224
 C   -2.4915300592   -3.9774959015    0.0010848816
 N   -1.1820598086   -4.0835002071   -0.0105665719
 O   -0.7060287078   -2.7831018655   -0.0071960965
 H    0.9881653980    1.5896234601   -0.0008021545
 H    0.4483030420   -0.5113288471   -0.8856976460
 H    0.4628177614   -0.5206494470    0.8767359184
 H   -3.9178356918   -2.2259453429    0.0218751342
 H   -3.0878167501   -4.8787020650    0.0011270673