21

 C    1.0629871033    2.0856977083    3.1123500964
 C    0.5190375056    0.7276739988    2.6795770874
 C   -0.1652234251    0.5238613748    1.2830343510
 C    0.7227116628   -0.7061645256    1.0402786221
 C    2.1805720665   -0.3513970967    1.0401445058
 C    2.7846926443    0.8805436233    0.3696388392
 C    4.0306760840    1.3186144664    0.9907827543
 C    5.0557309510    1.6631443700    1.5160926690
 C    1.4680043370   -0.4405408528    2.3634038216
 H    1.8125585071    2.4849200505    2.4251210586
 H    0.2523240006    2.8191353077    3.1926225756
 H    1.5381589708    2.0108135337    4.0968462728
 H   -0.1871406255    0.3846658448    3.4435173080
 H   -1.2262680267    0.2801198292    1.3674811117
 H   -0.0659228438    1.3414929224    0.5608548455
 H    0.3675018292   -1.6485309080    0.6397881494
 H    2.8096046527   -1.2276030768    0.8930353208
 H    2.9723245058    0.6407655966   -0.6857514788
 H    2.0732346218    1.7115848668    0.3597115699
 H    5.9613655623    1.9740647161    1.9745135434
 H    1.8012364963   -1.1602208097    3.1033446865