19

 C    0.0557526075    1.3874901894   -0.3013368347
 C    1.3775159161    0.7006191610   -0.0478968719
 C    2.2253408997    0.9196438361    1.1528523434
 C    1.9272809877    1.3642656209    2.3799354952
 C    0.6339223790    1.7566823766    2.9554868132
 C   -0.5077832642    1.0558024685    2.9620819456
 C   -0.7480045539   -0.2780545694    2.3953860903
 C   -0.4967172344   -0.7513886499    1.1685724583
 C    0.0721995670   -0.1006980989   -0.0403572649
 H   -0.3358430419    2.0326588583    0.4717972594
 H   -0.1515405580    1.7156334293   -1.3139466195
 H    1.9723155585    0.5253170178   -0.9391513918
 H    3.2766046739    0.7047616298    0.9707824805
 H    2.7692024280    1.5036507087    3.0582096871
 H    0.6441666478    2.6994801325    3.5027207430
 H   -1.3485215581    1.4761914483    3.5142324214
 H   -1.2476208525   -0.9622155990    3.0814057971
 H   -0.7823893362   -1.7869911581    0.9942221315
 H   -0.0481363860   -0.7150099521   -0.9274831531