18

 O    0.0082795306    0.1345549046    0.5370830135
 C   -0.0116988096    1.2909048842    0.2366545924
 C   -1.1067394840    2.3077212529   -0.1394957411
 C   -1.6780645055    3.0638363050    1.0555432678
 C   -0.6833645739    3.6100626180    2.0468108084
 C    0.6521875857    3.6278948390    2.0266335486
 C    1.6307203669    3.1080144176    1.0055554056
 C    1.0439491213    2.3364369683   -0.1719877126
 N   -0.0524339834    3.1096306512   -0.8523111554
 H   -1.9120583469    1.9259229275   -0.7753241731
 H   -2.2875394329    3.8970568013    0.6774869874
 H   -2.3753056767    2.3976640069    1.5827942802
 H   -1.1593353311    4.0746977635    2.9090532070
 H    1.1414115668    4.1054171248    2.8742940656
 H    2.2060422871    3.9570536204    0.6096011466
 H    2.3611000285    2.4609020696    1.5112387041
 H    1.8396009151    1.9760149398   -0.8320031923
 H   -0.0641936380    2.8725947653   -1.8402316527