23

 C   -0.0630031706    1.5027732075   -0.0642664567
 C   -0.0291358645   -0.0134431008    0.0178920952
 C   -1.2230721869   -0.6722023694   -0.6506624357
 C    1.3279277671   -0.6944170376   -0.0894399038
 C    0.6075254211   -0.6418771188    1.2419887678
 O    1.0890593595    0.2831468472    2.1944590282
 C    0.0661827974   -1.9071237668    1.8835507371
 C    1.1373681432   -2.6982419369    2.6420309490
 O    0.6375536137   -3.9049051762    3.1957653982
 H    0.7722716014    1.9529770660    0.4722714545
 H   -0.0272106882    1.8272576230   -1.1106260787
 H   -0.9887166088    1.8951168011    0.3727992334
 H   -1.3109665363   -0.3227515728   -1.6858915551
 H   -1.1458137139   -1.7613956192   -0.6824771108
 H   -2.1572638681   -0.4153138360   -0.1374239382
 H    1.3895285531   -1.6468707628   -0.6074909559
 H    2.2006761853   -0.0595183254   -0.2081688863
 H    1.9886360616    0.0315638108    2.4261269436
 H   -0.7350489504   -1.6290209989    2.5827793487
 H   -0.3738680278   -2.5700858734    1.1342548438
 H    1.9365371929   -2.9973540735    1.9544649114
 H    1.5924858471   -2.0655804233    3.4201461484
 H   -0.0413109477   -3.6725718637    3.8374939218