22

 C   -0.0053855287    1.5574690584    0.0242335505
 C   -0.0011615252    0.0190284573    0.0105544654
 C   -1.4507047074   -0.4826058980    0.0050699181
 O   -2.0932994116   -0.0228101409    1.1850087120
 C    0.7455904267   -0.5667661362   -1.2264077635
 C    2.0199161007   -1.1972452741   -0.6903457065
 C    2.9448944227   -0.3472229416    0.1011281230
 N    2.0039766048   -1.2467520306    0.7829932225
 C    0.7662549862   -0.5872632323    1.2354385421
 H    1.0076906399    1.9690159558    0.0381839357
 H   -0.5110678446    1.9533483991   -0.8645026776
 H   -0.5369085390    1.9280459264    0.9041211782
 H   -1.9662452589   -0.1130319528   -0.8969347017
 H   -1.4500392708   -1.5835065484   -0.0392447295
 H   -2.9915602126   -0.3647928332    1.1957268292
 H    0.1378994897   -1.3363279587   -1.7173299175
 H    0.9458470849    0.2029634793   -1.9787816764
 H    2.4066753170   -2.0767756115   -1.1986539715
 H    3.9903849470   -0.6268287780    0.2004090763
 H    2.7641905255    0.7242170948    0.1323438651
 H    1.0008212332    0.1715492750    1.9885053398
 H    0.1492604205   -1.3442266298    1.7289001963