17

 C    0.0510871360    1.5648737210   -0.0095684508
 C    0.0333254967    0.0222308899    0.0256354331
 C    0.8242846998   -0.5045933313    1.2414101467
 C   -1.4371833969   -0.5129499994    0.0491587512
 C   -2.1880176914   -0.0844801971    1.2215486351
 C   -2.8049552653    0.2707788534    2.1901246315
 C    0.6565269566   -0.4895893264   -1.2061299433
 N    1.1410909933   -0.8936551249   -2.1747094209
 H    1.0776999359    1.9380351837   -0.0427603091
 H   -0.4800305276    1.9452152612   -0.8864674398
 H   -0.4364926963    1.9537066856    0.8878544614
 H    0.3508597566   -0.1536193395    2.1617221114
 H    0.8436883231   -1.5978127513    1.2552951621
 H    1.8557049524   -0.1443000358    1.2159746754
 H   -1.9483901262   -0.1767613019   -0.8603304544
 H   -1.4136730902   -1.6079545956    0.0051356973
 H   -3.3618337165    0.5773914181    3.0409974329