15

 C   -0.0609233378    1.4718914070    0.0832713565
 N   -0.0354726881    0.0417502512   -0.1730315909
 C   -1.1713544991   -0.7067840732   -0.0699924915
 C   -1.2773570631   -2.0988352703   -0.0025970307
 N   -2.6540913613   -2.3409745225    0.0325515553
 C   -3.2679018092   -1.1438816578   -0.0066450609
 N   -2.4148072414   -0.1375310217   -0.0657283161
 C   -0.2964269626   -3.0952045443    0.0323828901
 N    0.5418040687   -3.9003900598    0.0639923550
 H    0.8970333132    1.8986780140   -0.2218041591
 H   -0.8549871011    1.9317576300   -0.5072325549
 H   -0.2391000444    1.7175917330    1.1397639354
 H    0.8201208792   -0.4401454196    0.0538829209
 H   -3.0864604986   -3.2481808355    0.0827724382
 H   -4.3430537643   -1.0454605505    0.0116044327