14

 C   -0.0562406410    1.3877234831    0.0086636113
 O   -0.0286074166   -0.0410614225    0.0033512783
 C   -1.2126214492   -0.6499020610    0.0101394116
 N   -2.3734710817   -0.0157577794    0.0213730240
 N   -3.2936837273   -1.0179442778    0.0247558498
 C   -2.7510530876   -2.2454230846    0.0159003429
 C   -1.3750105708   -2.0690656827    0.0062383479
 C   -0.3723186095   -3.0624225510   -0.0050080820
 N    0.4505206296   -3.8776835671   -0.0142846084
 H    0.9870244123    1.7030659689    0.0017347046
 H   -0.5755414635    1.7687337348   -0.8760254654
 H   -0.5617886979    1.7623804557    0.9039704182
 H   -4.2695051280   -0.7760437980    0.0331286447
 H   -3.3441541387   -3.1456517386    0.0170265527