13

 O   -0.0106451224   -0.0392019018   -0.0017984564
 C   -0.0014177358    1.1709089283    0.0071237788
 C    1.2271533177    1.9764913319   -0.0002090068
 C    2.4926369757    1.4638261117   -0.0181390114
 O    3.4102443708    2.4577409925   -0.0206882873
 C    2.7398932380    3.6325738911   -0.0041861005
 C    1.3914660233    3.4177155935    0.0091909719
 C    0.3757656585    4.4790248157    0.0287291629
 O    0.6392120851    5.6601626517    0.0353172738
 H   -0.9497613692    1.7477887446    0.0219394751
 H    2.8712150201    0.4557929782   -0.0301223870
 H    3.3356623040    4.5295993098   -0.0038831507
 H   -0.6781212859    4.1303039028    0.0376478377