19

 C   -1.6328377255   -0.5189239551    0.0460799505
 C   -0.1608205514   -0.0838221609   -0.0176146331
 N    0.6557882532   -0.6630802583   -1.0951210877
 C    0.9277691025   -2.0812592762   -0.9401690279
 C    1.8760092339   -2.3313906817    0.2265430083
 O    1.8704844337   -3.3276050715    0.8983732359
 C    0.2303641420   -0.3045250784   -2.4405393362
 C    0.2631790789    1.1484182301   -2.6555189925
 N    0.2721128476    2.2896106263   -2.8330561462
 H   -2.1884513596   -0.2205341445   -0.8484567783
 H   -1.7393114170   -1.6008312475    0.1698328375
 H   -2.1165607446   -0.0401614627    0.9026872081
 H   -0.1037245603    1.0054479132   -0.1125862492
 H    0.3333679499   -0.3353481902    0.9276558311
 H    0.0424648983   -2.7262337098   -0.8214828339
 H    1.4586881949   -2.4352661322   -1.8355994864
 H    2.6071001269   -1.5071646966    0.3862439101
 H    0.9186713161   -0.7632747417   -3.1592933290
 H   -0.7814614894   -0.6580643224   -2.7082979711