15

 C   -0.2484170530    1.3506819532   -0.3348943639
 C   -0.0461707335   -0.1172764953   -0.1518113555
 C    0.3272660304   -1.0588603747   -1.0740177921
 N    0.4013921757   -2.2653570018   -0.4122435324
 C    0.0744857503   -2.0054094309    0.8858000278
 N   -0.2045495023   -0.7382835733    1.0731690589
 O    0.6537990598   -0.9912998157   -2.4012450024
 C   -0.3633159241   -0.7215877233   -3.2818806930
 O   -0.1667601179   -0.6026774547   -4.4474520446
 H    0.3623461017    1.9119870324    0.3790598919
 H    0.0310447167    1.6669519975   -1.3436675509
 H   -1.2917078670    1.6358516780   -0.1622505788
 H    0.6849486528   -3.1413279811   -0.8193694280
 H    0.0600829931   -2.7770878257    1.6407828425
 H   -1.3354537828   -0.6321146646   -2.7660628894