17

 C   -0.1298748009    1.4504012631   -0.5402079435
 C    0.0226169618    0.0011766191   -0.1354106460
 C    1.0511547490   -0.8433421333   -0.7584073049
 O    1.2239679050   -0.3213814233    0.5644319934
 C   -1.2203353575   -0.7079615835    0.4419244439
 C   -1.6792535596   -0.0364117713    1.7486786783
 O   -1.5428170673   -0.5357589352    2.8302143504
 C   -2.3288693224   -0.7237147404   -0.5050168189
 C   -3.2638200307   -0.7025787495   -1.2605294843
 H    0.8010750354    1.8155124394   -0.9794575537
 H   -0.9360558052    1.5647312145   -1.2700817002
 H   -0.3601294987    2.0795995704    0.3255272485
 H    0.9056679367   -1.9206179764   -0.8216576829
 H    1.7051655924   -0.4163692743   -1.5170758915
 H   -0.9255662710   -1.7264501625    0.7137305081
 H   -2.1624103046    0.9547417099    1.6138406887
 H   -4.0850901522   -0.7042543768   -1.9343243354