18

 C    0.1283935567    1.4906520514   -0.1151976344
 C   -0.0219132241   -0.0297578749   -0.0515454345
 C   -1.4904016101   -0.5099123012    0.0660543689
 C   -2.2728934498   -0.0740687262   -1.0950408050
 N   -2.8752004696    0.2450344508   -2.0291411004
 C   -1.5716585890   -2.0262882679    0.2489490145
 C   -2.7663277640   -2.8168807739   -0.1278911445
 N   -1.5073544465   -2.9508739845   -0.8873833185
 H    1.1836745847    1.7704977957   -0.1780505816
 H   -0.3816958550    1.9055725769   -0.9898324797
 H   -0.2912913497    1.9693287205    0.7764669508
 H    0.4289373835   -0.4957386546   -0.9344628627
 H    0.5142752513   -0.4249301237    0.8185865509
 H   -1.9361455051   -0.0362390869    0.9522612095
 H   -0.9873007320   -2.3557264296    1.1062860602
 H   -3.0437610733   -3.6872618794    0.4592899750
 H   -3.5960115351   -2.2960684232   -0.5974523711
 H   -1.5897844728   -2.4371750593   -1.7633685374