13

 N    0.1035158635    1.4009772271    0.1387619804
 C   -0.0273068962    0.0052290778    0.0474449368
 C   -1.1119121161   -0.8364010835    0.0412133661
 C   -0.6029336251   -2.1775077350    0.0117808624
 C    0.7765751378   -2.0995882530   -0.0094518203
 N    1.1082777284   -0.7752404204    0.0193971629
 C   -1.3630956907   -3.3714956461   -0.0102077625
 N   -1.9951950103   -4.3427666818   -0.0286352250
 H    0.3828170354    1.8271580066   -0.7400595095
 H   -0.7673428027    1.8268669925    0.4299893335
 H   -2.1507539114   -0.5485978419    0.0403401548
 H    1.5212819602   -2.8765000797   -0.0437343333
 H    2.0407966572   -0.4052016826    0.0947085038