13

 O   -0.3959777483    0.0647369122    0.3896659075
 C   -0.1513013275    1.0632679881   -0.2244919131
 N    1.0672392514    1.7442353594   -0.2490999729
 C    2.2550781014    1.4012868369    0.4103580337
 O    2.4042187201    0.4116769683    1.0760598337
 C    3.3526426178    2.4264112933    0.2130061992
 C    4.3700690584    2.5638766847    1.2711935443
 O    4.6581010621    1.8821677250    0.0600634145
 H   -0.8897788260    1.5862954748   -0.8658961557
 H    1.0853297878    2.5772086255   -0.8196597504
 H    3.1380751201    3.2826018689   -0.4280768419
 H    4.8631064386    3.5253358958    1.4041110721
 H    4.2810484939    1.9268645873    2.1477794290