23

 C    0.2513095426   -1.1033087606    1.8660610269
 C    0.0363032672   -0.4489716447    0.4944096210
 C   -1.3478870164   -0.6952353146   -0.0924067358
 C   -2.4536686749    0.0850250717    0.5926685540
 O   -2.2192025004    1.4749521875    0.3866730248
 C   -1.6142358951   -0.8701367499   -1.5707278256
 C   -0.4967439013   -1.6344940871   -2.2896050911
 C   -0.6793465511   -2.8189665961   -1.2861850139
 C   -1.8114992013   -2.0416250386   -0.5974895336
 H    1.2657477340   -0.9166459682    2.2325926506
 H   -0.4426179128   -0.7139410124    2.6182379908
 H    0.1068727110   -2.1877613824    1.8144874893
 H    0.1782765141    0.6342029107    0.5736668582
 H    0.8080443468   -0.8072219094   -0.1925625880
 H   -3.4276854784   -0.2148529864    0.1746241874
 H   -2.4739094571   -0.1503187358    1.6677860692
 H   -2.8316730756    1.9663309955    0.9416719470
 H   -2.3615524186   -0.2599522634   -2.0648864316
 H   -0.7805183720   -1.9181427261   -3.3056182641
 H    0.4855068895   -1.1532865101   -2.3320507873
 H   -1.0360644655   -3.7248258032   -1.7810009058
 H    0.1810403981   -3.0848549680   -0.6639969421
 H   -2.7364053527   -2.4874832082   -0.2471153205