19

 O    0.2143070181    1.3429573866   -0.3309739729
 C    0.0572118922   -0.0372192003   -0.0522454646
 C    0.6670250388   -0.4944174244    1.3044159795
 C   -0.5098258550   -0.6172015151    2.2961086510
 C   -0.9796604376    0.7487972055    2.8198809506
 O   -1.7151599851    1.3378039223    1.7319535754
 C   -2.2960572074    0.2713868468    0.9995662172
 C   -1.4089894495   -0.4809530526    0.0304726675
 C   -1.7094838385   -1.0387392977    1.4134323870
 H   -0.3695051302    1.8079496280    0.2842669508
 H    0.5598111526   -0.5507816498   -0.8770924943
 H    1.1247205718   -1.4812726589    1.1762508357
 H    1.4499017977    0.1960621070    1.6319413161
 H   -0.3076489243   -1.3127279307    3.1132697187
 H   -1.6415166907    0.6347079990    3.6900883164
 H   -0.1660438935    1.4316683213    3.0798502309
 H   -3.3474785680    0.4185569415    0.7786193360
 H   -1.8871130319   -0.8929615734   -0.8516488259
 H   -2.2886020994   -1.9329223150    1.6043368949