21

 C   -0.0351087425    1.5382743219   -0.0025096939
 C    1.4970139618    1.7829532817   -0.0331193656
 C    1.8873596087    1.8188189158   -1.5258047817
 C    1.1973430280    0.6076906083   -2.2216204875
 C    0.9948218391   -0.4890810950   -1.1549245093
 C    2.3438554186   -0.5941849381   -0.3951423394
 C    2.0173708204    0.4551081845    0.6770803023
 O    0.8279034906   -0.1516555463    1.2105269357
 C    0.0379518476    0.0048271857    0.0192903763
 H   -0.5126248197    1.8829296080    0.9167588351
 H   -0.5507376597    1.9848640337   -0.8556820481
 H    1.8167678447    2.6816085033    0.4967748312
 H    1.5617531483    2.7623905977   -1.9753682398
 H    2.9742161178    1.7769834753   -1.6492527995
 H    0.2427431925    0.9021937947   -2.6691176137
 H    1.8164993835    0.2249278624   -3.0392956871
 H    0.6535169550   -1.4289145459   -1.5917718639
 H    2.4960646804   -1.5603180492    0.0899173394
 H    3.2048141550   -0.3810426021   -1.0327462900
 H    2.7479465556    0.6032541363    1.4724000244
 H   -0.9004557658   -0.5403650227    0.1211652449