25

 C   -0.0883853327    1.5460257211    0.0073850411
 C   -0.0144946950    0.0917572013   -0.0181149549
 C    0.0583566895   -1.1101641293   -0.0399595995
 C    0.1107546262   -2.5686534160   -0.0640669974
 C   -1.2931051150   -3.2069518133    0.0207386725
 C   -1.3484625810   -4.7545098933    0.0026255825
 C   -0.5913737106   -5.3486419044    1.2052161344
 C   -2.8299211205   -5.1673327977    0.0957219719
 C   -0.7590473040   -5.3132554779   -1.3061114733
 H    0.4714324483    1.9604470513    0.8534465934
 H    0.3259192720    1.9839974892   -0.9077603978
 H   -1.1243392709    1.8918834496    0.0976138174
 H    0.6165491397   -2.8964529259   -0.9806815199
 H    0.7333938771   -2.9211532597    0.7675144947
 H   -1.7769132965   -2.8466109641    0.9367375039
 H   -1.8937735397   -2.8219523672   -0.8122929666
 H   -0.9741371445   -4.9488610721    2.1509711366
 H   -0.7068162696   -6.4376965737    1.2338987100
 H    0.4816311472   -5.1372214874    1.1609995320
 H   -3.4057106446   -4.7694789238   -0.7472105285
 H   -2.9349057860   -6.2578050920    0.0873795789
 H   -3.2878239794   -4.7943369688    1.0185197368
 H    0.3107135882   -5.1011702998   -1.3989797160
 H   -0.8793389278   -6.4012885617   -1.3497430171
 H   -1.2633533005   -4.8878031344   -2.1810120650