19

 N    0.0134176972    0.8713911723   -0.9249077504
 C   -0.1481205675   -0.2257909100   -0.3256084458
 O   -0.9479587601   -1.1735390322   -0.8681366467
 C   -1.0732370657   -2.3670960830   -0.1311932198
 C   -2.0436366269   -2.4257485715    1.0272797450
 C   -2.3542354937   -3.1648447985   -0.2501958865
 N   -3.5217203238   -2.8668084083   -1.0269501116
 C   -3.8718791358   -1.5181567623   -1.4606421174
 C   -3.3925334748   -2.5322822769   -2.4433307959
 H    0.6433599643    1.4687831874   -0.3935117036
 H    0.2983537918   -0.5320442448    0.6292821170
 H   -0.1421195653   -2.9264325401   -0.0632703784
 H   -1.7791568598   -2.9753844308    1.9238338183
 H   -2.6203230244   -1.5224721865    1.1989906857
 H   -2.1854701850   -4.2388083166   -0.2234668664
 H   -4.9316804943   -1.2867341330   -1.3902332683
 H   -3.2003761975   -0.6953309866   -1.2448486473
 H   -2.3924535135   -2.3816235415   -2.8418035770
 H   -4.0891398552   -3.0342324073   -3.1094734707