17

 O   -0.1238819677    1.5031028538   -0.1066250742
 C   -0.0532969158    0.1803514291    0.3834119469
 C   -1.3208398676   -0.5866330221    0.0332193783
 O   -1.5043731822   -0.6471412205   -1.4158141944
 C   -1.4326892344   -2.0772269117   -1.4287836502
 C   -2.2593787095   -2.9527865199   -2.3251205204
 C   -0.7629004211   -2.8819808433   -2.5052271231
 C   -1.2577330538   -2.1248562709    0.0575701596
 O   -1.1171879953   -2.9744044293    0.8862952484
 H   -0.2987216532    1.4325222833   -1.0528542374
 H    0.8222754843   -0.3547385225   -0.0157897606
 H    0.0533676519    0.2388821778    1.4710831647
 H   -2.1977994669   -0.1454916857    0.5205230355
 H   -2.6968553438   -3.8432945658   -1.8866077769
 H   -2.8784879107   -2.4367869665   -3.0507045478
 H   -0.3845207366   -2.3199743499   -3.3520840255
 H   -0.1529670175   -3.7229289459   -2.1927699128