20

 C   -0.3675001335    1.4704610220   -0.1077561451
 C    0.1714993868    0.0478667151    0.0843664842
 C    0.8206085389   -0.5318647226   -1.1676247313
 N    1.9416395008    0.1793834002   -1.7439881953
 C    0.8981078882   -2.0107062485   -1.3667434155
 N    0.4676286105   -2.9479132266   -0.3763933269
 C   -0.0664404730   -1.1721168765   -2.2548577101
 C   -1.4704678118   -1.3174886755   -2.0407189714
 N   -2.6010366477   -1.4660718785   -1.8332761635
 H    0.4271564051    2.1718420152   -0.3823944289
 H   -1.1335053927    1.4980891389   -0.8888434527
 H   -0.8202255859    1.8375640700    0.8174065009
 H    0.9190142508    0.0340789013    0.8881907239
 H   -0.6502951054   -0.5915409694    0.4208215389
 H    1.6855159481    1.1391527896   -1.9576563897
 H    2.7071663814    0.2186431318   -1.0756374489
 H    1.7794747104   -2.3415111486   -1.9056230443
 H   -0.4048975069   -2.6657939707    0.0577295147
 H    0.2942382511   -3.8514454446   -0.8064922099
 H    0.2383451148   -0.9899059526   -3.2787701593