15

 O    0.1192337155    1.3792679012    0.1417764264
 C    0.0195037835   -0.0261158528    0.0277456447
 C   -1.4489327714   -0.4545762351   -0.1104153653
 C   -1.4948819695   -1.4025762321   -1.3145253119
 O   -2.4256963317   -2.0831570675   -1.6688420470
 C   -0.1571936547   -1.3260812969   -1.9729850310
 C    0.6675083631   -0.5562880479   -1.2473743974
 C    2.0550237276   -0.2083099688   -1.5895572471
 O    2.7171498909    0.5667338071   -0.9302375939
 H    1.0633011059    1.5870098553    0.1339212780
 H    0.4907608067   -0.5187642506    0.8929501600
 H   -1.8713359405   -0.9298647270    0.7768270918
 H   -2.0524043587    0.4312306028   -0.3350410176
 H    0.0678812569   -1.8343090196   -2.9038847762
 H    2.4708237863   -0.6897256580   -2.4980538434