18

 O   -0.2526566204    1.5613690601   -0.4835711203
 C   -0.0726496213    0.2036370418   -0.1491121801
 C   -1.4088017540   -0.5008157858    0.0579388065
 C   -2.2430746201   -0.6598943625   -1.2217459794
 O   -1.8845757623   -2.0597887433   -1.3035918113
 C   -1.3602782010   -2.0464533001    0.0360459633
 O   -2.1343705491    0.1489770834    1.1028765434
 C   -1.7710693757   -0.1265038079    2.3764378986
 N   -2.2410115585    0.5616431279    3.3225925310
 H   -0.8163472811    1.9496244111    0.1964908907
 H    0.4577056309   -0.2661476538   -0.9834714355
 H    0.5499690877    0.0804684274    0.7536390210
 H   -3.3162926748   -0.5151904798   -1.0511040509
 H   -1.9166468858   -0.0888978257   -2.0949229616
 H   -0.3746189669   -2.5214793553    0.1035469706
 H   -2.0456102192   -2.5157122931    0.7549300701
 H   -1.0802555363   -0.9747100370    2.4668514995
 H   -1.8995800220    0.2099843726    4.2148044644