21

 C    0.1588983387    1.4512317584   -0.3073713157
 C    0.0069410727   -0.0205666651    0.0650140306
 O    0.7786542177   -0.3618332555    1.2180936287
 C   -1.4599198867   -0.5142226174    0.2322107399
 O   -2.2008530043   -0.1937457274   -0.9447549422
 C   -1.4708772788   -2.0455971528    0.4084520036
 O   -1.1692458798   -2.6945248807   -0.8284340355
 C   -2.2054944455    0.1512096277    1.3988160798
 O   -2.5226566526    1.5049659964    1.1419066743
 H    1.2149465008    1.6780060074   -0.4817864834
 H   -0.4042704659    1.6721790615   -1.2166140021
 H   -0.2265256289    2.1000787199    0.4839106930
 H    0.4396006036   -0.6179731025   -0.7505318138
 H    0.7199246619    0.3723723324    1.8379710888
 H   -2.0566090673   -0.9325864411   -1.5530334353
 H   -0.7789399813   -2.3429824592    1.2023349046
 H   -2.4806644381   -2.3737797027    0.6724739886
 H   -0.2127072077   -2.7361708332   -0.9230368735
 H   -3.1184875100   -0.4292866624    1.6054557206
 H   -1.5896419109    0.1271164673    2.3036079436
 H   -2.9131272474    1.5170366687    0.2591181653