16

 O   -0.0347162563    0.0080400242    0.3797352596
 C   -0.0039189071    1.1916037657    0.1255661308
 N    1.0778874145    1.8623517152   -0.3655920146
 C    1.5141028907    3.2630465706   -0.0717510252
 C    2.5650549823    2.6525539208    0.9026159471
 C    2.5090436201    1.4933274181   -0.1465416590
 C    3.1158822636    2.2089468928   -1.3697220476
 O    3.9641689839    1.8375912902   -2.1267702224
 C    2.3495327273    3.5583860904   -1.3340878002
 H   -0.8857423022    1.8595893633    0.2089618402
 H    0.7551356189    3.9776613726    0.2428769940
 H    3.5104972111    3.1835807619    1.0450343287
 H    2.1316410786    2.3468404987    1.8557077919
 H    2.7572391045    0.4564320561    0.0542870524
 H    1.7421171716    3.6930660946   -2.2317773884
 H    3.0313061786    4.4066388348   -1.2318213473