16

 O    0.0667197614    0.0500781088   -0.6914447209
 C    0.0127052589    1.1304674187   -0.1557631329
 C   -1.3457410239    1.7603318306    0.1790284115
 N   -1.5012681821    2.3051877427    1.5200253799
 C   -0.8571899378    3.3938348193    2.0475333302
 O   -1.2798079720    3.9889144804    3.0179693632
 C    0.4633818448    3.7847838140    1.3726172765
 O    1.3572540158    2.6961548111    1.2481930950
 C    1.2842185630    1.9550606822    0.0549705125
 H   -1.5420160411    2.5243647948   -0.5926249014
 H   -2.0855840941    0.9711277694    0.0431765116
 H   -2.3663219290    2.0894231303    1.9941054560
 H    0.2703146652    4.2577435796    0.3953488707
 H    0.9311520163    4.5235189708    2.0255037546
 H    2.1307385594    1.2655114219    0.0495180711
 H    1.3803601652    2.6165567554   -0.8266979676