17

 C   -0.0860237648    1.4092261185   -0.0115588716
 C   -0.0138536953   -0.0846223024    0.0606713949
 C    0.2023434964   -1.0000247072   -1.1781761992
 C    0.9627721943   -2.1473174028   -0.4676470286
 O    1.8806223696   -1.5482069411    0.4781255996
 C    0.7001924360   -0.9963408236    1.1033403020
 C   -0.2082396860   -2.1530128212    0.5729416844
 C   -1.0237390125   -1.1349001311   -0.2965996882
 O   -2.3633637247   -0.9739129347   -0.5365054288
 H    0.9122055703    1.8496762228   -0.1118668064
 H   -0.6847689023    1.7303283435   -0.8697317611
 H   -0.5515920432    1.8284225696    0.8873387413
 H    0.3196221208   -0.5834660557   -2.1698910282
 H    1.3754324179   -2.9920855796   -1.0173737899
 H    0.8437232139   -0.6749787515    2.1344007689
 H   -0.5508460311   -3.0097991630    1.1475592301
 H   -2.6467584494   -1.6471233804   -1.1656615792