16

 C   -0.0388963902    1.5400856475    0.0576766510
 C    0.0438283765    0.0315339169    0.0136774046
 C    1.3478391136   -0.6768506046   -0.2292673761
 C    0.7077744066   -0.7243817442    1.1568263028
 O    1.2567174522    0.0731296432    2.1671564834
 C    0.1256740465   -1.9569453172    1.6033000791
 C   -0.3402911989   -3.0001913355    2.0032458506
 C   -0.8709740190   -4.1761116805    2.4447220583
 N   -1.3216476689   -5.1798464590    2.8196942037
 H    0.8403085433    1.9692902332    0.5411481820
 H   -0.1092413320    1.9424640924   -0.9581835525
 H   -0.9226072061    1.8680890934    0.6134539437
 H   -0.8344479151   -0.4646967742   -0.3881264012
 H    1.3620786684   -1.5834234459   -0.8228462920
 H    2.2434439864   -0.0667229269   -0.2857928268
 H    2.0322454467   -0.3785882786    2.5191984694