17

 C    0.0163019439    1.6191786727   -0.0151535499
 C    0.0025495008    0.1127231969    0.0656319250
 O   -1.2185834755   -0.4857274338   -0.2379247270
 C    1.1716775844   -0.7024372858   -0.3145664209
 C    0.8188768344   -0.6397312880    1.1713256913
 C    1.7034871500    0.0825432303    2.0887955074
 O    2.4964374502    0.9573273883    1.7868318201
 C    1.6091405023   -0.2921215171    3.5755525295
 O    0.8554200887   -1.1167185682    4.0212346061
 H    0.9949518832    2.0210296475    0.2491493321
 H   -0.2347807242    1.9300654116   -1.0341534415
 H   -0.7274276609    2.0530922783    0.6646190414
 H   -1.8983693395   -0.0820470870    0.3138158236
 H    0.9845404555   -1.6453658391   -0.8145112274
 H    2.0816172055   -0.1810874274   -0.5917769189
 H    0.2913659883   -1.4821873302    1.5996267965
 H    2.3194040530    0.2901065511    4.2003183927