18

 O    0.1542535460    1.2735689170   -0.1810135728
 C    0.0867017637   -0.0700418800    0.2619281684
 C   -1.3421127372   -0.5900730610    0.1533144190
 N   -1.9134896013   -0.4230332592   -1.2104552825
 C   -2.5531612131   -1.7572359748   -1.1613854166
 C   -2.3974772150   -2.5873217554   -2.4172720680
 O   -3.1386269962   -3.4799168134   -2.7337390373
 C   -1.6177118314   -2.1232772778    0.0509626623
 O   -0.5269935630   -2.9656267249   -0.2177898994
 H   -0.1316619400    1.2624104583   -1.1025824718
 H    0.7749967300   -0.7080951190   -0.3133737497
 H    0.4243277840   -0.0824104047    1.3027321351
 H   -1.9592299254   -0.1299658714    0.9362672369
 H   -2.5562303696    0.3532391486   -1.3206321260
 H   -3.6083542869   -1.7661834899   -0.8620768602
 H   -1.5160782689   -2.3021750223   -3.0372500625
 H   -2.1337378513   -2.5701759997    0.9003174740
 H   -0.0028648344   -2.5878370804   -0.9321355488