21

 C   -0.2377125479    1.4033870012   -0.0404124086
 N    0.0866210133   -0.0134220754   -0.0012485031
 C    0.7113422221   -0.4901456774    1.2230667185
 C   -0.1716895905   -0.4608702726    2.4841611158
 C    1.2216530784   -1.9225922669    0.9680405062
 O    0.1060233202   -2.7275261927    0.6580803884
 C    0.3897704942   -4.1115563545    0.5470165524
 C    2.2278591886   -1.9485505070   -0.1188625683
 N    3.0397914435   -2.0169098094   -0.9380243386
 H    0.6813335940    1.9897661928    0.0723938529
 H   -0.6632868649    1.6452184283   -1.0185508151
 H   -0.9492988325    1.7455965589    0.7301489214
 H   -0.7245225726   -0.5836390832   -0.2111838510
 H    1.5991762782    0.1315749895    1.3977979163
 H    0.3892389299   -0.7782296989    3.3701016974
 H   -0.5388552370    0.5512395977    2.6723097259
 H   -1.0305869163   -1.1269816466    2.3660394311
 H    1.7198229644   -2.2969840572    1.8777038407
 H    0.8091470627   -4.5083203190    1.4832731789
 H   -0.5585698711   -4.6106724482    0.3396321911
 H    1.0928669132   -4.3153077095   -0.2708144424