19

 C   -0.0210533418    1.4759187740   -0.0205862956
 C    0.0366905737   -0.0249193659   -0.0584284949
 C    0.5812189595   -0.9448705861   -1.1725152598
 C    0.0701240358   -1.9214904001   -0.1009595097
 C    0.5300985554   -0.9996084707    1.0769423833
 C   -0.8495597668   -1.0445890981    1.7564768330
 C   -1.1757394142   -1.0153538717    0.2440554972
 C   -2.4488974595   -1.0164392958   -0.4087599202
 C   -3.5209834217   -1.0034173772   -0.9569705468
 H    0.9817835998    1.9077953518   -0.1122016807
 H   -0.6303650599    1.8628307611   -0.8445135369
 H   -0.4577119891    1.8359224121    0.9173801059
 H    0.0435950854   -0.9325218711   -2.1257993921
 H    1.6637662676   -0.9210937333   -1.3369570505
 H    0.0624840438   -3.0121080335   -0.0997634036
 H    1.5212261967   -0.9949386577    1.5313992688
 H   -1.1103854967   -1.9661216239    2.2857883120
 H   -1.1528414195   -0.1689071110    2.3384236235
 H   -4.4666953985   -0.9968650528   -1.4394699631