16

 C   -0.0347655089    1.5587371914    0.1145980771
 C   -0.0608904300    0.0581730715    0.0183034369
 O    0.9386769678   -0.6304042204   -0.0317049217
 C   -1.4267304536   -0.6122818536   -0.0207279551
 N   -2.4789668276    0.1001587287    0.0190386063
 N   -1.2957106840   -1.9950947167   -0.0989196789
 C   -2.3421706775   -2.9020313764   -0.1691812933
 N   -1.9306387163   -4.2123624422   -0.2630201642
 O   -3.5146481553   -2.5739221670   -0.1854609222
 H    0.9990706186    1.9038628771    0.1339503946
 H   -0.5732573442    1.9957804373   -0.7309904861
 H   -0.5689407324    1.8845556972    1.0115748583
 H   -3.3082940958   -0.4972670711   -0.0244397078
 H   -0.3308234042   -2.2985628792   -0.1501167898
 H   -1.0224738200   -4.4835191446    0.0781526919
 H   -2.6687805464   -4.8860101818   -0.1345150159