20

 C    0.0142192958    1.5368069786   -0.0698176689
 C    0.0140512169    0.0242370851   -0.0335278792
 C    0.5707043580   -0.8452384089   -1.1895551981
 C    0.1107589068   -1.8689053043   -0.1445254406
 C    0.6821376735   -0.9491509518    1.0026278148
 C   -0.2565013949   -1.1577012966    2.1808636138
 C   -1.3418702864   -0.1740377926    2.4460104829
 N   -1.5753116711   -1.2929105682    1.5158107616
 C   -1.1688503758   -1.0246694832    0.1227349547
 H    0.9937871504    1.8986976369   -0.4036793223
 H   -0.7310207236    1.9060060666   -0.7835906521
 H   -0.1890273898    2.0038230228    0.8964606397
 H    0.0187707735   -0.8172817822   -2.1343550687
 H    1.6477590267   -0.7705846603   -1.3673607625
 H    0.1621677925   -2.9571292740   -0.1863459896
 H    1.7584830546   -0.9005590284    1.1748809129
 H   -0.0007846705   -1.9003750914    2.9324228445
 H   -1.8996014823   -0.2552702740    3.3755481912
 H   -1.2746247412    0.8325764291    2.0555591221
 H   -1.9957940334   -1.0237697232   -0.5891872860