23

 C    0.0685610929    1.5454754527    0.0436558093
 C   -0.0529921485    0.0183658366    0.0467782860
 C   -1.4903300918   -0.5117898453   -0.0596266323
 C   -2.2016264869   -0.0231570404   -1.3314913012
 C   -1.4789584415   -2.0507730118   -0.0104027168
 O   -2.7843086301   -2.5819178786    0.1535356051
 C   -3.3658138372   -2.1135645642    1.3600279779
 C   -3.4385248887   -0.5919906639    1.3523688923
 O   -2.1569182529   -0.0294746041    1.1235761072
 H    1.1038582829    1.8472874336    0.2286399764
 H   -0.2334741164    1.9779759460   -0.9149496481
 H   -0.5595657517    1.9796907858    0.8253771493
 H    0.5349444661   -0.4082303294   -0.7758976620
 H    0.3732595157   -0.3734049990    0.9776044529
 H   -1.5666014504   -0.1894273963   -2.2076328372
 H   -3.1355522157   -0.5660090920   -1.4930875066
 H   -2.4230966959    1.0445517869   -1.2638144983
 H   -1.0887547266   -2.4662363507   -0.9445294056
 H   -0.8322297278   -2.3814563197    0.8188486433
 H   -4.3641452096   -2.5567195274    1.4274014268
 H   -2.7688268842   -2.4524118427    2.2231088523
 H   -4.1599480042   -0.2596256539    0.5910654763
 H   -3.7721332177   -0.2133793221    2.3242257731