21

 C   -0.0053692153    1.4954845161    0.6286193432
 C   -0.0511603975    0.1049477126   -0.0310828189
 C    1.0314266461   -0.7989916875    0.5725836762
 C   -1.4639024654   -0.4811936143    0.0714017781
 C   -2.5025371151    0.1877505864   -0.8269949450
 C   -3.9281031322   -0.2779768578   -0.6074346919
 O   -4.6924195933   -0.5509078367   -1.4982260812
 C   -1.7158494473   -1.8612542170    0.5194948151
 O   -1.9129389934   -0.7554417171    1.4090912097
 H    0.9975870123    1.9239714015    0.5446853514
 H   -0.7016016878    2.2023357255    0.1681016532
 H   -0.2561239503    1.4176553689    1.6911091987
 H    0.1606932947    0.2242887037   -1.1024648927
 H    0.8100145761   -1.0206137042    1.6216617474
 H    1.1268123416   -1.7439318827    0.0301589066
 H    2.0029449332   -0.2975847983    0.5356822403
 H   -2.4985144012    1.2693865399   -0.6308587229
 H   -2.2470862750    0.0469219476   -1.8817929862
 H   -4.2358944664   -0.3287415018    0.4578995614
 H   -2.6260750730   -2.3694749698    0.1998649662
 H   -0.8946377506   -2.5227769050    0.7790817212