16

 C   -0.0210154795   -1.2432078538   -0.0957514597
 C   -0.0625322709   -0.0412122772   -0.0071467029
 C   -0.0990761605    1.3602168743    0.0984457783
 C   -1.1544526676    2.2707369150   -0.0429028248
 C   -0.6832809823    3.5983545694    0.1598432620
 C    0.6653572139    3.4600949231    0.4235410226
 C    2.0880613020    3.8875133931    0.7491388027
 C    2.4183680215    2.3441026829    0.6923836718
 N    0.9935688166    2.1474945200    0.3845141275
 H    0.0078788856   -2.3011502380   -0.1754451828
 H   -2.1694487397    1.9838728403   -0.2728761184
 H   -1.2689065433    4.5024005987    0.1133454281
 H    2.5970076157    4.4873087849   -0.0095928603
 H    2.2411894856    4.3471651656    1.7287936280
 H    3.0911159674    2.0327999990   -0.1108126759
 H    2.7329571454    1.8920755926    1.6364884237