21

 C   -0.0201501375    1.4832984393   -0.7746946618
 C    0.1564200718   -0.0347041215   -0.7038271344
 C   -1.1135613547   -0.7506374544   -1.1561141877
 C    1.4783582688   -0.5273350941   -1.3770801250
 C    2.1443855445   -0.6916975961    0.0406774692
 C    3.1529702226    0.3821328688    0.3130710423
 O    2.9433498545    1.4182626241    0.9077872763
 C    0.7297110369   -0.5247579486    0.6774496146
 O    0.5752529601    0.2543685380    1.8256451590
 H    0.8854424633    2.0214851701   -0.4834300047
 H   -0.2788716689    1.7888013275   -1.7947332733
 H   -0.8254296729    1.8057214540   -0.1075541989
 H   -1.3746186720   -0.4875966533   -2.1878626668
 H   -0.9980239222   -1.8392512511   -1.1086023947
 H   -1.9614453904   -0.4760543483   -0.5182496092
 H    1.3777201577   -1.4868969627   -1.8886869046
 H    1.9634270617    0.1788895758   -2.0565083556
 H    2.6357521507   -1.6581558113    0.1946297031
 H    4.1639694439    0.1841850786   -0.1076524499
 H    0.3165288517   -1.5117524208    0.9132552082
 H    1.1900481403    0.9981883660    1.7481214238