23

 C    0.0028564042    1.5225854024    0.0538693446
 C    0.0063028661    0.0267512069    0.0286430704
 C   -0.3210629374   -0.7689243770   -0.9920462706
 C   -0.1539812515   -2.2350278664   -0.6889413867
 C   -1.2432310620   -3.1747397166   -1.2980576889
 C   -0.2898668656   -3.4909814958   -2.4789339477
 C    0.8858970103   -2.9500418853   -1.6261425467
 C    0.0633402507   -2.2358659414    0.8423449426
 C    0.4530721741   -0.7881254702    1.2259081113
 H    1.0045136246    1.9181177703    0.2681810430
 H   -0.3305316242    1.9440218729   -0.8985524137
 H   -0.6548951432    1.9051585723    0.8451418547
 H   -0.6398309268   -0.4150288116   -1.9686871730
 H   -1.4053756784   -4.0511147694   -0.6619922314
 H   -2.2147167964   -2.7265961003   -1.5257512824
 H   -0.2330028838   -4.5280607828   -2.8178014565
 H   -0.4899991173   -2.8575839969   -3.3478611429
 H    1.6278516173   -2.3175072027   -2.1208662673
 H    1.4084116830   -3.7525935811   -1.0955486426
 H   -0.8809734876   -2.5017934633    1.3311693901
 H    0.8042403270   -2.9769668536    1.1568301890
 H    1.5360882836   -0.6762745434    1.3807337995
 H   -0.0193164767   -0.4565938869    2.1590074849