14

 O    0.1430961999    1.3963656105    0.0250132785
 C    0.0309320384    0.0226229925    0.0282113616
 C   -0.4443677974   -0.7646188710    1.2165384144
 C   -1.3208743615   -0.6882126955   -0.0212217573
 N   -2.5115069314    0.1051984312    0.0255773723
 N   -2.6273368847    1.2484012798    0.6862047350
 N   -3.8368906990    1.6659801236    0.4393745063
 N   -4.4440448008    0.7833325326   -0.3611936390
 N   -3.6226287742   -0.1936222222   -0.6268071014
 H   -0.5955418974    1.7818545867    0.5186535313
 H    0.8009490883   -0.4190567794   -0.5957742650
 H    0.0081488015   -1.7231248307    1.4454561440
 H   -0.7857137978   -0.1994605319    2.0775161103
 H   -1.4735829339   -1.5537560459   -0.6510770711