17

 N    0.1618041238    1.3272864807    0.4611018846
 C    0.0595757532   -0.0327969469    0.1399658833
 C   -1.0591517163   -0.8047087493    0.0409583173
 O   -0.7144436693   -2.1094065016   -0.1998112548
 C    0.6322686107   -2.1546842479   -0.2607428900
 C    1.1811476498   -0.9235690019   -0.0554059769
 C    2.6222999990   -0.5666221698   -0.0608361647
 C    3.2087209851    0.2082086880    1.0683068169
 N    3.5567223931   -1.2095062614    0.8897263631
 H    0.9469192117    1.7749548145    0.0069707903
 H   -0.6842434860    1.8472765840    0.2692781511
 H   -2.1132021334   -0.6016026959    0.1244486645
 H    1.0671964401   -3.1215754912   -0.4570382714
 H    3.0714717343   -0.4280153487   -1.0431614206
 H    4.0218521360    0.9040338996    0.8807452569
 H    2.5459850213    0.4866995625    1.8822326275
 H    3.0112011571   -1.7654943346    1.5447368830