19

 C    0.1271282900    1.3279462026   -0.5843998003
 C    0.0790183739    0.0350026468    0.2299471018
 O    0.5188689233    0.2150799991    1.5665535353
 C   -1.3239006482   -0.5815952273    0.2154876123
 O   -1.7689911484   -1.1079488075   -1.0474454159
 C   -1.5730877043   -2.0319503964    0.0288141023
 C   -0.5090640791   -3.0866456205   -0.1228055728
 C   -2.3018134732    0.1911945218    0.9545905708
 C   -3.0697897083    0.8615359153    1.5938526697
 H    1.1377498302    1.7433109507   -0.5585771624
 H   -0.1536933398    1.1362324221   -1.6241152746
 H   -0.5658203493    2.0712481239   -0.1754436111
 H    0.7732105075   -0.6863684458   -0.2066009926
 H   -0.1010007960    0.8183206020    1.9951095558
 H   -2.5106652939   -2.3975646923    0.4515104376
 H    0.3965260977   -2.6973588542   -0.5902283086
 H   -0.2497149563   -3.5045645536    0.8551979356
 H   -0.8871440675   -3.9017307538   -0.7486504365
 H   -3.7689104084    1.4388963471    2.1476122234