18

 C   -0.1801004291    1.5549086528    0.0740936291
 C    0.0563312767    0.0480540349    0.0052561782
 O    0.7921378167   -0.3151469782   -1.1748183174
 C    2.2053138995   -0.4216275705   -1.0190377201
 C    2.5521749800   -0.8942670404    0.3855376536
 C    1.4556586584   -1.8405906049    0.9168326111
 C    0.7806754232   -0.4931435215    1.2397849918
 O    2.0919450799    0.1438932684    1.3029476751
 H    0.7606703691    2.0809395413    0.2530031097
 H   -0.6147745896    1.9079515265   -0.8644044006
 H   -0.8708033940    1.8000163143    0.8886079378
 H   -0.9054367204   -0.4730930163   -0.0948793320
 H    2.5453367736   -1.1348405273   -1.7792677852
 H    2.7018996121    0.5435781332   -1.1992274074
 H    3.6103713432   -1.1358441874    0.5154101264
 H    0.9629268632   -2.5121640469    0.2122390129
 H    1.7706816622   -2.3695030737    1.8166332801
 H    0.2062779051   -0.3665683643    2.1614436469