19

 C   -0.3020622703    1.3429638009   -0.3203452091
 O   -0.2745011452   -0.0626533540   -0.6016464263
 C    0.9355660213   -0.5572870774   -0.9413736695
 O    1.9335555418    0.1169278700   -1.0058048249
 C    0.9016321293   -2.0465412791   -1.1883355158
 C   -0.4075163339   -2.8057283672   -1.5521623210
 C   -0.3480124685   -2.1287188073   -2.9554175563
 C    1.1110766467   -2.5763106524   -2.6449250530
 C    0.5074901252   -3.9200623506   -2.1432816862
 H    0.3677663245    1.5827443444    0.5092477116
 H    0.0083592114    1.9181748980   -1.1963427429
 H   -1.3346555485    1.5732324149   -0.0577911070
 H    1.5422442575   -2.5273781272   -0.4414385119
 H   -1.2828353807   -2.9342592659   -0.9160592711
 H   -0.8499613983   -2.6589544680   -3.7688822445
 H   -0.5507903200   -1.0573436838   -2.9983211517
 H    1.9992120493   -2.4315603368   -3.2596555430
 H    1.1071793291   -4.4972933567   -1.4341398122
 H    0.0574772496   -4.5612604719   -2.9052279551