17

 C   -0.1881322031    1.3478208927   -0.1158329308
 O    0.3121552741    0.0422917869    0.1091070050
 C    0.7819366047   -0.5712191057   -1.0509304416
 C    1.3121741267   -1.9835713809   -0.8653836585
 N    0.1577314083   -2.8315473912   -0.4752595419
 C    0.3848069757   -2.5215000414   -1.9059360396
 C   -0.2916410345   -1.1526414237   -2.0821407302
 O   -1.6316630894   -1.0695843677   -1.6992344885
 H    0.5883230683    2.0082490883   -0.5338329108
 H   -1.0499895646    1.3361963150   -0.7936030193
 H   -0.4987151349    1.7424937853    0.8544903553
 H    1.5129519501    0.0634221324   -1.5767125831
 H    2.3230041411   -2.2838162727   -0.6199409782
 H    0.5131881370   -3.7690149713   -0.2975702606
 H    0.5400898149   -3.3069704914   -2.6347407529
 H   -0.1991310126   -0.7270853651   -3.0830799727
 H   -1.6762746818   -1.5306615094   -0.8487810016