17

 C    0.0277233563    1.5754518546    0.1308839970
 C    0.0974397928    0.0805956972    0.0521751302
 C   -0.8882719931   -0.8587636753    0.6808056966
 C    0.5606268862   -0.8566549862    1.1404338547
 C    1.4864893328   -1.8384588246    0.4728717108
 O    1.1708845658   -3.1930357856    0.7032851493
 C    1.3326554042   -1.5153057047   -1.0263930768
 O    1.7382699211   -2.1941894655   -1.9269143737
 O    0.6207825570   -0.3784649047   -1.2017901245
 H    1.0172535475    2.0214160219   -0.0098273979
 H   -0.6406634703    1.9744629686   -0.6384672405
 H   -0.3550207839    1.8820984416    1.1080022188
 H   -1.6181257671   -0.4383723475    1.3634508352
 H   -1.2398802698   -1.7057562011    0.1016572108
 H    0.8016863777   -0.4833466854    2.1276975417
 H    2.5294224146   -1.6227851514    0.7580806244
 H    1.5340077378   -3.6850670618   -0.0459023761