17

 C    0.0486237367    1.4260697375   -0.8627036969
 C   -0.0157258673    0.1104680328   -0.1150699138
 C    1.0885979480   -0.8795747039   -0.2542415081
 N    0.8936983613   -0.1428853334    1.0040117040
 C   -1.4136791610   -0.4065985580    0.0847691883
 O   -1.6015595431   -1.5141625705    0.9510941457
 C   -2.1678486859   -0.2665770097    1.3525009419
 C   -1.6244308326    0.3955660582    2.5197132908
 N   -1.2957527278    0.9731420181    3.4652662978
 H    1.0875080822    1.7134591575   -1.0494230869
 H   -0.4588953418    1.3613358768   -1.8317641465
 H   -0.4281623230    2.2278453366   -0.2877419348
 H    0.8730764343   -1.9418697766   -0.1876422282
 H    1.9235261227   -0.6155817658   -0.8982353397
 H    1.5621583107    0.6177858731    1.0926040449
 H   -2.0173825844   -0.4417965594   -0.8250263814
 H   -3.2554657790   -0.2272416233    1.3081599929