19

 C    0.2286163039    1.3690596104    0.1555048412
 O    0.3634876906   -0.0368759114    0.1672221385
 C    0.3975184404   -0.5989373457   -1.1390265270
 C    0.5317935941   -2.0997762681   -1.0459934132
 C    1.4054387417   -2.7826074584   -2.0349627782
 N    1.8427972383   -2.6652976612   -0.6410848969
 C   -0.6402183154   -2.9100706831   -0.5006236706
 N   -1.4430432389   -2.2299660879    0.3671893757
 O   -0.8371582963   -4.0618132113   -0.8335414245
 H    1.0724290462    1.8474289837   -0.3638813334
 H   -0.7037617898    1.6846794276   -0.3364405529
 H    0.2160719052    1.7039727217    1.1949081349
 H   -0.5175527201   -0.3266351802   -1.6891208862
 H    1.2547527560   -0.1855485567   -1.6949102843
 H    1.1240959340   -3.7862534329   -2.3332466563
 H    1.8866199829   -2.1731061647   -2.7956728230
 H    2.5103688989   -1.9031306510   -0.5374715089
 H   -1.1057773628   -1.3718778264    0.7787319226
 H   -2.1456406086   -2.7673828444    0.8500593323