19

 C   -0.0936230396    1.5573020607   -0.0376549804
 C    0.0905754122    0.0382361893   -0.0810442387
 C    0.7421241203   -0.5277397535    1.2020719730
 C    0.7574028044   -2.0774604380    1.2726877609
 O   -0.0891264983   -2.6521860169    0.2857863980
 C    2.2166788310   -2.4421897926    1.0838234775
 C    3.0253144995   -1.3799843963    1.1032461668
 C    2.2303997295   -0.1393900710    1.2791173660
 O    2.6689616618    0.9764789570    1.4442918084
 H    0.8560640213    2.0731306176    0.1210388184
 H   -0.5319232301    1.9156937264   -0.9744053650
 H   -0.7670257344    1.8468227193    0.7772340403
 H   -0.8747333204   -0.4568074531   -0.2151180865
 H    0.6965054301   -0.2462147889   -0.9494417970
 H    0.2247084028   -0.0996942342    2.0669841418
 H    0.4319482806   -2.4048299109    2.2732882456
 H   -0.1331403207   -3.6006210417    0.4425522077
 H    2.5286517340   -3.4764105797    0.9710625884
 H    4.1051075059   -1.3697249636    1.0231905547