19

 C   -0.5713448945    1.0394496266   -0.2757938102
 O   -0.2363892031   -0.3312826601   -0.3990603133
 C    0.9965825065   -0.5530975120   -1.0257834597
 C    1.2305522371   -2.0626299469   -1.0861210770
 C    0.5442508556   -2.4410163334   -2.3922501200
 C    0.5813259424   -3.7731435380   -2.9985299875
 O   -0.5991838535   -3.2921913480   -2.3458402103
 C    0.4120100554   -1.1383586243   -3.1854857691
 O    1.0060642236   -0.1231422815   -2.3769856530
 H    0.1727074166    1.5779954066    0.3310528450
 H   -0.6413649241    1.5268455309   -1.2550064782
 H   -1.5401491136    1.0871378052    0.2254805169
 H    1.7892747599    0.0200420058   -0.5250425904
 H    2.3043831084   -2.2650818178   -1.1357928840
 H    0.7987162762   -2.5870703091   -0.2335827893
 H    0.5079589941   -3.8803340590   -4.0807988149
 H    1.1003264994   -4.5861241001   -2.4907268953
 H    0.9449715089   -1.1548560812   -4.1409247780
 H   -0.6498926153   -0.9369581736   -3.3732060218