18

 N    1.9703061394   -0.9444329168    0.7406242222
 C    0.6840671014   -0.6150383693    0.1331287214
 C    0.1145756226    0.5644219622    0.8148944046
 N   -0.3757361049    1.4847965230    1.3128122993
 C    0.6791845037   -0.3770553452   -1.3910609083
 C    1.8279890986    0.4633501390   -1.9222693935
 O    2.1257453982    1.5786728348   -1.0988067495
 C    0.0794129182   -1.4186412227   -2.2638763697
 N   -0.6206884400   -0.1421967653   -2.0414851459
 H    2.3608073120   -1.7627854465    0.2839789401
 H    2.6120821837   -0.1699789656    0.5963989430
 H   -0.0062978697   -1.4439650319    0.3408734505
 H    2.7467759498   -0.1321857932   -1.9465461212
 H    1.5901705502    0.7593649563   -2.9527056963
 H    1.3490043282    2.1484997428   -1.0601911467
 H    0.4553293030   -1.5633992579   -3.2735738812
 H   -0.3061548526   -2.3204866793   -1.7942174257
 H   -1.3838972219   -0.2612871047   -1.3777741932