21

 C   -0.2109356939    1.5429221329   -0.1945441372
 C    0.0029144757    0.0504948676   -0.0597195263
 C    1.3490526160   -0.5772716333   -0.3374675133
 O    2.4270049152    0.2858798964   -0.5912489894
 C    3.2066946496    0.5397599328    0.5515658110
 O    2.4537786847    1.0952464259    1.5924045027
 C    1.5489290020    0.1363299745    2.1525821748
 C    0.6702256927    0.8612606357    3.1617680136
 C    0.7849038131   -0.6083297652    1.0661373887
 H    0.6593890964    2.1047617471    0.1445447198
 H   -0.3983553456    1.8055456812   -1.2414596127
 H   -1.0793734884    1.8668594141    0.3888325272
 H   -0.8392755592   -0.5467950677   -0.4024513791
 H    1.4032625918   -1.4928716497   -0.9217387524
 H    3.6958237475   -0.3898038536    0.8959422502
 H    3.9556287070    1.2780595264    0.2585663543
 H    2.1548930363   -0.6170203936    2.6869217825
 H    0.0573508531    1.6214854657    2.6723774941
 H    0.0060394174    0.1493983077    3.6612148867
 H    1.2903971866    1.3491705826    3.9190649050
 H    0.4008933622   -1.5656793975    1.4075541696