20

 C    0.1856870094    1.4552117008   -0.2077876272
 C    0.0210403516   -0.0572886737    0.0142034570
 O    0.7972547760   -0.5273784051    1.1118556971
 C    2.1745504354   -0.6966211945    0.8311151065
 C    2.8100153007   -1.4211114764    1.9856719820
 C    4.2286882906   -1.1438937574    2.3234641065
 N    3.1503569136   -0.6994145843    3.2191475921
 C   -1.3769132798   -0.4008759683    0.2755519681
 C   -2.5350116559   -0.6550445037    0.4664754235
 H    1.2227922789    1.7013021064   -0.4521650047
 H   -0.4483192194    1.7864833052   -1.0345196005
 H   -0.1049172717    1.9959618276    0.6962129794
 H    0.3407855738   -0.5852304268   -0.9008951601
 H    2.3038454507   -1.2773587765   -0.0984990222
 H    2.6780305275    0.2737878974    0.6838742804
 H    2.4113323016   -2.4174989185    2.1615764258
 H    4.8573764377   -1.9367581858    2.7178604319
 H    4.7589304367   -0.4029627464    1.7292894230
 H    2.9760254538    0.2954757824    3.0948937604
 H   -3.5552365110   -0.8919554625    0.6422953210