18

 C   -0.0392451706    1.5150750582   -0.0144758133
 C   -0.0325811028    0.0100638547   -0.0486004995
 C    0.6567245977   -0.7506433558   -1.2207549452
 C    0.2758249548   -2.1823476477   -0.9244226481
 C    1.4789260569   -1.5754062377   -0.2368313030
 C    0.7876794890   -0.8716202410    0.9430398498
 N   -0.4552414700   -1.6420772706    1.3771483661
 C   -0.8801633363   -2.1988944478    0.0599446820
 C   -1.2652161827   -0.8143591893    0.4069040291
 H    0.9666006928    1.9167165115   -0.1783587085
 H   -0.6920659972    1.9253304261   -0.7942463692
 H   -0.3974989192    1.8870591933    0.9513952853
 H    0.9171663812   -0.3693515665   -2.2016583707
 H    0.4044721001   -2.9571120557   -1.6684026497
 H    2.4882670473   -1.9613141834   -0.3046291033
 H    1.3647626900   -0.4581903126    1.7676080284
 H   -1.5762241427   -3.0275661046    0.1084849553
 H   -2.2630065884   -0.4562702312    0.6419031045