20

 C   -0.1390350502    1.5338197672   -0.0263513706
 C    0.0459202873    0.0174062767   -0.0133587105
 C    0.8534577042   -0.5478265564   -1.1943438843
 C    1.2474652810   -1.9518572000   -0.7191826616
 C    1.6316020094   -1.7514535506    0.7722234196
 C    0.7962302358   -0.5153509991    1.2361888509
 C    1.3291079562   -2.9800463292    1.5934556860
 O    2.1368503950   -3.6542120512    2.1777799299
 H    0.8305010174    2.0453491455   -0.0061473322
 H   -0.6715233962    1.8624089058   -0.9251237632
 H   -0.7127236737    1.8745693557    0.8420863880
 H   -0.9470605048   -0.4519629138   -0.0396353343
 H    0.2900461463   -0.5549764244   -2.1324815778
 H    1.7532437762    0.0607628133   -1.3565720005
 H    0.3797711879   -2.6213270555   -0.7939677551
 H    2.0573875950   -2.4076806303   -1.2939113925
 H    2.7023273257   -1.5522345258    0.8627541262
 H    1.4678655845    0.2482695647    1.6409502813
 H    0.0982000062   -0.7713675852    2.0411943780
 H    0.2406592068   -3.2375294771    1.6200516026