22

 C   -0.0707628068    1.5302519908    0.0461993930
 C    0.0595936219    0.0032456700   -0.0565780064
 C    0.7683986598   -0.4027719561   -1.3568700545
 C    0.7356262342   -0.5664463652    1.1990358680
 C    0.7832643491   -2.0885050432    1.3085952069
 C    1.5478252100   -2.4683330960    2.5817222611
 N    2.8049984830   -1.7388682903    2.7317537836
 C    2.9509209101   -0.6710867351    2.0719509547
 O    2.0797097474   -0.0354843374    1.2507635030
 H    0.9156636286    2.0012897073    0.0857847771
 H   -0.6058036680    1.9333864480   -0.8190712019
 H   -0.6195114734    1.8240037230    0.9475844856
 H   -0.9523496860   -0.4257816552   -0.0638409645
 H    1.8072640073   -0.0603982609   -1.3532731504
 H    0.7687465415   -1.4860854205   -1.5072891895
 H    0.2666113848    0.0481830308   -2.2183891387
 H    0.2079019905   -0.1722151176    2.0804908130
 H   -0.2342471753   -2.4936644259    1.3186366667
 H    1.2972065308   -2.5058554771    0.4365763000
 H    0.9305163934   -2.2860618002    3.4719962815
 H    1.7773612663   -3.5395072902    2.5870982760
 H    3.8868426809   -0.1157370688    2.1125869956