21

 C   -0.2573383284    1.3932290368   -0.1323437576
 C   -0.0438100002   -0.1116821900   -0.0465510232
 O    0.7495032059   -0.5546093101   -1.1639612593
 C    1.9274084386   -1.2064551417   -0.7101490450
 C    1.5813474130   -1.7509297631    0.6770329105
 C    0.6788453631   -0.6435117981    1.2007055669
 C    1.1351883727    0.2584644539    2.3339472782
 C    0.0045692011   -0.7248301170    2.5295649647
 O   -1.3146526033   -0.2567546622    2.5843934216
 H    0.6912380687    1.9328515398   -0.0505602924
 H   -0.7107768952    1.6424016098   -1.0956494691
 H   -0.9297919783    1.7267831532    0.6630118810
 H   -1.0208962560   -0.6077446580   -0.1278917261
 H    2.1899213280   -1.9835337298   -1.4349317503
 H    2.7690514953   -0.4973993432   -0.6500237226
 H    1.0253835353   -2.6917955923    0.5868183000
 H    2.4593378465   -1.9300917594    1.3031127838
 H    2.0914416109    0.0524288665    2.8050095008
 H    0.8668079508    1.3079997598    2.2893053344
 H    0.1969220902   -1.6090739602    3.1392169470
 H   -1.4456777289    0.1684701554    3.4383561565