19

 C   -0.0204413193    1.4651220996    0.0642424203
 O    1.3263610844    1.9327959259   -0.0014186970
 C    2.0882105579    1.0012205627   -0.7642332890
 C    1.4483432317   -0.3445785790   -0.5114172463
 C    1.7489068221   -1.6271444664   -1.2715014485
 C    1.3785086300   -2.7068579570   -0.2729198000
 C    1.0401204605   -2.2008750152    0.9166263870
 C    1.0687346614   -0.7093395195    0.9178785272
 C    0.0564657043   -0.0489605737    0.0004281321
 H   -0.4524004427    1.8608619877    0.9898241666
 H   -0.6158432979    1.8437993892   -0.7832280950
 H    2.0593887341    1.2444421387   -1.8406635299
 H    3.1274698504    1.0773818978   -0.4255234752
 H    1.1767840823   -1.7069675723   -2.2049971042
 H    2.8096379694   -1.6943945872   -1.5551807566
 H    1.3877907359   -3.7602628102   -0.5284673305
 H    0.7510860873   -2.7820712932    1.7850472201
 H    1.4370312245   -0.1556795973    1.7765363695
 H   -0.8100102764   -0.6126718104   -0.3283263804