21

 C   -0.1227914284    1.6248972481    0.0065929176
 C    0.0076047712    0.1082674880    0.0169254085
 C    1.2058211555   -0.5870220066   -0.6828535944
 C    2.1339792970   -0.1890056427    0.5169509313
 C    3.0976602832   -1.3432295015    0.7297310796
 O    2.2311081598   -2.4611652823    0.5091418810
 C    0.9783094355   -1.8478932101    0.2204865643
 C   -0.0559819758   -2.9099316119   -0.0391030126
 C    0.7685184784   -0.6120569337    1.1619089511
 H    0.8155266413    2.1369053221    0.2360497240
 H   -0.4593978519    1.9759091352   -0.9753621628
 H   -0.8665374235    1.9525996395    0.7415768497
 H   -0.9643574716   -0.3381210616   -0.2195368338
 H    1.4688244984   -0.5770644464   -1.7429779725
 H    2.5085713324    0.8272130452    0.6195378742
 H    3.9261382816   -1.3566517026    0.0096161910
 H    3.5148898736   -1.3801937247    1.7444599364
 H   -0.1567707595   -3.5577441839    0.8369795183
 H   -1.0336581494   -2.4787958735   -0.2650674449
 H    0.2511373412   -3.5344613465   -0.8834845100
 H    0.5276973043   -0.6309437199    2.2271703603