22

 C   -0.1494396065    1.5069671615    0.0105094830
 N    0.1148731277    0.0759958743    0.0481853821
 C    1.2284003084   -0.6936763036   -0.4538123288
 C    2.7041982007   -0.2351916078   -0.3315860957
 C    3.1639006186   -1.1896431432    0.8289227539
 C    2.1690027511   -0.2889355621    1.6489659831
 C    2.6881368690    0.8679631205    0.7584128329
 C    0.8287767868   -0.7467997318    0.9998343701
 C    0.0600617470   -1.8470678250    1.6896687342
 H    0.4725443931    2.0251866390   -0.7274842753
 H   -1.1974359840    1.6693297445   -0.2717590902
 H    0.0039220052    1.9829182956    0.9855890856
 H    0.9984491447   -1.4746738348   -1.1765577703
 H    3.2755795261   -0.1270253489   -1.2539877373
 H    2.9236733929   -2.2524128965    0.7322533926
 H    4.2122858229   -1.0622170219    1.1158216787
 H    2.2016702112   -0.2385228105    2.7382111020
 H    3.7053299626    1.1515047774    1.0401938886
 H    2.0936111576    1.7650611815    0.6225013059
 H   -0.4406769621   -1.4694748820    2.5897643242
 H   -0.7068324040   -2.2523522397    1.0251624196
 H    0.7234991810   -2.6615628266    2.0016013110