17

 C   -0.0551281474    1.4488810875   -0.1624731678
 N   -0.1132500889   -0.0001357660   -0.1721022015
 C   -1.1932066712   -0.7000634285    0.2653633405
 O   -2.1988460100   -0.1447729738    0.7155464472
 C   -1.1021795816   -2.1780746365    0.1476773225
 C   -1.7571059566   -3.0080773946    1.2571891149
 C   -2.4296002886   -2.9248498922   -0.0702860508
 O   -3.6107947677   -2.2390061816   -0.2641259894
 H    0.7619786932    1.8098453878    0.4718237756
 H    0.0829110091    1.8472756914   -1.1735965859
 H   -1.0027181317    1.8100784464    0.2373947719
 H    0.6808617337   -0.5142420758   -0.5149047471
 H   -0.2118153254   -2.5817697589   -0.3240809091
 H   -1.2576054545   -3.9252291008    1.5494364664
 H   -2.1971444940   -2.4347366161    2.0659420739
 H   -2.3719244489   -3.7932032321   -0.7195636001
 H   -3.4926528794   -1.3660858462    0.1558091690