18

 C   -0.3487497953    1.5321798107   -0.0280605370
 C    0.0290924392    0.0635458640    0.0115635782
 O    0.9337552174   -0.2231325558   -1.0581503438
 C    1.5368324329   -1.4745701833   -0.7736877426
 C    1.7627025738   -1.4841770658    0.7318638301
 O    2.8833096626   -0.6304292724    1.1332849846
 C    2.0271748614    0.3246339634    1.6433311291
 N    2.2692852212    1.4147404716    2.2127921118
 C    0.7642703965   -0.4303994687    1.2743214377
 H    0.5268177181    2.1610560948    0.1451892102
 H   -0.7804635407    1.7777677971   -1.0018773164
 H   -1.0899900345    1.7536018175    0.7454132874
 H   -0.8754146863   -0.5593341390   -0.1057667268
 H    0.8704607334   -2.3112038321   -1.0452413833
 H    2.4623791390   -1.5547255287   -1.3487213328
 H    1.8367527494   -2.4685579695    1.1946426336
 H    3.2746554113    1.5845887671    2.2789022882
 H    0.1067124104   -0.6895473409    2.1028771619