17

 C    0.0267349146    1.5492988834   -0.0118349291
 C    0.0058063701    0.0253978834    0.0854794985
 O    0.6933450891   -0.4473145570    1.2315560338
 C   -1.4323423594   -0.5621846139    0.0215450194
 C   -1.4183075417   -2.1077685708   -0.0852188261
 O   -2.7126122845   -2.6611734765   -0.1512286211
 C   -2.1894537531   -0.1654447421    1.2109194955
 N   -2.7538682350    0.1161676271    2.1807092167
 H    1.0576533629    1.9072859482    0.0458454869
 H   -0.4091445922    1.8929426578   -0.9552717036
 H   -0.5432175473    2.0018853537    0.8075953823
 H    0.5530979962   -0.3992431562   -0.7642837348
 H    0.3076112553   -0.0227156011    2.0078292843
 H   -1.9506202326   -0.1637941768   -0.8586245097
 H   -0.9185484870   -2.3764979866   -1.0210173294
 H   -0.8255687559   -2.5126660663    0.7439982145
 H   -3.1257467696   -2.5684064464    0.7143918321