16

 C    0.1172830873    1.5022124403   -0.2226442752
 C   -0.0355327899    0.0318188238    0.1028333885
 O    1.1533287695   -0.7698313782    0.1228264831
 C    0.4459774910   -0.6128567642    1.3493104322
 C    1.1273719478    0.1441407808    2.4776322532
 C    1.9921942221   -0.7276787128    3.2651450695
 C    2.6919199405   -1.4653060938    3.9042403762
 C   -1.1681385998   -0.6040011016   -0.5593506841
 N   -2.0822972856   -1.0789762840   -1.0830166804
 H    0.9925888406    1.9222258008    0.2733782181
 H    0.2391709268    1.6322557888   -1.3015002343
 H   -0.7730658026    2.0565587503    0.0883290411
 H   -0.0802646955   -1.5111965103    1.6720936694
 H    1.7096825770    0.9767690057    2.0723640516
 H    0.3518179068    0.5777061349    3.1231099388
 H    3.3184751740   -2.1099539707    4.4697433123