9

 N   -0.0463656953    1.2931272734   -0.0569118948
 C   -0.0331375768    0.0377037407    0.0497136420
 O    1.1512907435   -0.6744431334    0.1788896493
 N    1.1726125647   -2.1023426686   -0.0377073297
 N    0.0994463161   -2.6881995978   -0.1431462219
 C   -1.1174323460   -1.9625717843   -0.0066899832
 N   -1.2205621720   -0.6995893367    0.0793010885
 H    0.9035944373    1.6648487594   -0.0863362266
 H   -1.9984877116   -2.5961944128    0.0139289665