16

 O    0.0342660028   -0.0839061806   -0.2183153773
 C    0.0110528075    1.0873803286    0.0594097626
 C    1.2200958792    1.9898297559    0.0268067862
 C    1.1687310646    3.2550640676   -0.9075965290
 C    1.4749433141    4.1534195527    0.3054671096
 C    0.4002453378    3.9792087244    1.3516943723
 C    1.4521017431    2.9182313320    1.2333500919
 C    2.3726847524    5.2599192906    0.3005613776
 N    3.1084339543    6.1536632229    0.2814475401
 H   -0.9400846350    1.5828964191    0.3608597148
 H    2.0955077839    1.3774678285   -0.1935819757
 H    1.9652026039    3.2363488518   -1.6508170355
 H    0.2186033282    3.4657152179   -1.4072384914
 H    0.4979205928    4.6199790075    2.2208416283
 H   -0.6234260078    3.8140434649    1.0299165729
 H    2.1246735182    2.6988674561    2.0526103226