13

 O   -0.4489392292    0.0926976070    0.0029172458
 C   -0.1198867226    1.2456874226    0.0076326182
 N    1.1771357463    1.7491366284   -0.0010753279
 C    2.3937608635    1.0932398132   -0.0159245416
 N    2.4430118997   -0.2383586413   -0.0284678440
 C    3.6793963620   -0.7299144128   -0.0426636469
 N    4.8154387229   -0.0304983244   -0.0453857197
 C    4.6262705144    1.2915119805   -0.0323212998
 N    3.4560879363    1.9167971396   -0.0173286598
 H   -0.8395907241    2.0883830496    0.0200416796
 H    1.2752443253    2.7551516969    0.0062198626
 H    3.7669647170   -1.8140881510   -0.0528281480
 H    5.5152303686    1.9185824416   -0.0339426785