20

 O   -0.0806616447    0.2248993670    0.9529970127
 C   -0.1003106806    1.2372039304    0.2707759887
 C   -1.3755371716    1.5635527034   -0.5106072293
 C   -1.4722345479    2.8069834907   -1.3832157374
 C   -0.2777767348    2.9817997374   -2.3621424916
 C    0.3696957603    3.9361392940   -1.3217829525
 C   -1.0276999626    4.1128913423   -0.6672760411
 C    1.4060059581    3.2799040885   -0.4253016555
 N    1.0150610947    2.0358788418    0.2321868295
 H   -1.5672296293    0.6689304306   -1.1149661234
 H   -2.1687696583    1.5775675545    0.2463330373
 H   -2.4653357902    2.8329217753   -1.8399410267
 H    0.2807027572    2.0829453221   -2.6402907298
 H   -0.5652268761    3.5120660842   -3.2734720931
 H    0.8263922456    4.8441498972   -1.7257017826
 H   -1.5471680992    4.9930734053   -1.0542705326
 H   -1.0758867013    4.1290846327    0.4257117931
 H    2.3071785531    3.0834255103   -1.0247160411
 H    1.6984278278    4.0019159451    0.3513501599
 H    1.7336736199    1.6322369372    0.8187178354