19

 O   -0.1109848252    1.4216745084   -0.0808968587
 C   -0.0227547250    0.0083610253   -0.0461169174
 C   -1.4440046144   -0.5403123064   -0.0063228380
 C   -1.4789936487   -2.0713621125    0.0200974278
 N   -2.8374811162   -2.6198015370    0.0513751176
 C   -3.5192731079   -2.7062252602   -1.1693316676
 N   -4.7290925747   -3.0578892153   -1.2999908320
 C   -3.3699914117   -2.9875721114    1.2867150174
 O   -4.4673918499   -3.4219786551    1.5038562354
 H    0.7806957932    1.7815505763   -0.0938977400
 H    0.5037197964   -0.3830135971   -0.9329150636
 H    0.5355956633   -0.3380957618    0.8396058707
 H   -1.9566406649   -0.1445485127    0.8775011378
 H   -1.9911712990   -0.1684133157   -0.8801806504
 H   -0.9590434070   -2.4816944317   -0.8529972726
 H   -0.9463603246   -2.4458096279    0.8997527123
 H   -2.8532978259   -2.4319773466   -1.9975212336
 H   -4.9760547909   -3.0552994573   -2.2890115672
 H   -2.6155778968   -2.8313151011    2.0853586820