18

 C    0.1563244431    1.4316043152    0.0068672377
 C   -0.0181750517   -0.0899431696    0.0003243694
 C   -1.4844534922   -0.4863148849    0.0134110259
 O   -1.5526533126   -1.9315734857    0.0061941063
 C   -2.7848200551   -2.4587401680    0.0165422587
 O   -3.8095112369   -1.8349988708    0.0307919244
 C   -2.6686969071   -3.9849556369    0.0076069031
 C   -3.9604693119   -4.6594785197    0.0144838663
 N   -4.9660265536   -5.2258316933    0.0195553150
 H    1.2158513151    1.7007457088   -0.0026531189
 H   -0.3121456384    1.8910811412   -0.8699949108
 H   -0.2937867023    1.8813707460    0.8982612246
 H    0.4592992215   -0.5224765642   -0.8862434535
 H    0.4776060417   -0.5321405488    0.8719500017
 H   -2.0018902305   -0.1151188066    0.9039972494
 H   -2.0202487269   -0.1054504760   -0.8621106285
 H   -2.0934887628   -4.2880655460   -0.8739124224
 H   -2.0797141994   -4.2969485107    0.8768859214