19

 C   -0.0163963179    1.4529755499   -0.2562434133
 O    1.3650950503    1.6440544615    0.2346398501
 C    1.2003126334    0.3940233758    0.8758488822
 C    2.0109258500   -0.7583739706    1.5771467135
 C    1.5631375442   -0.2076551750    2.9531664998
 C    0.3214307087    0.2866534958    2.1885895136
 C   -0.3296527262   -0.8559041080    1.3216391699
 C    0.8994412010   -1.8353132728    1.3384123547
 C    0.0432827115   -0.0857235465    0.0231380167
 H   -0.7252063253    2.0368262390    0.3382238231
 H   -0.0882514051    1.7284719980   -1.3102558068
 H    3.0391099393   -1.0304398179    1.3461350713
 H    1.4516466908   -0.9238905639    3.7732778847
 H    2.1661475364    0.6425074187    3.2841947353
 H   -0.3081021878    1.0995097853    2.5427365409
 H   -1.3085537239   -1.2857987409    1.5339231122
 H    1.0102380237   -2.3829375112    0.3984227769
 H    0.8587797271   -2.5544507177    2.1612484064
 H    0.2041703398   -0.6677858195   -0.8874665710