16

 O    0.0755376751    1.4562414225    0.0398937632
 C    0.0825160198    0.0299611095    0.0133357608
 C   -1.3536185884   -0.6308020772   -0.0544177138
 N   -1.5046818511   -1.3618593565   -1.3528661717
 C   -0.2493612339   -1.2449581608   -1.9711891742
 C    0.6542802171   -0.5734801369   -1.2166418700
 O    1.8819013627   -0.5652762827   -1.8065057490
 C    1.7201933139   -1.2459965136   -2.9758809975
 C    0.4394432370   -1.6964126241   -3.1404944337
 H   -0.1214197784    1.7573538067   -0.8544898497
 H    0.5795067839   -0.2515617566    0.9461131264
 H   -1.4737314066   -1.3451588802    0.7657147771
 H   -2.1123806014    0.1480229126    0.0598114509
 H   -2.2780736309   -1.0255706723   -1.9143614309
 H    2.6054967340   -1.3354518003   -3.5845650266
 H    0.0681029472   -2.2662135701   -3.9773536512