18

 C    0.1884616978    1.3303746021    0.1753241934
 O   -0.3135662915    0.0816133230   -0.2439092118
 C    0.4527815391   -0.5121593928   -1.2570628084
 C    1.7177232163   -1.3095047393   -0.8669976244
 C    0.8663447559   -2.5179113840   -0.3328952058
 C    1.6416243110   -3.5327747320   -1.1957760265
 C    1.5267023354   -2.2790205856   -2.0854070054
 C    0.0784455319   -1.9606021412   -1.5726950022
 H    1.1949198988    1.2461346961    0.6123327961
 H    0.2355001555    2.0500085835   -0.6574521662
 H   -0.4932304639    1.7179597044    0.9363096219
 H    0.5609302670    0.1699643739   -2.1165583333
 H    2.6737592138   -0.9668883521   -0.4682338368
 H    0.4725677465   -2.6279091400    0.6762039264
 H    2.6464304807   -3.8052875472   -0.8565143113
 H    1.0937990920   -4.4218756377   -1.5251041139
 H    1.8959319534   -2.1125114815   -3.0984142613
 H   -0.8537042098   -2.3554190096   -1.9785002107