18

 C    0.5549924380    1.9404695671    0.1185117029
 C    0.0112934290    0.5784846746    0.4818647769
 C    0.6330282422   -0.6797739624   -0.0103594962
 C    0.7291763616   -0.3622022115    1.4756493821
 C    2.0447938798    0.0163901714    2.0339088997
 O    2.9718758055    0.4415527384    1.3819197821
 C    2.2452033887   -0.1930465663    3.5572232252
 C    1.0985145193    0.1794860205    4.3756868582
 N    0.1773486269    0.4805539951    5.0054883545
 H    1.6440202751    1.9307666865    0.0485570694
 H    0.1516241275    2.2530388038   -0.8506926575
 H    0.2629006862    2.6918468053    0.8593376918
 H   -1.0669315863    0.5480600834    0.6142042994
 H    0.0031314512   -1.5153971817   -0.2935343080
 H    1.5674478923   -0.5928914821   -0.5548835142
 H    0.0752917961   -0.9006330830    2.1516645464
 H    2.4630751600   -1.2570299271    3.7190769960
 H    3.1313823169    0.3716851480    3.8562967713