19

 C    0.2442127030    1.5828470417   -0.1801605136
 C   -0.0630857183    0.0940784927    0.0745132243
 C    0.5925844620   -0.4771566049    1.2884626759
 C    0.0904815183   -0.8665071351    2.5097181126
 N   -1.2649525191   -0.8888800981    2.9089039789
 C    1.1760544756   -1.3436563917    3.3169304787
 C    2.3086072509   -1.2245572541    2.5478819357
 O    3.6168625690   -1.5146480859    2.7735320597
 N    1.9744234172   -0.7085359835    1.3382446222
 H    1.3193589332    1.7489307429   -0.3074030713
 H   -0.2580103070    1.9421702855   -1.0848877758
 H   -0.0827770581    2.1981702585    0.6637146382
 H   -1.1466069134   -0.0404581977    0.1715716323
 H    0.2168791187   -0.4838605042   -0.8189559197
 H   -1.8243032735   -0.2197040653    2.3945531809
 H   -1.3638636254   -0.6828246387    3.8957285256
 H    1.1157715029   -1.7331285303    4.3218446328
 H    3.6903838915   -1.8991810648    3.6518002859
 H    2.6280765124   -0.5512039571    0.5919420867