16

 C    0.0177778281    1.4787532445   -0.0960090400
 C    1.3249013473    0.7515151712    0.0553720806
 C   -0.0032349752   -0.0151667232    0.0515788566
 C    0.4347712774   -0.7475752240   -1.2422123902
 C    0.8251273617    0.0740397378   -2.4368635765
 C    1.7551579649    0.0550518057   -1.2577694484
 O    2.7722701106   -0.9310725503   -1.2223409659
 C    2.1027387611   -2.1300144968   -1.2137549140
 N    0.8290632269   -2.1376573918   -1.1947556162
 H   -0.2890523193    2.0112585138    0.7992257719
 H   -0.2677070101    1.9848338239   -1.0119602831
 H    2.0213511002    0.9570158160    0.8577828594
 H   -0.5237482241   -0.5221092800    0.8535814993
 H    1.1589463347   -0.4962539157   -3.2966901130
 H    0.2898710707    0.9799407983   -2.6936042206
 H    2.7449939751   -3.0032651495   -1.2460539201