17

 O   -0.0065895400   -0.0113567399    0.2572119182
 C    0.0027368887    1.1719366064    0.0286269073
 C   -1.3190139804    1.9491127864   -0.1426362400
 O   -1.2692534601    3.1843373097   -0.8499801994
 C   -0.0088559382    3.8664120135   -0.8096181436
 C    1.0925487153    2.9192834394   -1.3113975236
 C    1.2627907414    2.0341713563   -0.0529081164
 C    1.1457243908    3.0778863808    1.0537289005
 C    0.4353901354    4.1230435650    0.6247113095
 H   -2.0271355835    1.3022171473   -0.6675117305
 H   -1.7118786669    2.0998669314    0.8751458754
 H   -0.1562462317    4.7599944490   -1.4182076489
 H    0.7844532220    2.3744562092   -2.2081990437
 H    2.0204372166    3.4598507707   -1.5175891926
 H    2.1534368149    1.4058479976   -0.0185895407
 H    1.5226002615    2.9131097051    2.0559627485
 H    0.1176850441    4.9754123220    1.2120035900