17

 C   -0.0620551810    1.5197233302    0.0220605509
 C   -0.0266795930    0.0164968393    0.0127168462
 C    0.7962838840   -0.9669939475   -0.8831110523
 C    1.9863260752   -1.0208500126    0.0770610537
 C    0.7359845100   -0.9723948934    0.9583764808
 N   -0.0144638894   -1.9484802426    0.0077360666
 C   -1.1986382203   -0.9788530231   -0.0502073444
 C   -2.1207018217   -1.0428611683    1.0756541862
 N   -2.8440517194   -1.0614219969    1.9776137858
 H    0.9492173347    1.9359010298    0.0788086607
 H   -0.5359201409    1.9079118581   -0.8857848848
 H   -0.6285771508    1.8885615142    0.8833786673
 H    0.7604003415   -1.0615126507   -1.9700537800
 H    2.5469645249   -1.9584161475    0.0926574578
 H    2.6474144884   -0.1519939592    0.1005033848
 H    0.6310498835   -1.0726375448    2.0389086522
 H   -1.7512923057   -1.0429459150   -0.9936348715