25

 C   -1.8427840665    0.2826435011    1.7617964235
 C   -0.9138298888   -0.6468140983    1.0125309705
 C   -0.0425299998   -0.1177110473   -0.0964285447
 C    0.5950867497   -0.6006941581    1.1893066918
 C    1.3084658720    0.3247802600    2.1570115808
 C    1.6789918163    1.7043504003    1.6360243057
 C    0.9750460472    0.2352032611    3.6373312802
 C    2.2972971687   -0.2889535597    3.1394069403
 C    2.6118332212   -1.7676034155    3.1918046886
 H   -1.3874537101    1.2634254999    1.9256405259
 H   -2.7718716873    0.4369519631    1.2014315681
 H   -2.1114706688   -0.1207962344    2.7441355992
 H   -1.3243553710   -1.6415504255    0.8546973249
 H    0.0965612506   -0.7112866551   -0.9938800706
 H   -0.0742472555    0.9510283337   -0.2802297352
 H    1.0708827458   -1.5718269935    1.0903457029
 H    0.7953654394    2.3040399963    1.3895139550
 H    2.2469038767    2.2623803621    2.3873562421
 H    2.2932182080    1.6358562949    0.7313120586
 H    0.9519444092    1.1516593442    4.2188135883
 H    0.2355584376   -0.5001576486    3.9380025457
 H    3.1589661133    0.3408008363    3.3497846456
 H    1.7144859913   -2.3821244131    3.0744602359
 H    3.3226033771   -2.0604271792    2.4098837874
 H    3.0583718335   -2.0286141549    4.1577428497