14

 N   -0.0112916917   -1.0856098458    0.0161419706
 C   -0.0226629974    0.0706245128    0.0384671440
 C   -0.0449924198    1.5099454590    0.0408216336
 N   -0.6787341625    2.3398238827    1.1167284786
 C   -0.1371090849    3.3298393597    0.1271485628
 C    1.1667245908    2.4995120649   -0.0944500404
 C    1.0425382838    2.5646975821   -1.6295085724
 C   -0.4207771143    2.4696558635   -1.1542379549
 H   -1.6989744560    2.2836596356    1.0436276364
 H   -0.2284047411    4.4076750067    0.2502213756
 H    2.0442678508    2.4945207581    0.5497552321
 H    1.3391413999    3.5064561659   -2.0979681557
 H    1.4344472625    1.7127386954   -2.1903258088
 H   -1.3473132503    2.4297444795   -1.7284960114