23

 C   -0.0166765649    1.6422652723   -0.0488551981
 C    0.0241268644    0.1087866008   -0.0178722034
 C    0.7547316429   -0.5301912139   -1.1860048814
 C    1.5437825516   -1.5389748506   -0.8177847912
 C    1.5125946765   -1.8008591995    0.6711246765
 C    0.9917715299   -3.1913100914    1.0212763349
 C    2.7923677624   -1.3193840786    1.4209869424
 C    2.1250221560    0.0663752686    1.6307343570
 C    0.7512802356   -0.5271352793    1.1890374716
 H    0.9866506987    2.0774952009   -0.0757078580
 H   -0.5527425773    1.9963740478   -0.9360051326
 H   -0.5334975157    2.0398575172    0.8309728936
 H   -1.0217973617   -0.2367631112   -0.0268886913
 H    0.6140189921   -0.1909356356   -2.2081665245
 H    2.1393767492   -2.1465123192   -1.4934768050
 H    1.6606768634   -3.9712348140    0.6373326550
 H    0.9192494744   -3.3227782406    2.1065589427
 H   -0.0001104134   -3.3654576055    0.5897960121
 H    2.9395324842   -1.8626561772    2.3598250801
 H    3.7318038533   -1.3386863756    0.8609494335
 H    2.1692476877    0.4785510810    2.6412971664
 H    2.5060681157    0.8207808183    0.9395642326
 H    0.0865335648   -0.7084256846    2.0375355072