13

 O    0.1667970012    1.4317146037    0.2530174567
 C    0.0365336828    0.0708284362    0.0315581255
 C   -1.3247837585   -0.6491854577    0.0003740870
 C   -2.0869923291   -0.3859147445   -1.2398215199
 C   -1.9819454264    0.8810399542   -1.9280355146
 N   -1.8887425842    1.9099502968   -2.4490791540
 N   -0.9761231287   -1.3919620589   -1.2848748687
 C    0.2610412963   -0.5848759054   -1.3639865781
 O    1.0917960509   -0.5787796219   -2.2066986730
 H   -0.2462530649    1.9187456129   -0.4712148885
 H    0.6913223260   -0.4359792627    0.7499419863
 H   -1.7796430655   -1.1775006489    0.8292240430
 H   -3.0607316400   -0.8561310437   -1.3362765218