18

 C   -0.0055737387    1.3245985262    0.0116408902
 O    0.0432212526   -0.1091596869    0.0456111435
 C    0.7367951339   -0.6387242213    1.0673417305
 O    1.2951128478    0.0437143081    1.9090837253
 C    0.7157338267   -2.1255775352    1.0645269448
 N   -0.0179033686   -2.8581926166    0.0710827424
 C    1.9981936371   -2.7900495324    1.5908175505
 C    0.7990087237   -2.7636926532    2.4714251906
 O    0.7301873883   -2.0152121143    3.6279637334
 H    1.0013273443    1.7414352054   -0.0660903098
 H   -0.5947551737    1.5785520188   -0.8693250749
 H   -0.4788748375    1.7142494164    0.9159516708
 H   -0.9903887131   -2.5654402393    0.0626139399
 H    0.3472101596   -2.6602487285   -0.8566551922
 H    2.2680287921   -3.7177010310    1.1000866367
 H    2.8148527844   -2.1215876300    1.8396736798
 H    0.2214550577   -3.6778591162    2.5538407190
 H    1.1058769634   -1.1419012700    3.4270936495