15

 C   -0.0037871092    1.4178624056   -0.1187283144
 N   -0.0029668591   -0.0359300164   -0.1884393708
 C    1.2264460122   -0.6560721081    0.2860085885
 C   -1.2199225733   -0.6621616866   -0.0044581543
 N   -2.2914301512   -0.0102299450    0.2507966075
 C   -1.2704125496   -2.1544759016   -0.2832924460
 O   -2.2428043112   -2.8163737032   -0.0255353911
 H    0.9318437664    1.7907823603   -0.5455647441
 H   -0.8519863704    1.8064360244   -0.6821719192
 H   -0.0932654665    1.7833064325    0.9144759466
 H    1.4333598210   -0.4004915563    1.3366769082
 H    1.1799115701   -1.7431697700    0.2130468878
 H    2.0704079691   -0.3113922290   -0.3198394462
 H   -3.0738786092   -0.6679773013    0.2495336577
 H   -0.3952658191   -2.6003761450   -0.7971033200