11

 C    0.0934797260    1.4110129663    0.0586580136
 O    0.0669780218    0.0020138649    0.0464309140
 C    0.4499829489   -0.5483905914   -1.1854841070
 C    0.3807645715   -2.0615840401   -1.0710353420
 O    0.6514519504   -2.8113694971   -1.9703854392
 H    1.1034972890    1.8000551243   -0.1433152595
 H   -0.5948891514    1.8367304394   -0.6877944621
 H   -0.2188063665    1.7334840829    1.0544762253
 H   -0.2097961209   -0.2243432480   -2.0092010406
 H    1.4777188835   -0.2607576510   -1.4681657852
 H    0.0533769580   -2.4162019402   -0.0687946174