23

 C    0.0474783889    1.4981497912   -0.0204961747
 C   -0.1157108977   -0.0007627790   -0.2101567336
 O    0.9433144427   -0.4688771343   -1.0222164890
 C    0.9128608633   -1.8558356140   -1.2485985413
 C   -0.1190641811   -2.4283182424   -2.2873497837
 C    1.0605079483   -2.9806319000   -3.1031869886
 C    1.0755556408   -4.3196052404   -3.7815903206
 C    1.9411937148   -1.8330238181   -3.5060361958
 C    2.0583888691   -2.3716084950   -2.1030887360
 H    1.0058528092    1.7213533772    0.4568676484
 H    0.0194844917    2.0116827883   -0.9858417015
 H   -0.7559769561    1.8946805250    0.6076248856
 H   -0.1013566644   -0.5178107136    0.7648351771
 H   -1.0888197961   -0.2254093505   -0.6770464017
 H    0.8376595536   -2.3916925560   -0.2906164465
 H   -0.7595516750   -3.2045950441   -1.8602162940
 H   -0.7455682173   -1.6881697958   -2.7963113536
 H    0.4176361905   -4.3274580625   -4.6594633969
 H    2.0829121507   -4.5792082149   -4.1238761977
 H    0.7349675194   -5.1145448283   -3.1077001551
 H    2.7694667786   -2.0908262801   -4.1590979697
 H    1.5302353148   -0.8410957144   -3.6724976277
 H    2.9884489415   -2.7765720980   -1.7216059234