17

 C   -0.0826804010    1.4979501013    0.0305466627
 C    1.2977820447    0.8810322109    0.0538147431
 C    2.0745669587    0.7991684414    1.3385143315
 O    2.7372857908   -0.4719762973    1.4920746752
 C    1.9998810376   -1.6116819409    1.5848116510
 N    0.7710955137   -1.8751001159    1.4682521522
 C   -0.2576992906   -0.8887041329    1.1337514917
 C    0.0773431980    0.0006856971   -0.0530435189
 H   -0.4689950369    1.9172830206    0.9545444595
 H   -0.3805295499    2.0403929582   -0.8596700043
 H    1.9054061237    0.9918692224   -0.8390004439
 H    2.8850820112    1.5318979431    1.3694694822
 H    1.4355949413    0.9776756611    2.2095464301
 H    2.6907866301   -2.4256644301    1.8090400597
 H   -1.1749255523   -1.4457288619    0.9147641594
 H   -0.4913347466   -0.2822970572    2.0179424015
 H   -0.0954399826   -0.4549883400   -1.0231652427