17

 N   -0.0739087429   -1.1442916674    0.0345337316
 C   -0.0613929491    0.0108455560    0.0118431208
 C   -0.0112849244    1.4720460790   -0.0165604594
 C    1.4126870558    1.9869850499   -0.0141623469
 C    2.3243991470    1.8824492675    1.2275281553
 C    2.8864057435    3.1984002808    0.7223167372
 C    2.8995739595    3.1689169502   -0.7717723489
 C    2.3461205230    1.8338531737   -1.2344881372
 N    1.6336604848    3.5360450535   -0.0427807356
 H   -0.5354635358    1.8323975985   -0.9091502521
 H   -0.5509980983    1.8671562009    0.8517313199
 H    1.7574321796    2.0279338753    2.1511585452
 H    2.9768712785    1.0095999355    1.3228467005
 H    3.4130201485    3.9591580118    1.2866389205
 H    3.4363086712    3.9070045197   -1.3563041291
 H    2.9998755351    0.9581548416   -1.2837668124
 H    1.7955812938    1.9425755036   -2.1729953695