22

 C   -0.1517912743    1.5439330517   -0.0275312129
 C    0.0156910645    0.0173287937    0.0038758567
 C    0.8259443922   -0.5265299688   -1.1708740614
 N    2.2170302967   -0.0202648959   -1.2274465261
 C    1.9234145311   -1.3563049245   -0.6241851620
 C    1.8095080611   -1.2989174453    0.8670417480
 C    2.7964514293   -2.0124569657    1.7371581405
 C    0.7759823215   -0.5165644297    1.2200254435
 C    0.3431925092   -0.1361491014    2.6020523079
 H    0.8282568096    2.0267620471   -0.0621280727
 H   -0.7169994697    1.8521867893   -0.9135123314
 H   -0.6928738545    1.9073909837    0.8515738326
 H   -0.9873829801   -0.4373713079   -0.0162269284
 H    0.3261947999   -0.7680112767   -2.1032967382
 H    2.5611749287   -0.1620562428   -2.1764517083
 H    2.3040540450   -2.2433763577   -1.1218464516
 H    3.8095035803   -1.6182763370    1.5839857273
 H    2.5611355232   -1.9242458111    2.8004159366
 H    2.8375835549   -3.0817816182    1.4921824245
 H    0.9073985243   -0.6646311017    3.3740170904
 H    0.4679542694    0.9393216017    2.7801712924
 H   -0.7221576024   -0.3545950928    2.7546014426