19

 C    0.0975372968    1.5909218242   -0.0156527073
 C    0.0078150902    0.0650257844   -0.0178705873
 C    0.8128559020   -0.6224753426   -1.1022245958
 C    2.2423083279   -0.8693180963   -0.6397078288
 C    1.2494262129   -2.0146901825   -0.6740591590
 C    1.1584235270   -1.9873224096    0.8693583199
 C    2.1533314151   -0.8349853145    0.9037563113
 C    0.6904670710   -0.5751266350    1.1877148327
 O    0.3501359228   -0.2159579449    2.4864878082
 H    1.1431630518    1.9156843113   -0.0289015207
 H   -0.4033269896    2.0221701105   -0.8883554527
 H   -0.3695739906    2.0022050405    0.8845677479
 H   -1.0457354184   -0.2467563178   -0.0626014159
 H    0.6265260404   -0.4307949957   -2.1524882555
 H    3.1220119532   -0.6988420540   -1.2449698108
 H    1.2211795323   -2.8866257957   -1.3134751089
 H    1.0578464583   -2.8228356521    1.5486525314
 H    2.9408052606   -0.6310051166    1.6153443699
 H   -0.5011803736   -0.6171743336    2.6937940315