15

 O   -0.0739065581    1.4360030978    0.0107181159
 C    0.0414754761    0.0277160853    0.0023431594
 C   -1.3876532309   -0.5185978719    0.0118281483
 N   -1.4222503748   -1.9707235871    0.0045968846
 C   -1.4144036740   -2.8104884956   -1.0747486687
 N   -1.3951114552   -4.0625065365   -0.6972418011
 N   -1.3854994135   -4.0695976689    0.6844866609
 C   -1.3994595678   -2.8215255782    1.0750480259
 H    0.8086942879    1.8171757387    0.0052054787
 H    0.5668222025   -0.3413900186   -0.8918950045
 H    0.5821104151   -0.3507433948    0.8834581960
 H   -1.9112644345   -0.1543203634    0.8995001714
 H   -1.9265886674   -0.1449884637   -0.8627053289
 H   -1.4328037710   -2.4545844175   -2.0936445151
 H   -1.4036174845   -2.4760677956    2.0976913373