19

 C   -0.0520865526    1.5123198813   -0.1117714819
 C    1.2941648180    0.8425092393    0.0311586728
 C    0.0260748593    0.0156145145    0.0157144355
 C   -0.1346149331   -0.6264914981    1.3897218627
 O    0.9413920284   -1.5275822995    1.6030626498
 C    2.2134724504   -0.8641454888    1.5328404824
 C    1.9876164563    0.6532384953    1.3796621305
 C    1.0597738093    1.0611114498    2.5275570228
 O   -0.1809327759    0.3474785765    2.4142156861
 H   -0.4775473709    2.0763577082    0.7085270467
 H   -0.2837031534    1.9059779588   -1.0954127700
 H    1.9421849124    0.8278645252   -0.8393965200
 H   -0.2150511954   -0.6165546190   -0.8317758315
 H   -1.0457709156   -1.2182059891    1.4911686786
 H    2.7604725579   -1.0894101303    2.4574489909
 H    2.7885153027   -1.2656075143    0.6873042622
 H    2.9349954544    1.1956453724    1.4484565438
 H    1.5226153717    0.8186009851    3.4939243725
 H    0.8463031161    2.1363730926    2.5150891760