22

 C   -0.3470578829    1.4485643742    0.1357677286
 C    0.2715855567    0.0678673509   -0.1104990252
 C    0.9060890974   -0.5183374545    1.1338453896
 C    0.0549264027   -1.2141762095    2.1819399181
 C    1.0268783633   -2.0066217712    1.3402616945
 O    0.5085951313   -2.8066874642    0.3052365263
 C    2.2783097848   -2.5530883384    1.9669831035
 C    2.5107498782   -4.0148994470    2.0681163304
 N    3.2931040859   -3.1968489203    1.1218935674
 H    0.4054518951    2.1659741197    0.4815003627
 H   -0.7933403452    1.8498473302   -0.7795417670
 H   -1.1305093122    1.3989998879    0.8994012479
 H   -0.4870643185   -0.6252506735   -0.4863824047
 H    1.0313849637    0.1417123000   -0.8989026976
 H    1.7406889140    0.0599835166    1.5252952228
 H    0.2720391718   -1.0644362737    3.2344238355
 H   -0.9984206179   -1.3403232957    1.9498727450
 H   -0.0392375792   -3.4909461431    0.7040220886
 H    2.6939769819   -1.9119829579    2.7423974377
 H    3.0728202311   -4.4216246728    2.9040811372
 H    1.7570336963   -4.6842003178    1.6618942709
 H    2.8920555415   -3.3167241400    0.1928449777