20

 C    0.1810170156   -0.1132570694    0.5731138352
 O    0.5599638969   -0.9660124394   -0.5173389730
 C    0.8912797318   -0.3336172161   -1.6669793143
 N    0.8193438616    0.9254121865   -1.7741066675
 O    1.2474093154   -1.1614587679   -2.6597856225
 C    1.7111995222   -2.5375699931   -2.4969792648
 C    2.8881863702   -2.6523296573   -1.5357952045
 C    0.5687854413   -3.5283105726   -2.2223251324
 O    0.2309633832   -3.7141359133   -0.8682844662
 H    0.9911931359    0.5788049591    0.8105210390
 H   -0.7094060786    0.4624915825    0.3128422752
 H   -0.0180050744   -0.7817660017    1.4116323919
 H    1.1262109817    1.2124846318   -2.7000778096
 H    2.0587928967   -2.7460232304   -3.5141996002
 H    3.3308151508   -3.6486808222   -1.6299526549
 H    3.6540566356   -1.9117204347   -1.7810302187
 H    2.5748249395   -2.5223717626   -0.5002332686
 H   -0.2970222846   -3.2212039774   -2.8306947031
 H    0.8941903776   -4.5080661737   -2.5917803468
 H    0.0443289814   -2.8369409479   -0.5118531642