21

 C   -0.3049473899    1.2511963020    0.1084086560
 O    0.0553179161   -0.1191361917    0.1032695939
 C    0.6502448429   -0.5913304379   -1.0792472054
 C    1.2825985690   -1.9542244964   -0.7239172977
 C    2.3509283903   -1.8335351966    0.3633200303
 O    0.2532311357   -2.8635556823   -0.3618809846
 C   -0.3725560800   -0.7472963687   -2.2236062478
 C    0.1460592471   -1.3215692670   -3.5294956147
 O   -1.5277444052   -0.4271415891   -2.0791593832
 H    0.5661758128    1.8867727693   -0.1127529497
 H   -1.1026925511    1.4623778765   -0.6092549736
 H   -0.6562339543    1.4788696400    1.1175640334
 H    1.4428408564    0.0968438210   -1.4264018187
 H    1.7392646332   -2.3712222715   -1.6277640541
 H    2.7247959366   -2.8282251155    0.6187676011
 H    3.1932396563   -1.2219541508    0.0216992743
 H    1.9330664434   -1.3709236818    1.2607665094
 H   -0.2986817467   -2.4052419438    0.2846153555
 H    1.1608044383   -0.9824256727   -3.7595213000
 H    0.1720139159   -2.4141611343   -3.4459239879
 H   -0.5342141769   -1.0522212287   -4.3386978765