18

 O    0.1825424359    1.3735002179   -0.2765022343
 C    0.0547278743   -0.0244043244   -0.0075828158
 C    0.8265857995   -0.4156623832    1.2307675499
 C    0.2103875359   -0.7424604466    2.3707228068
 C   -1.2668064731   -0.7299775151    2.5149704834
 C   -2.1060550790   -0.1884958980    1.4285451629
 C   -1.4029577631   -0.4815424516    0.0895646931
 C   -1.5966306181   -1.9782117341    0.4538417598
 N   -2.2131933174   -1.6515034734    1.7846452777
 H   -0.0250818166    1.8388226804    0.5414101244
 H    0.5026425831   -0.5126216859   -0.8823828131
 H    1.9105227912   -0.3839522661    1.1704541158
 H    0.7887678864   -1.0088465296    3.2511845122
 H   -1.6321149820   -0.5863474220    3.5271216127
 H   -2.9243231613    0.5061844524    1.5898693842
 H   -1.9579715797   -0.1568900487   -0.7910793682
 H   -2.3493542591   -2.4776524875   -0.1589963959
 H   -0.6998526772   -2.6030438344    0.5063167244