17

 O    0.0338888404    1.4433773434   -0.0173435747
 C    0.0625629515    0.0331975002   -0.0169289522
 C    0.7213339446   -0.6035227356    1.2531162343
 C   -0.2180897924   -1.7351326744    1.6441768572
 C   -1.6955838776   -1.3728456187    1.8401192965
 O   -1.9776477121   -0.1071236351    1.2305417532
 C   -1.3428500997   -0.5735274344   -0.0116172670
 C   -1.2296710225   -2.0076310834    0.5627049397
 O   -1.4049106205   -3.2187757020   -0.0604759725
 H   -0.5669950334    1.6905337802    0.6982118108
 H    0.5996666933   -0.2626920892   -0.9247426002
 H    1.7258818549   -0.9782176138    1.0394932582
 H    0.8158996097    0.1563159454    2.0349530100
 H    0.1269201622   -2.5827389894    2.2266881035
 H   -2.3110522146   -1.6910372502    2.6728535134
 H   -1.9664006502   -0.3691592547   -0.8838326673
 H   -2.3313720135   -3.3034194983   -0.3139280228