21

 C    0.0018212906    1.4231596234   -0.0039484891
 O    0.1736803664    0.0248114932   -0.0594892637
 C    0.4291316554   -0.5546048805    1.2177854324
 C    0.5038650322   -2.0535296685    1.0556956663
 C   -0.7650649153   -2.6948304839    0.5186595420
 O   -0.9678611507   -2.4436471359   -0.8587787929
 C    1.8309765633   -2.6572863518    0.6313109953
 C    1.3339200937   -2.8282658394    2.0429271701
 O    1.9296635299   -2.1112901809    3.0881653394
 H    0.8988618391    1.9213774620    0.3938083458
 H   -0.1759547552    1.7733375855   -1.0233033559
 H   -0.8559002876    1.7035715650    0.6265640233
 H    1.3607228334   -0.1561977465    1.6399163135
 H   -0.3872239920   -0.2884151663    1.9103563573
 H   -0.7134278180   -3.7839432161    0.6321479638
 H   -1.6237304856   -2.3485528869    1.1207463673
 H   -0.7931700544   -1.5011601696   -0.9838827884
 H    1.8141292407   -3.5065648128   -0.0427506291
 H    2.6577157992   -1.9704616575    0.4830400809
 H    0.9555560126   -3.8095150797    2.3314842457
 H    2.8059248423   -2.4809742829    3.2380170361