16

 N   -0.1003297392    1.2569418709    0.0119296810
 C   -0.0639361997   -0.0003765898    0.0046263311
 O    1.1073934953   -0.7441640931   -0.0067340808
 C    0.8510737618   -2.1042074117   -0.0130041659
 O    1.7326691766   -2.9041250642   -0.0227591666
 C   -0.6539447073   -2.3279871738   -0.0056155855
 C   -1.2296709376   -0.9260604096    0.0066424127
 C   -2.4778014129   -0.5246342231    0.7658078743
 C   -2.4878156431   -0.5155346484   -0.7307175397
 H    0.8354276352    1.6614130736    0.0085043265
 H   -0.9237237734   -2.9146475084   -0.8889759133
 H   -0.9135298112   -2.9260295657    0.8731327898
 H   -3.0111508892   -1.3150002776    1.2833185488
 H   -2.4400216551    0.4297111311    1.2780646475
 H   -2.4568197189    0.4449757802   -1.2317868650
 H   -3.0281393611   -1.2995812605   -1.2506001350