20

 C   -2.7389117304   -3.3959138487    2.8182100583
 C   -1.7497436094   -3.0956848091    1.7953386660
 C   -0.9448008807   -2.8285018696    0.9367914258
 C    0.0529380684   -2.5657046584   -0.0499035749
 N   -0.2360481903   -1.6426070605   -0.9017030520
 O    0.7822031273   -1.4376105422   -1.8372964624
 C    1.3380754303   -3.3801635372   -0.0089771778
 C    2.0892679565   -3.1382167412    1.3112477725
 C    1.0374892216   -4.8740113860   -0.2187377810
 H   -2.3864304114   -4.1822603029    3.4942422826
 H   -2.9625428839   -2.5104725665    3.4237396972
 H   -3.6791888943   -3.7370920791    2.3707771349
 H    0.4111764767   -0.7348866936   -2.3812810680
 H    1.9616819489   -3.0313036007   -0.8334643682
 H    2.3408262703   -2.0808765107    1.4371377072
 H    1.4845486373   -3.4470028803    2.1696467874
 H    3.0205398411   -3.7135751971    1.3260540690
 H    0.5428943571   -5.0486398964   -1.1789301328
 H    1.9675668734   -5.4513290464   -0.2051392005
 H    0.3864056215   -5.2585673333    0.5725282670