16

 C    0.0177305857    1.5270075278   -0.0271047218
 N    0.0433925777    0.0643624799    0.0373667529
 C   -1.1133742611   -0.7090536225    0.6414871032
 C   -0.1288561256   -1.9076564460    0.6974354793
 C    0.6222307079   -0.6593125197    1.2400365404
 C   -0.6382874922   -0.3871951556    2.1045795991
 O   -0.7723865480    0.8849763788    2.6791492438
 H    1.0324520072    1.8678970815   -0.2622497021
 H   -0.6186719037    1.8096428137   -0.8738690964
 H   -0.3289649372    2.0481787185    0.8683405264
 H   -2.1186405446   -0.6785801070    0.2157036300
 H   -0.3453159217   -2.7155630898    1.3983208702
 H    0.2163078586   -2.2519104124   -0.2748500182
 H    1.6721770714   -0.5694244126    1.5238410937
 H   -0.8723051120   -1.1685001540    2.8436095751
 H   -1.6423813522    0.9391799993    3.0867676845