16

 N    0.0262420967    0.8068449826    1.0386717320
 C    0.0604415984   -0.0606837485    0.1107652275
 N    1.2072399313   -0.4808474908   -0.5926207192
 C    1.4212763258   -1.7566232524   -1.0907487965
 O    2.4602158977   -2.0705002523   -1.6237163362
 C    0.2633232190   -2.7165790394   -0.8303722263
 C   -1.0781813482   -2.0061758868   -0.8831375549
 C   -1.8375718056   -1.6603194535    0.3602747345
 N   -1.1146676253   -0.6386996676   -0.3817865416
 H    0.9626302054    1.1330763659    1.2732001127
 H    2.0188452893    0.1214041770   -0.5882157207
 H    0.3274622130   -3.5240861470   -1.5603043196
 H    0.4385758329   -3.1583279507    0.1582024995
 H   -1.6395412908   -2.1428642409   -1.8044579239
 H   -2.9197573810   -1.5759224484    0.3361365177
 H   -1.4197731084   -1.9740775572    1.3138084749