21

 C    0.0272593275    1.5482600447    0.0614977285
 C   -0.0025476272    0.0142081996   -0.0004468034
 C   -1.4537134515   -0.4996052424    0.0138521996
 C    0.7118143944   -0.5630248897   -1.2427196622
 C    2.1822807560   -0.3426042057   -1.4863868078
 C    1.7207368110   -1.6118399029   -0.8096136090
 C    1.7292618983   -1.5913903144    0.7028046732
 O    2.1327678990   -0.3354604585    1.2759446643
 C    0.7324283736   -0.6240623725    1.1855704917
 H    1.0545109871    1.9170838230    0.1101771103
 H   -0.4510626642    1.9824922455   -0.8228006949
 H   -0.5067361058    1.9172351243    0.9444258579
 H   -2.0100957017   -0.1088028776   -0.8444025660
 H   -1.4881295542   -1.5933177323   -0.0329511987
 H   -1.9769765008   -0.1822744587    0.9223843910
 H    0.0893451843   -0.7312599460   -2.1161002112
 H    2.5201519389   -0.4247637897   -2.5140166565
 H    2.7230997705    0.3718140258   -0.8795897353
 H    1.8208210412   -2.5680255984   -1.3090264521
 H    2.0318599940   -2.4721513430    1.2623302440
 H    0.2203499295   -0.7061158811    2.1436673565