25

 C   -0.7707156197    1.4209443134   -0.9325539969
 C   -0.7727809412   -0.0898275685   -1.0957074563
 O    0.5669513443   -0.5494256249   -1.0244731779
 C    0.7389017357   -1.9652898911   -1.1719263046
 C    0.8699090211   -2.2610786381   -2.6713508941
 O    1.9521077265   -1.5481137664   -3.2392675636
 C    1.9703912773   -2.3618341816   -0.3370553681
 C    1.7675398599   -1.9913463197    1.1381932614
 C    2.3090035813   -3.8519384812   -0.4844190284
 H   -0.3207829103    1.7032676904    0.0234587654
 H   -0.1969749942    1.8959333360   -1.7338285964
 H   -1.7934964577    1.8081417220   -0.9640690281
 H   -1.3698241966   -0.5640053306   -0.3003569645
 H   -1.2346492149   -0.3680901803   -2.0556094022
 H   -0.1472413852   -2.4888203643   -0.7757850302
 H    1.0495212839   -3.3249787226   -2.8486149723
 H   -0.0790780034   -2.0079614112   -3.1721613100
 H    1.8675877073   -0.6475748386   -2.9005846307
 H    2.8131034957   -1.7804033668   -0.7294451608
 H    0.9520786899   -2.5761876574    1.5823843214
 H    2.6732754348   -2.1979959271    1.7172563135
 H    1.5242054867   -0.9325617335    1.2456347592
 H    2.6183386290   -4.1070697012   -1.5011716438
 H    3.1320722906   -4.1197109683    0.1855239921
 H    1.4529065791   -4.4847206784   -0.2187006839