19

 O    0.0414241065    1.0707914065   -0.3488605920
 C   -0.1747521611   -0.2735820418   -0.0386936459
 C   -0.1551932686   -1.2847297144   -1.2289367655
 C   -1.6508043694   -1.6355109523   -0.9523109715
 C   -1.6085321804   -0.7817537934    0.3342854487
 C   -1.0040692840   -1.5121020912    1.5738236753
 C    0.3639590097   -0.7961101225    1.3160810897
 C    1.6447494386   -1.5749667078    1.3760988240
 O    2.5019880264   -1.5372386880    0.5260043193
 H    0.9394643594    1.1510811509   -0.6915623659
 H    0.0156053832   -0.7850057233   -2.1848329367
 H    0.5581406983   -2.1044387296   -1.1350537107
 H   -2.3229710353   -1.2258212314   -1.7101083220
 H   -1.8902497086   -2.6939186399   -0.8171708697
 H   -2.4290459324   -0.0951641592    0.5418621486
 H   -1.4705052564   -1.2799671432    2.5322568576
 H   -0.9676919185   -2.6001742077    1.4640248883
 H    0.4644910914    0.0537888160    2.0040663370
 H    1.7696460610   -2.2142068876    2.2820084713