17

 C   -0.0574086280    1.4500263806    0.1675262487
 C   -0.0468349072   -0.0259524455   -0.0624894552
 C    0.6956841012   -0.8823980739   -1.1121098889
 C    0.1174723733   -1.8364075589   -0.0522947340
 O    0.5432892951   -0.8970995968    1.0180310837
 C    0.3365408501   -3.2949796973    0.1571604524
 O    0.3566859134   -4.0951950119   -0.7437434846
 C   -1.2401275003   -1.0302519659   -0.1134041143
 O   -2.0871492443   -1.0843208203    0.9745470809
 H    0.9535407317    1.8196565418    0.3615879550
 H   -0.4530902261    1.9631464892   -0.7144294365
 H   -0.6930212865    1.6978172165    1.0231529389
 H    0.2849301488   -0.9317983719   -2.1225001325
 H    1.7817057259   -0.7950791659   -1.0916848077
 H    0.4588729342   -3.5924546858    1.2217109566
 H   -1.8239549355   -1.1021146579   -1.0328118136
 H   -1.5093899658   -1.0061135561    1.7493149110