18

 C   -0.1341625812    1.4965924497    0.0144230628
 N    0.1212518441    0.0588430600    0.0361572104
 C    1.4102369183   -0.5334536899   -0.1946633970
 C    2.5678332048    0.3168145047    0.3692076229
 C    1.8687314378    0.1733540247    1.7442817722
 O    2.1973536963    0.4054396286    2.8770698592
 C    0.7186991464   -0.6284328154    1.1733761799
 C   -0.0134448476   -1.6783060855    1.9625916808
 O   -0.6463592139   -1.0929423469    3.0907747007
 H    0.6736276905    2.1259787093    0.4101179332
 H   -0.3301199829    1.7957569496   -1.0195138295
 H   -1.0348187296    1.6875071347    0.6033028674
 H    1.5049927056   -1.3207977631   -0.9341896591
 H    3.5320159272   -0.2001049479    0.3864192524
 H    2.7083833587    1.3169598987   -0.0474607113
 H   -0.7982882792   -2.1295040591    1.3497736069
 H    0.6868592357   -2.4728481399    2.2647756107
 H    0.0497779993   -0.6822115921    3.6185076472