20

 O    0.0040676589    1.4975488382   -0.0052045152
 C    0.0920414531    0.0949712144    0.1752402358
 C   -1.2756850394   -0.5493938998    0.0422104779
 N   -1.9382885388   -0.3687093444   -1.3156477637
 C   -1.1962196044   -1.1979369960   -2.2945211577
 C   -2.1223365002   -1.8789051891   -1.3727034003
 C   -1.4686554776   -2.0707116781   -0.0246032329
 C   -0.5745552638   -3.1928907929    0.4250341903
 C   -1.9204408693   -2.9732194212    1.0792921193
 H   -0.5337948151    1.6428576742   -0.7925978563
 H    0.8114270577   -0.3565476342   -0.5257539376
 H    0.4849004153   -0.0699656850    1.1854238052
 H   -1.9461500149   -0.0915308563    0.7765717837
 H   -1.5298156238   -1.0176533050   -3.3118845569
 H   -0.1254165395   -1.3492800447   -2.1884001981
 H   -3.0610687357   -2.3237350168   -1.6891000858
 H   -0.4562523987   -4.0470261703   -0.2341003469
 H    0.3153153578   -2.9445770161    0.9945021697
 H   -1.9431669554   -2.5751376916    2.0891432653
 H   -2.7135675165   -3.6823697852    0.8638452341