14

 O    0.1434164156    1.3785655914   -0.4068999393
 C    0.0637144473    0.0630475552    0.1144563104
 C   -1.2931279828   -0.4887419029    0.0963884283
 C   -2.4213943938   -0.9038490267    0.0988211904
 C   -3.7986370412   -1.4143588072    0.0787199804
 C   -3.8519907650   -2.8799919478   -0.0115835614
 C   -3.9023160903   -4.0742743115   -0.1026638381
 C   -4.5583032172   -0.9319489557    1.2548121454
 N   -5.1579997261   -0.5393078841    2.1593482577
 H   -0.4472379693    1.9359407975    0.1108851643
 H    0.7186510860   -0.5502113890   -0.5138296865
 H    0.4604149899    0.0046642319    1.1399511831
 H   -4.3078598789   -1.0001769836   -0.8054557621
 H   -3.9435293441   -5.1334187274   -0.1769741226