27

 C   -0.1267987949    1.5161928831    0.0437824358
 C   -0.0144064880   -0.0039239044    0.0352976721
 C   -1.2980882885   -0.5997992502   -0.5309314300
 C    1.3351242258   -0.6739822542   -0.2482993403
 C    1.3975365746   -1.9372456983   -1.0989860065
 C    2.5687941663    0.1777835161   -0.5238891393
 C    0.7351669705   -0.7249081435    1.1617355911
 C    1.3693789228    0.0766310745    2.2928091674
 C    0.1983206279   -2.0386760363    1.7182952336
 H    0.7511085413    2.0285140751    0.4355535514
 H   -0.2959843188    1.8912254368   -0.9729940651
 H   -0.9851002315    1.8307432806    0.6499451362
 H   -1.4706332847   -0.2337283839   -1.5504061668
 H   -1.3070274528   -1.6883322286   -0.5722558252
 H   -2.1598195657   -0.2897018141    0.0726523397
 H    1.4424184208   -1.6771119811   -2.1635727171
 H    2.3062350324   -2.5064927387   -0.8682418046
 H    0.5515733717   -2.6105369167   -0.9661182553
 H    2.6096295762    1.1063159417    0.0442561087
 H    3.4800747357   -0.3866035608   -0.2913984215
 H    2.6176048856    0.4440830048   -1.5867796923
 H    1.7827065769    1.0368607837    1.9862902633
 H    0.6297934419    0.2763495601    3.0777954499
 H    2.1827142732   -0.4958573194    2.7551786695
 H    1.0086352947   -2.6150644758    2.1811183919
 H   -0.5455540770   -1.8440666963    2.5005050948
 H   -0.2735541763   -2.6816524142    0.9761782186