25

 C    0.1310095622    1.4532341090    0.2294796134
 C   -0.4224246878    0.1317149743   -0.3218050031
 C    0.4961617188   -0.5105088399   -1.3499416801
 C    0.5757098990    0.2010162417   -2.6873222913
 O    1.7758856357   -0.9408624833   -0.8402704270
 C    0.8614586874   -1.9420237929   -1.3035664834
 C    0.3823296452   -2.9759910528   -0.3052767950
 C   -0.8470426196   -3.7143297923   -0.8537432436
 C    1.5277098757   -3.9454084818    0.0245195147
 H    1.1209685470    1.2950866940    0.6669451283
 H    0.2235773125    2.2168169856   -0.5488654538
 H   -0.5271522287    1.8532245274    1.0064647468
 H   -0.5856889134   -0.5558580274    0.5117512678
 H   -1.4025531215    0.3000603234   -0.7861991272
 H    0.9075131142    1.2368344316   -2.5646760307
 H    1.2856028337   -0.3023335623   -3.3480349717
 H   -0.4044637308    0.2184619566   -3.1764942955
 H    1.1583698065   -2.3861537091   -2.2602513854
 H    0.1030517331   -2.4629538547    0.6209788158
 H   -1.1900993656   -4.4779401348   -0.1486191160
 H   -1.6789503519   -3.0275791878   -1.0402963519
 H   -0.6126889032   -4.2193831047   -1.7983959707
 H    2.3962321380   -3.4019392765    0.4070394577
 H    1.2175020958   -4.6753449852    0.7790898644
 H    1.8414606278   -4.5003033081   -0.8676687427