18

 C   -0.0046274575    1.5603428818    0.0410013258
 C    0.0692301168    0.0529030622    0.0620359228
 O   -1.0777584248   -0.5962419451   -0.4198248310
 C    1.3263324868   -0.7343309039   -0.1626971969
 O    2.4671199440   -0.0142253150    0.3679846200
 C    1.9252733489   -0.1060754244    1.6531292614
 N    2.4094062128    0.2237526734    2.7605468895
 C    0.6670329220   -0.7844028704    1.2112825243
 C   -0.0857180534   -1.8249446320    1.9849526928
 H    0.9203777080    2.0140409705    0.3995327030
 H   -0.1756554826    1.9158166126   -0.9829917227
 H   -0.8343487976    1.9060761105    0.6642607018
 H   -1.2190225397   -0.3074027674   -1.3284219951
 H    1.5037292759   -1.4908983304   -0.9158233969
 H    3.3400198014    0.6307826958    2.6530378547
 H   -0.4887474621   -1.3900549541    2.9052203665
 H   -0.9168358807   -2.2140184584    1.3950613180
 H    0.5696015919   -2.6540081957    2.2687654622