12

 O   -0.0005021227    0.0158016413   -0.1590409751
 C   -0.0148881680    1.1890954508   -0.0412526420
 C   -1.0534987913    2.3960042165    0.0920092141
 N   -0.0241403706    2.9306771502    1.0339750375
 C    0.9937026070    2.4238708449    0.0644975121
 C    0.6184091736    3.0615596661   -1.2607844312
 C   -0.7314419618    3.0431443109   -1.2426640313
 H   -2.0790420091    2.2919956196    0.4376263851
 H   -0.0379779951    3.9543729224    1.0410767260
 H    2.0306118079    2.3479338473    0.3823972690
 H    1.2914453972    3.3200503207   -2.0655815338
 H   -1.4326375171    3.2828931392   -2.0290095005