19

 C    0.1872645394    1.8034470220   -0.2231544297
 C    0.0627876940    0.2922556414   -0.0102632585
 C    0.6938043141   -0.4994173215   -1.1664465061
 C    0.4494864665   -2.0021056020   -1.0981070552
 O    1.0659040976   -2.5805786042   -2.2410619204
 N    0.6401443733   -0.0714582908    1.2849378416
 C    0.0334927127   -0.8990510890    2.1740930442
 O   -1.0292280377   -1.4599694521    1.9990773686
 H    1.2391853629    2.1097381631   -0.2788875820
 H   -0.2911255540    2.1001658493   -1.1606538253
 H   -0.2862666933    2.3525847256    0.5953446813
 H   -0.9948708591    0.0221405605    0.0678041004
 H    0.2864201241   -0.1279023607   -2.1139439962
 H    1.7757921913   -0.3158669666   -1.1981376044
 H    0.8702144808   -2.4130035636   -0.1689953567
 H   -0.6325376989   -2.2025289361   -1.0783265901
 H    0.9243677367   -3.5309465313   -2.2058684627
 H    1.5325040062    0.3246781295    1.5383758487
 H    0.6276720636   -1.0105556035    3.1034567226