23

 C   -0.0799227535    1.5730186141    0.0014335038
 C    0.0332793187    0.0479465734    0.0142813430
 C    1.2056355577   -0.5970883324   -0.8046258307
 C    2.0817424957   -0.2589447003    0.4395403623
 C    0.7821690686   -0.6114176414    1.2248651340
 C    0.5636555783   -2.1901927930    1.1707834998
 C    1.7203236000   -2.8385133834    0.3459161918
 C    0.9881827872   -2.1758270955   -0.8638049077
 C   -0.3039865895   -2.5595529865   -0.0744968588
 H    0.8563251770    2.0993452510    0.2008963104
 H   -0.4457958223    1.9140721738   -0.9740277017
 H   -0.8068603027    1.9018026646    0.7532076750
 H   -0.9665930784   -0.3237332210   -0.1969845258
 H    1.4691908193   -0.1812867913   -1.7804933153
 H    3.0043876986   -0.8018522154    0.6282259275
 H    2.3120473495    0.8042151853    0.4950925017
 H    0.6323281988   -0.2096090367    2.2302338911
 H    0.3033629933   -2.6032363530    2.1475595690
 H    2.7604277490   -2.6078590648    0.5645686709
 H    1.6120515798   -3.9254215308    0.3156498476
 H    1.1413693216   -2.5748803829   -1.8686626292
 H   -0.4733449238   -3.6384678597   -0.1174527348
 H   -1.2532393928   -2.0652300740   -0.2690712239