20

 C   -0.6281144251    1.7408813849    0.2584261361
 C    0.1326421487    0.4318527204    0.0508314548
 O    1.0383539508    0.2806246255    1.1164927937
 C    1.9580930167   -0.7953528044    0.9672634980
 C    2.8932210863   -0.7812429940    2.1663109000
 C    3.9192118358   -1.9067555581    2.1176565310
 O    4.7391695849   -1.7852580438    3.2682995698
 C   -0.8026061315   -0.7179881787   -0.0304799141
 N   -1.5214815987   -1.6208275604   -0.0904746729
 H    0.0868085826    2.5661896138    0.2811590484
 H   -1.3418872620    1.9035729808   -0.5525000293
 H   -1.1679805441    1.7138402079    1.2074226222
 H    0.6744612391    0.4664387874   -0.9092135629
 H    1.4149295539   -1.7504330912    0.9047915143
 H    2.5212905606   -0.6736537286    0.0269525794
 H    3.4165004731    0.1796124707    2.2113256482
 H    2.3048437335   -0.8717497151    3.0851489311
 H    3.4049762284   -2.8814104902    2.0938718182
 H    4.5157478589   -1.8319958127    1.1930990286
 H    5.3774795480   -2.5043164840    3.2604859352