19

 O    0.3979418474    0.7037941664    0.9878055391
 C   -0.0209376136   -0.2868512683    0.0834071992
 C   -1.5678961641   -0.3785803071    0.0367894120
 C   -2.1370112757    0.1991477106   -1.2698967650
 C   -1.5765339092   -0.5648490222   -2.4636276077
 C   -0.7571625091    0.1550263063   -3.5060311723
 C   -0.0693068146   -0.6896684945   -2.4608524585
 C    0.5992639412   -0.0169854937   -1.2960497964
 O    1.5592310059    0.7185224226   -1.3838846407
 H    1.1768523156    1.1101248672    0.5754257858
 H    0.3796076726   -1.2750408984    0.3836554632
 H   -1.8781242468   -1.4246630844    0.1325801649
 H   -1.9504914629    0.1549883364    0.9109736705
 H   -3.2306155518    0.1657644877   -1.2680915760
 H   -1.8594196565    1.2589183329   -1.3392677658
 H   -2.1482027009   -1.4298096674   -2.7860866937
 H   -0.7609903925   -0.2246069840   -4.5215469108
 H   -0.6644993654    1.2337079643   -3.4327509732
 H    0.3981951101   -1.6158870146   -2.7820274745