14

 C   -0.0146389436    1.4767163386    0.0095990894
 N   -0.0393140314    0.0266675661    0.0009096962
 C   -1.1297484461   -0.8052519895    0.0035194277
 C   -0.6701574973   -2.0788600905   -0.0066523948
 O    0.7100407443   -2.0555887555   -0.0158653823
 C    1.1241363780   -0.7473512691   -0.0118121066
 O    2.2624549055   -0.3743205988   -0.0167321825
 C   -1.4078540492   -3.3257095308   -0.0084335262
 O   -0.9225644000   -4.4336176122   -0.0193571262
 H    1.0335429708    1.7781184893    0.0019043698
 H   -0.5144226511    1.8802717680   -0.8758874101
 H   -0.4981261516    1.8695077957    0.9088900875
 H   -2.1436560773   -0.4391791725    0.0125624837
 H   -2.5082595111   -3.1588999688   -0.0016689157