18

 C    0.0541993456    1.4921898582    0.0492367999
 C    0.4245007633    0.0134094355    0.0185602455
 N    0.2998616454   -0.5209879574   -1.3467322242
 C    0.7086130253   -1.8242051217   -1.5518082121
 C    1.7174188427   -2.4029236559   -2.2367510162
 N    1.6935776754   -3.7869778002   -2.0863226657
 C    0.6629615472   -3.9880905218   -1.3209642399
 N    0.1438592320   -5.1978924914   -0.9259218505
 O   -0.0014266710   -2.8852167860   -0.9343438010
 H    0.6900225033    2.0652825365   -0.6314903043
 H   -0.9886744517    1.6444684260   -0.2530192589
 H    0.1668487268    1.8967592757    1.0592442044
 H    1.4677773523   -0.1239942003    0.3226117612
 H   -0.1946141080   -0.5441403118    0.7391538503
 H   -0.6271911457   -0.3406889996   -1.7199469405
 H    2.4674279102   -1.9086776066   -2.8337902111
 H    0.8064995766   -5.9528295187   -1.0270706961
 H   -0.3174851097   -5.1866090606   -0.0279997209