20

 C   -0.0527055588    1.6355819210    0.0534440725
 C    0.0749159467    0.1249998341    0.0267526039
 O   -1.2139623664   -0.3805161491   -0.2935707220
 C    1.1467066030   -0.5757673499   -0.7963254369
 C    2.3700598847   -0.7657240748    0.0302833375
 C    2.1449803530   -0.1471358215    1.3960904428
 C    0.7006265944   -0.6599740587    1.2258607737
 C   -0.1372947864   -1.0911311663    2.3921722518
 N    1.2281983534   -1.7295886030    0.1809532995
 H    0.9026641561    2.1199161099    0.2651151306
 H   -0.4141782135    1.9927162904   -0.9153685655
 H   -0.7793522940    1.9403890574    0.8131630088
 H   -1.1232479592   -1.3324948196   -0.4250313349
 H    1.1305396643   -0.7543996248   -1.8665957865
 H    3.3087940443   -1.0810720335   -0.4123938475
 H    2.6716865753   -0.7133342606    2.1699956210
 H    2.3145574380    0.9230231456    1.5487917557
 H   -0.3010783594   -0.2481624661    3.0736094155
 H   -1.1157772625   -1.4490695908    2.0603408255
 H    0.3588486770   -1.8891234097    2.9528785244