21

 C   -0.0216182818    1.5328651657    0.0169794523
 C    0.0497073687    0.0233186123    0.0046192856
 C   -0.6160892510   -0.7694687887    1.1047226732
 C    0.8906584825   -0.7709412080    0.9940873696
 C    1.6094417607   -1.8945988921    0.2475307958
 C    1.1776312100   -1.7979237114   -1.2250182782
 O    2.1678185396   -1.9898089624   -2.1947604598
 C   -0.2550012224   -2.0646455888   -1.5977945452
 C    0.2221383734   -0.6401118433   -1.3535702074
 H    0.8278923622    1.9753054824   -0.5165613248
 H   -0.9391756491    1.8940084609   -0.4627728046
 H   -0.0101442851    1.9195030458    1.0409016033
 H   -1.0394057191   -0.1993116856    1.9262158055
 H   -1.1793978465   -1.6669638256    0.8742311485
 H    1.4435240505   -0.2610501739    1.7765900860
 H    2.6901688986   -1.7228605212    0.2758382071
 H    1.4257980693   -2.8851387439    0.6817534486
 H    2.2360773810   -2.9349913255   -2.3673345131
 H   -0.4251938035   -2.3240195686   -2.6380467485
 H   -0.9281879062   -2.5526870262   -0.9019213238
 H    0.2764300182    0.0102191381   -2.2193767301