19

 O    0.0038916871    1.2988026711   -0.4038583677
 C    0.0308500444   -0.0434965454    0.0408441260
 C    0.3397797214   -1.0725935102   -1.0908951414
 C   -1.1676536517   -1.4501192339   -1.1516130441
 C   -1.4143631998   -0.6296867939    0.1492807434
 C   -1.4164307023   -1.4120004684    1.4428930298
 O   -0.3930236171   -2.4223723530    1.5035314857
 C   -0.1607457564   -1.1809580895    2.1811365185
 C    0.7269957173   -0.2217284939    1.4136359219
 H    0.8877212145    1.5260964956   -0.7132710762
 H    0.7601120774   -0.6279640130   -1.9974382343
 H    0.9739216563   -1.8957417503   -0.7583155153
 H   -1.6818333873   -1.0254346996   -2.0158831221
 H   -1.3956727752   -2.5151514765   -1.0885809088
 H   -2.2195521691    0.1079365314    0.1231327068
 H   -2.3478004408   -1.6788962151    1.9363781571
 H   -0.0909275936   -1.2532093960    3.2642021857
 H    1.7549456328   -0.5910749721    1.3260395502
 H    0.7530429621    0.7461847626    1.9267299046