15

 C   -0.0594731998    1.5611208633    0.0739130516
 C    0.1651211209    0.0914270012   -0.0154642695
 O   -0.6821432619   -0.8006558416    0.7387165829
 C    0.7330284752   -0.9269481246    0.9388922657
 C    1.2192375203   -1.8539653844   -0.1905999213
 C    0.6793007527   -0.7718718894   -1.1720462937
 O    0.7805086490   -0.5974835045   -2.3485785169
 C    1.2909676504   -0.7327536231    2.2304650318
 C    1.7920625413   -0.5880650666    3.3139437900
 H    0.7765382555    2.1023769916   -0.3781907966
 H   -0.9729510541    1.8396570954   -0.4609080634
 H   -0.1606338730    1.8653034488    1.1186989500
 H    2.3053821094   -1.9476304232   -0.2749405652
 H    0.7494720310   -2.8386420834   -0.2126700659
 H    2.2263730230   -0.4583813493    4.2747009703