19

 C   -0.0286137440    1.5691055190    0.0965234910
 C    0.0264036610    0.0413104376    0.0547436366
 C   -1.3764826888   -0.5790892128    0.0451383015
 C   -1.3584411884   -2.0872260990    0.1830768899
 O   -2.0812277947   -2.7080794953    0.9198797213
 O    0.6766039594   -0.4411619339   -1.1195435090
 C    2.0756273203   -0.3043417335   -1.1424745113
 C    2.6069838275   -1.0922657214   -2.3295832739
 O    3.7562708586   -1.0717369661   -2.6785339194
 H    0.9736008966    2.0065956492    0.1066335045
 H   -0.5652254396    1.9537881524   -0.7763891618
 H   -0.5459296955    1.9062077431    0.9996397712
 H    0.5792137744   -0.3224383071    0.9377140276
 H   -1.9986045259   -0.1628469423    0.8414668595
 H   -1.8419187243   -0.3325507256   -0.9195468105
 H   -0.6129089503   -2.5997187022   -0.4621329060
 H    2.4050413399    0.7405537524   -1.2408684775
 H    2.5401244706   -0.7062751868   -0.2254372792
 H    1.8309963331   -1.7003486578   -2.8445970645