17

 N    0.3477363719    1.5404228508   -0.3058404217
 C    0.0494174550    0.1344222557   -0.0560628253
 C    0.4197479068   -0.8554803486   -1.2087715540
 C   -0.2464971919   -0.4898822437   -2.4504710068
 C   -0.8297107362   -0.1423832890   -3.4468058532
 C   -1.4795564085    0.2645831874   -4.6940594948
 O   -0.7862133885    1.2938523520   -5.3836642591
 C    0.7179035497   -0.3000825117    1.1797461226
 N    1.2640844283   -0.6737854153    2.1264734522
 H    1.3468476485    1.6668181028   -0.4433484576
 H   -0.1088616563    1.8157011827   -1.1714981858
 H   -1.0313754898    0.0537109218    0.1115587677
 H    1.5086931481   -0.8476493978   -1.3420589836
 H    0.1487155647   -1.8763507288   -0.9132408109
 H   -1.6264136146   -0.6218883727   -5.3310825167
 H   -2.4760231920    0.6678269930   -4.4830942815
 H    0.1108418048    0.9825798114   -5.5441025614