24

 C    0.7982513168    1.5769363444    0.1076725077
 O    0.4693522206    0.2083228641    0.1556849836
 C    0.2064570648   -0.4596900608   -1.0882580414
 C   -0.9403306754    0.2037020520   -1.8621803722
 C    1.4768225083   -0.5406182132   -1.9461695756
 C   -0.2260586183   -1.8587372535   -0.6020752630
 N   -0.5153669751   -2.7735182255   -1.7004243368
 C    0.5013073149   -3.7705075949   -2.0255521531
 C   -0.7521731763   -4.1629445378   -1.3278377365
 H    1.7128353003    1.7769692858   -0.4685176423
 H   -0.0116599144    2.1938763568   -0.3059041153
 H    0.9725287670    1.8885872119    1.1411847975
 H   -0.6369119809    1.1516775493   -2.3159084854
 H   -1.2725835906   -0.4673581136   -2.6575919936
 H   -1.7867339059    0.3933658514   -1.1943405245
 H    2.2946121937   -0.9956558695   -1.3786477186
 H    1.2926490984   -1.1420311622   -2.8398217331
 H    1.7993742589    0.4503208546   -2.2784496682
 H    0.5543992534   -2.2442530577    0.0756779806
 H   -1.1383003273   -1.7362989472   -0.0080415441
 H    0.6372965780   -3.9849062079   -3.0818843558
 H    1.4178807692   -3.7718264965   -1.4378327377
 H   -0.6704227527   -4.4284246585   -0.2747837735
 H   -1.5510886475   -4.6680488315   -1.8635983388