17

 C   -0.0794603519    1.4441426472   -0.0857819309
 C   -0.0229333876   -0.0081890187   -0.0293542939
 C    0.0183575471   -1.2105268628    0.0120235398
 C    0.0847848188   -2.6521028700    0.0574226676
 C   -0.5014553264   -3.3711541202    1.2203270380
 O   -1.1925361267   -3.3395806973   -0.0149295218
 C    1.1633897105   -3.2651424747   -0.6811116408
 C    2.0699797591   -3.7637602623   -1.2963421385
 C    3.1595605340   -4.3683758386   -2.0466173604
 H    0.6928364527    1.8430782024   -0.7522749014
 H   -1.0507092566    1.7848386711   -0.4608801096
 H    0.0703513964    1.8889170341    0.9040675347
 H   -0.0751243046   -4.3323556548    1.5034771967
 H   -0.9384866554   -2.7832832490    2.0260886778
 H    2.7820946372   -5.1150306738   -2.7538068820
 H    3.7089771900   -3.6145248651   -2.6207629642
 H    3.8727972634   -4.8688078274   -1.3825830410