22

 C    0.2552817308    1.5810632219   -0.0838703825
 C    0.0535813173    0.0798111622    0.0586946109
 O    0.6116605497   -0.5630255724   -1.0895863769
 C    1.1362475116   -1.8641111106   -0.7617408058
 C    0.0727265588   -2.9395441689   -1.0227940876
 C    2.3796459830   -2.0706275384   -1.6228055751
 C    1.4333887625   -1.7731760384    0.7322861281
 N    2.2229324224   -0.5767407517    1.0868518221
 C    0.7522727924   -0.5678245383    1.2425174064
 H    1.3233104326    1.8109914117   -0.0748193333
 H   -0.1740129955    1.9328414187   -1.0259102075
 H   -0.2338099997    2.1153929616    0.7373981713
 H   -1.0241451059   -0.1461937252    0.1347439197
 H   -0.2346022320   -2.9108269571   -2.0718369918
 H    0.4593928950   -3.9410276305   -0.8048020343
 H   -0.8140032497   -2.7757581974   -0.4022110240
 H    3.1247396417   -1.3111574295   -1.3781681782
 H    2.8105057710   -3.0627234483   -1.4521847262
 H    2.1234000973   -1.9856665689   -2.6828242010
 H    1.5361039638   -2.6829508569    1.3150848515
 H    2.6521263685   -0.7205662003    1.9978199081
 H    0.3109094743   -0.5114656932    2.2321573362