19

 C   -0.1875714427    1.5467198234    0.1756367837
 C    0.1349507221    0.0529571339    0.0454660212
 C    0.7535681928   -0.3134584520   -1.2691962335
 O    1.5056867590   -1.5261041924   -1.3502329600
 C    2.1583242383   -0.3169423491   -1.7519110885
 C    1.6884555715    0.0069618496   -3.1990843893
 O    1.4847573554   -1.1177186390   -4.0656538440
 C    0.0932646728   -1.2285000292   -3.6629306531
 C    0.2247885026   -0.0203654662   -2.7068861534
 H    0.7142145901    2.1564545750    0.0596688011
 H   -0.9104956862    1.8707477079   -0.5797563325
 H   -0.6175113697    1.7636898383    1.1574706557
 H    0.8259678057   -0.2592302702    0.8361564603
 H   -0.7806103260   -0.5381021882    0.1826471604
 H    3.0953397525   -0.0802616949   -1.2581083687
 H    2.1650763037    0.8645435476   -3.6808814134
 H   -0.5743925014   -1.0578961978   -4.5153070032
 H   -0.1229302562   -2.1945786680   -3.1986318857
 H   -0.4463852444    0.8274339715   -2.8271463270