21

 C    0.0100896032    1.5158090129    0.0303150718
 C    0.0116101387    0.0007862902    0.0206619452
 C    1.3505236495   -0.6559702325   -0.2198569270
 C    0.7352928238   -0.6615421071    1.1676849252
 C    0.7503754934   -2.2178524848    1.1893944154
 C    1.2080164940   -2.9363589112    2.4272326736
 C    0.0534084595   -2.8971746395    0.0599172153
 O   -1.2318494818   -2.5810073668   -0.4078022938
 C    1.3555254241   -2.2036382529   -0.2464148094
 H    0.9454131982    1.9133561623    0.4407240167
 H   -0.1049975205    1.9165460960   -0.9827630519
 H   -0.8126159002    1.9042746659    0.6403246272
 H   -0.8871994043   -0.4572082286   -0.3670176359
 H    2.2073218892   -0.0860339661   -0.5579300065
 H    1.0574322960   -0.0991907504    2.0362450694
 H    0.4597624062   -2.8555027328    3.2262127766
 H    1.3762053154   -4.0003364516    2.2331966174
 H    2.1438838656   -2.5120186223    2.8096276466
 H    0.2143868146   -3.9781838646    0.1182302445
 H   -1.2446526803   -2.7539910112   -1.3558726281
 H    2.2048669258   -2.7643927150   -0.6219510522