14

 O    0.0045249849    0.0188665606   -0.1751251169
 C   -0.0131396617    1.2112150098   -0.0133624092
 C   -1.2687841186    2.0814523398    0.1351577658
 C   -0.7510921072    3.4470403889    0.6115718247
 C    0.6570331067    3.5532146478   -0.0171086904
 C    1.2160796641    2.1256970680    0.0802420900
 H   -1.7272267924    2.1580891788   -0.8602084876
 H   -2.0027421100    1.6023526294    0.7871493204
 H   -1.4024761903    4.2779984400    0.3304487020
 H   -0.6690298543    3.4539019881    1.7049982096
 H    0.5704949830    3.8488270000   -1.0694814978
 H    1.2850952759    4.2977716854    0.4778572863
 H    1.6760959364    1.9476232451    1.0618077102
 H    1.9610195935    1.8591940383   -0.6729922070