15

 C   -0.0852022377    1.5709959778   -0.1273617484
 C    0.0990071932    0.0727042030   -0.0119153258
 O    0.9794910403   -0.3956754825   -1.0252895604
 C    1.3869912408   -1.6712013847   -0.6201345282
 O    1.3729529760   -1.6938083611    0.8117112492
 C    0.7984726217   -0.4781619667    1.2576167988
 C    1.8371378265    0.4283297703    1.7864884516
 N    2.6383440643    1.1443392875    2.2108173722
 H    0.8747349349    2.0866758473   -0.0530431335
 H   -0.5420273230    1.8127036121   -1.0900325479
 H   -0.7436256464    1.9359357990    0.6663423715
 H   -0.8714605137   -0.4440684356   -0.0893054393
 H    0.6985833816   -2.4536145539   -0.9777171648
 H    2.3998755475   -1.8530570839   -0.9926010500
 H    0.0840472541   -0.6922131185    2.0589899250