16

 C   -0.0158579863   -1.1924356630   -0.0321441484
 C   -0.0355009631    0.0090642860   -0.0312497624
 C   -0.0167496797    1.4554718181    0.0170223335
 C   -0.2399843574    2.1900089783    1.3865254571
 C    0.6284681010    3.3125485023    0.7731752911
 C    1.3550383199    2.2169248755   -0.0405795705
 O   -0.1814261212    4.1077923166   -0.1170344985
 C   -0.9149650511    3.3330344885   -0.9514674806
 N   -0.9191578394    2.0652315545   -0.9800450032
 H   -0.0103303311   -2.2541868891   -0.0457716080
 H   -1.2700706414    2.4224833080    1.6607658054
 H    0.2791413215    1.6873984871    2.2034737774
 H    1.1775074192    4.0123158899    1.4000235748
 H    2.1188279773    1.7184396951    0.5574569358
 H    1.7371297457    2.4732365297   -1.0298427183
 H   -1.5258059542    3.9303159325   -1.6229044351