21

 C    0.4779017831    1.2884518724   -0.1988857548
 C    0.0322017971   -0.1018043396    0.2208198624
 O   -1.2492588466   -0.3480386879   -0.3306492198
 C   -1.7596285569   -1.6143703081   -0.0254042927
 C   -2.3248749690   -1.8588268420    1.4143677732
 C   -3.5520550359   -2.4745510509    0.7394281596
 C   -4.2089432913   -3.7516072120    1.0195982493
 O   -4.8561933822   -2.4969665188    1.2834676593
 C   -3.1698215518   -1.8665771610   -0.6110848033
 H    1.4687935204    1.5106889682    0.2081778876
 H    0.5241695244    1.3634272511   -1.2890009684
 H   -0.2249938872    2.0425855560    0.1661779124
 H    0.7470614942   -0.8631701097   -0.1346670575
 H   -0.0027031669   -0.1807148344    1.3194393195
 H   -1.0441752938   -2.4003353915   -0.3107791247
 H   -1.7519904063   -2.4787731045    2.1073104311
 H   -2.5752666256   -0.9057368599    1.8906431403
 H   -4.6365253791   -4.3335074892    0.2035323628
 H   -3.9279994633   -4.3254205944    1.9023629136
 H   -3.6792565706   -0.9123248765   -0.7738056955
 H   -3.2545916726   -2.4849176475   -1.5068014744