20

 C   -0.1790604161    1.5394029840   -0.0186026401
 C    0.0617552608    0.0370392855   -0.0248731645
 C    0.7759674655   -0.5139796690   -1.2883242885
 O    1.9753241712    0.2613066939   -1.5404432840
 C    2.6546947154   -0.5474931259   -0.5462444922
 C    2.3150193307   -0.0019326674    0.8582385385
 N    0.9165428262   -0.4661019817    1.1057297289
 C    1.0477108321   -1.8940428844    0.7185858451
 C    1.6048211972   -1.6892356026   -0.6928513961
 H    0.7222023930    2.0912433534   -0.2919398716
 H   -0.9550008363    1.7957805049   -0.7474132199
 H   -0.5157112076    1.8664277087    0.9688666424
 H   -0.9020202659   -0.4770063538    0.0820728838
 H    0.1555960826   -0.6274409786   -2.1806574635
 H    3.7130545054   -0.6929471110   -0.7738187854
 H    2.9610164679   -0.4353892952    1.6295386893
 H    2.3966799445    1.0848516227    0.9077445747
 H    1.7335815696   -2.4179596421    1.3907488826
 H    0.0757634801   -2.3946675899    0.7452875758
 H    1.8449138837   -2.5363080415   -1.3309783055