15

 C    0.0005399218    1.5155909970    0.0949630158
 C    0.0112019277    0.0307126693   -0.0686557393
 C    0.0053828663   -0.7728953847   -1.1904248316
 C    0.0220556263   -2.1051242776   -0.7062949040
 C    0.0240681313   -3.3804500286   -1.4891860662
 N    0.0371870529   -2.1283804967    0.6242838042
 N    0.0303290067   -0.8257233218    0.9855758047
 H    0.8874046888    1.8741126982    0.6304389603
 H   -0.0143357354    1.9990472030   -0.8838798957
 H   -0.8801714487    1.8592900588    0.6499651458
 H   -0.0088879845   -0.4408981247   -2.2168336809
 H    0.8992868177   -3.4475589084   -2.1450021883
 H    0.0384309744   -4.2339489021   -0.8080275840
 H   -0.8638790298   -3.4620063004   -2.1259726582
 H    0.0389677443   -0.5937508914    1.9642004773