20

 C    0.0410608489    1.5571630005    0.0112114645
 C   -0.0064210951    0.0284495370    0.0142556478
 C    0.6830893108   -0.6280332460   -1.2065597159
 C    1.2268959383   -1.9660866433   -0.6968460478
 O    1.3726131353   -2.9782953787   -1.3349796299
 C    1.4456411064   -1.8112545419    0.7787241010
 N    2.1465602609   -0.5255580710    1.0988250996
 C    0.6869526819   -0.6061053896    1.2324027253
 C    0.0389906999   -0.5150151407    2.5894579276
 H    1.0788769365    1.9024278525    0.0516863685
 H   -0.4188888281    1.9615481148   -0.8959016821
 H   -0.4936465029    1.9799742322    0.8682812533
 H   -1.0544253835   -0.2994011959    0.0365283951
 H    0.0239823365   -0.7792262509   -2.0632410753
 H    1.5339245566   -0.0218954490   -1.5383680502
 H    1.6143096025   -2.6839187974    1.3991146122
 H    2.5757143063   -0.6347678112    2.0162695934
 H   -0.0173706646    0.5246659687    2.9307176774
 H   -0.9810634961   -0.9128403604    2.5650478642
 H    0.6041518795   -1.0825245897    3.3361720714