14

 O    0.0630630957    1.3717485002   -0.0219189560
 C    0.0311502255   -0.0083573937    0.0389552435
 C   -0.3908071218   -0.7378596139    1.2674188002
 C   -1.3281383124   -0.7571877891    0.0347386546
 C   -2.4807275000    0.1005011882    0.0872542930
 C   -3.3865770076    0.8930344218    0.1208433185
 C   -1.4422354514   -1.9732109574   -0.7223062646
 C   -1.5092723278   -2.9963895594   -1.3499799367
 H   -0.8445134538    1.7024841018    0.0384051664
 H    0.7997619950   -0.4595465444   -0.5798200214
 H    0.0892727086   -1.6781765678    1.5117815119
 H   -0.7359766359   -0.1495066729    2.1096659178
 H   -4.2183035911    1.5526706390    0.1594348531
 H   -1.5798719931   -3.8965270222   -1.9086442303