18

 O    0.0217969121    0.0311571215   -0.2899447124
 C    0.0120783720    1.2211216924   -0.0334357014
 C   -1.2439656793    1.9739482970    0.1579010588
 C   -1.2453697440    3.3081634782    0.2502114928
 C    0.0224155023    4.1093586122    0.2947534539
 N    1.1309368127    3.2742912020    0.7393095112
 C    1.2710207753    2.0436592167   -0.0009784457
 C    2.5763893429    1.3115596921    0.0278863967
 C    2.1353783859    1.9404300993   -1.2671077909
 H   -2.1579339775    1.3900764511    0.1248821113
 H   -2.1802446507    3.8619423582    0.2769056584
 H    0.1741819437    4.5697563696   -0.7039024834
 H   -0.0923894027    4.9410496799    1.0000067550
 H    1.9997581124    3.7959727597    0.7374640342
 H    3.3901127470    1.7752256700    0.5765178205
 H    2.5150678681    0.2326210689    0.1092383654
 H    1.7970796419    1.2855331788   -2.0621723421
 H    2.6306731379    2.8500518524   -1.5919123521