23

 C    0.1476318153    0.9038250101   -0.3655528280
 C   -0.1806689172   -0.5865231492   -0.2216522583
 C   -1.6387511132   -0.8453677975    0.0253418735
 O   -2.6196015531   -0.3397924322   -0.9833583177
 C   -3.4287635538   -1.0207164060    0.0521224072
 C   -2.4205724336   -2.1993378173    0.0387331651
 C   -2.3541299676   -3.0994755850   -1.1815469686
 C   -2.5927604656   -0.2782114814    1.1287259018
 C   -2.5316419040   -0.6835665516    2.5929927559
 H    1.2075508777    1.0504394401   -0.5924873369
 H   -0.4427867204    1.3499959968   -1.1702386294
 H   -0.0774651448    1.4504478552    0.5558585236
 H    0.1185511453   -1.1273600780   -1.1280500067
 H    0.3886922987   -1.0276995446    0.6068254314
 H   -4.5100599036   -1.0339383243   -0.0952544701
 H   -2.3498736622   -2.7721376595    0.9673498507
 H   -2.4333184470   -2.5105632308   -2.0974285715
 H   -1.4124469562   -3.6593385736   -1.2056719871
 H   -3.1674238965   -3.8334399971   -1.1675658787
 H   -2.7082278385    0.8036134526    1.0194511298
 H   -2.4189401999   -1.7596623036    2.7461205836
 H   -1.6899583313   -0.1888085253    3.0902168332
 H   -3.4436793381   -0.3695373178    3.1124757074