17

 C    0.3902541546    1.1186827376   -0.9494830249
 C    0.0172954371    0.0689108566    0.0767515402
 O    0.8274085940   -0.4526383713    0.8082756201
 C   -1.4509163243   -0.2754040737    0.1371724307
 O   -1.8130497417   -1.5263951587    0.7127296836
 C   -2.1807820175   -0.3591297438    1.4328184778
 C   -1.5362893348   -0.1516790405    2.7852301269
 C   -2.0657661870   -1.1482383039    3.8011941541
 O   -2.4978607143   -0.8502707152    4.8839858302
 H    1.4419219978    1.3843239811   -0.8414967868
 H    0.2115670827    0.7330219154   -1.9602791781
 H   -0.2357849359    2.0113183198   -0.8357800653
 H   -2.0335416041    0.0056406530   -0.7408516801
 H   -3.2471880838   -0.1285411458    1.3857288095
 H   -0.4569454251   -0.3161206613    2.6896887622
 H   -1.7224667481    0.8604856246    3.1560252753
 H   -2.0138329494   -2.2079721342    3.4681098145