14

 C    0.0886864727    1.4628881339    0.0128854885
 N    0.0105587338    0.0121990734    0.0025257641
 C   -0.0837268461   -0.7422628170   -1.1702057266
 O   -0.1995545178   -0.2973125780   -2.2829273271
 C   -0.0284888683   -2.1974946526   -0.7433789265
 O    1.1915362085   -2.4905559816   -0.0493303364
 C    0.0168039990   -2.2066747609    0.7226515976
 C   -0.0110425062   -0.7563496939    1.1684069646
 O   -0.0568878331   -0.3202212355    2.2897010353
 H    1.1192558159    1.7977632951    0.1649298661
 H   -0.2713657831    1.8250679057   -0.9504027101
 H   -0.5303014239    1.8477599420    0.8249001308
 H   -0.4471703006   -2.9744537356   -1.3718382716
 H   -0.3630205808   -2.9917219450    1.3655841513