12

 N    0.0432123003    1.3838620152    0.1484250192
 C   -0.0783390861    0.0212046933    0.0530452724
 C   -1.1451154261   -0.8318650597    0.0428027431
 C   -0.5295538498   -2.1155934195    0.0034404495
 N    0.7905599076   -2.0456034230   -0.0108711198
 O    1.0700193600   -0.6699588198    0.0207223463
 C   -1.1832840723   -3.3750882193   -0.0205547117
 C   -1.7704469285   -4.4240673263   -0.0406143756
 H    0.9262330922    1.7476628668   -0.1806613925
 H   -0.7503440454    1.9082410482   -0.1866800671
 H   -2.1954246605   -0.6009435707    0.0659246594
 H   -2.2763402314   -5.3578932452   -0.0580106433