20

 C    0.0842646195    1.4797791707    0.1303871439
 N    0.1686517498    0.0380527324    0.0328711255
 C    0.4620489606   -0.5991607048   -1.1257910055
 O    0.6750631642   -0.0320302017   -2.1879487018
 C    0.5002052286   -2.1285958291   -1.0350046726
 O    0.3091089396   -2.5046461636    0.3151051633
 C   -0.4221944603   -2.7817026908   -2.1143853195
 C    0.8203778856   -2.9625652788   -3.0253283062
 C    1.7308837727   -2.7183908224   -1.7934483681
 H    0.8248046517    1.8762682599    0.8343699187
 H    0.2816103711    1.8880733482   -0.8616781787
 H   -0.9117694593    1.7991340305    0.4575308650
 H    0.0226485534   -0.5400499767    0.8447916766
 H    0.2486285752   -3.4632726420    0.3583437140
 H   -0.8113739419   -3.7367736355   -1.7440028879
 H   -1.2523549106   -2.1815231938   -2.4906018203
 H    0.9232034900   -3.9208303067   -3.5383732403
 H    0.9044122580   -2.1479993953   -3.7436181438
 H    2.5942871192   -2.0637107504   -1.9196992680
 H    2.0504639128   -3.6505006903   -1.3155571542