16

 C    0.0294773459    1.4816776840    0.0426352242
 C   -0.1095530495   -0.0231114507    0.0458688532
 O   -0.3280149770   -0.6706129977    1.0440401733
 C   -0.0162522846   -0.6982926560   -1.3172461572
 N   -0.0713700645   -2.1572084362   -1.2952825296
 C   -1.3762583911   -2.2615439673   -1.7264322516
 O   -2.1695909381   -3.1602260286   -1.7571599357
 C   -1.4200355872   -0.7425602407   -2.0660304756
 O   -2.4858638829    0.0077675113   -1.5721587987
 H    0.9639491289    1.7896363615   -0.4383961925
 H   -0.7951214411    1.9059392540   -0.5421969556
 H   -0.0082401744    1.8627698244    1.0635810614
 H    0.8064617118   -0.2834339669   -1.9089193800
 H    0.4230797831   -2.7803377038   -0.6717211026
 H   -1.3196431669   -0.5230460254   -3.1314208278
 H   -2.8635331722   -0.4498287718   -0.8117690053