22

 C   -0.2522703214    1.5312247181    0.6606812327
 C   -0.1024645554    0.0143257450    0.5356501784
 C    0.3305737681   -0.5212834412   -0.8265770667
 C    1.7936667475   -0.8188444874   -0.7876224307
 C    2.3310223604   -0.4802606610    0.6004169332
 C    3.0537882843    0.8595784106    0.7477684928
 C    0.9898575170   -0.7435954697    1.3425544380
 C    0.7150642743   -2.1657960633    0.8087434124
 N    0.8038891586   -1.9207911836   -0.6590446680
 H    0.6025975280    2.0854667966    0.2720520156
 H   -1.1337102517    1.8646053116    0.1017433372
 H   -0.3990798251    1.8252556738    1.7053656105
 H   -1.0751718268   -0.4227390878    0.7994723575
 H   -0.2056995021   -0.2931475606   -1.7408663864
 H    2.4224159455   -0.8275180091   -1.6708878091
 H    3.0413281937   -1.2591698887    0.9094842063
 H    2.5064611127    1.6976877493    0.3152262567
 H    3.2444266597    1.0880739848    1.8017106387
 H    4.0254437030    0.8146956717    0.2434550251
 H    0.9891888500   -0.6055848827    2.4237087005
 H    1.4645842830   -2.9039869181    1.1088128007
 H   -0.2772369331   -2.5500567184    1.0625585147