18

 C   -0.1781664137    1.5502492733   -0.0224808178
 C    0.0784209147    0.0335863911    0.0368991187
 C    0.7872300407   -0.4796710553   -1.1794223927
 C    2.0411902796   -0.9380698553   -1.3036165579
 C    2.4038013152   -1.3673195016   -2.7035739019
 C    1.1220748638   -1.1048109914   -3.5170467878
 C    0.1118578463   -0.5476874418   -2.5046102252
 O   -1.0322074729   -0.2277838255   -2.7405859589
 H    0.7630668132    2.1061795381   -0.0816809598
 H   -0.7813787586    1.7999622664   -0.8985566675
 H   -0.7147276230    1.8849157071    0.8703809556
 H    0.6543557965   -0.2162736790    0.9346834285
 H   -0.8872983950   -0.4799992393    0.1172309449
 H    2.7534787530   -1.0097068588   -0.4867166614
 H    3.2650083359   -0.8006091163   -3.0783805657
 H    2.7064191574   -2.4214898433   -2.7246452423
 H    1.2655491657   -0.3773865957   -4.3215107109
 H    0.7129173014   -2.0074974026   -3.9798178179