16

 O   -0.3570735931    1.2614188305    0.6846222121
 N   -0.1381075452   -0.1193936733    0.5249581583
 C   -1.0986670118   -0.6584592465   -0.0973764666
 C   -2.4279984040   -0.1978074117   -0.6518283266
 C   -2.8052972723   -1.7028962530   -0.8649198841
 O   -3.1505993776   -1.9393627289   -2.2153796432
 C   -1.3276292942   -2.1069102708   -0.4615536479
 C   -3.8168611984   -2.2157328909    0.0504976556
 C   -4.6502002342   -2.6751365280    0.7856154172
 H    0.4230799134    1.5346848348    1.1790667548
 H   -3.0641694473    0.3812067470    0.0193805434
 H   -2.3481125457    0.3188315668   -1.6129319375
 H   -3.4742947133   -2.8442173187   -2.2871595004
 H   -0.7697220140   -2.4294450814   -1.3460522104
 H   -1.2164385816   -2.8432777814    0.3365638762
 H   -5.3898599006   -3.0671054943    1.4395601991