17

 O    0.1402974588    1.3664786529   -0.1047268180
 C    0.0950593591    0.0023356815   -0.0146817605
 C    0.0817179315   -0.8366646529   -1.1090967677
 N    0.0200077641   -2.1530419909   -0.6369336392
 C    0.0031926345   -2.1087367372    0.7171004463
 C    0.0492880558   -0.8116158109    1.1529116336
 C   -0.0469431688   -0.8005742729    2.6553027534
 C    0.2171649548   -2.3197050255    2.9597439886
 N   -0.0236154368   -3.1100151536    1.7102704934
 H    0.1701337244    1.7239047355    0.7866169783
 H    0.1174445446   -0.6155865496   -2.1615401753
 H    0.0814833287   -2.9767510353   -1.2075997715
 H    0.7011455999   -0.1831868641    3.1646323603
 H   -1.0320957447   -0.4708121130    3.0177690462
 H    1.2678256334   -2.4502557140    3.2380424706
 H   -0.3963909012   -2.7091835330    3.7755532579
 H   -0.9276723981   -3.5751000571    1.7515643334