21

 C    0.3997813262    0.9387613610   -0.2340696873
 C   -0.0966733190   -0.4947126694   -0.0601513179
 C   -1.6005811820   -0.6164126117   -0.0101726947
 O   -2.3425359053    0.3461223697   -0.0197469878
 C   -2.2366423095   -2.0137545613    0.0714824848
 O   -3.6077375434   -1.8871453685    0.3363555773
 C   -2.0677707598   -2.8111390787   -1.2360972450
 O   -0.7279654441   -3.2243337443   -1.3836831789
 C   -0.5191665773   -4.0057737322   -2.5391471397
 H    1.4927507936    0.9674017705   -0.2382141130
 H    0.0413986080    1.3668028362   -1.1741662685
 H    0.0390222224    1.5808790274    0.5732871837
 H    0.2635927054   -1.1649731292   -0.8490567982
 H    0.2881095758   -0.9390727728    0.8692157644
 H   -1.7382286820   -2.5818417437    0.8716050665
 H   -3.7845076146   -0.9331893307    0.2703968835
 H   -2.7431495707   -3.6773968097   -1.1732128095
 H   -2.3944159412   -2.1991247600   -2.0936135076
 H   -1.1314006751   -4.9200818653   -2.5226876255
 H   -0.7583221211   -3.4475653552   -3.4573001322
 H    0.5366305635   -4.2855599023   -2.5579992142