14

 C   -0.1636422930   -1.2018836935   -0.2017220810
 C   -0.0804116077   -0.0075762139   -0.0853077451
 C    0.0618609748    1.4351440025    0.0517922943
 C   -0.1785786933    1.9737811688    1.4975402536
 C    1.3710935339    2.0050247512    1.6276934539
 N    1.4697035185    1.9257126232    0.1518913399
 C    1.9863980627    3.1883633720    2.2282390916
 N    2.4639205467    4.1188470326    2.7197854918
 H   -0.2480737456   -2.2551783313   -0.3110560079
 H   -0.5018976678    1.9432418237   -0.7369368974
 H   -0.6174192202    2.9709409871    1.4981281142
 H   -0.7107279225    1.3208081457    2.1859270891
 H    1.7436717122    1.1166429979    2.1540438774
 H    2.1740545113    1.2842013941   -0.1972491744