17

 N   -0.0928407547    1.3295536496    0.1324786616
 C   -0.0042554187   -0.0576242796    0.0756766982
 O    1.0308005528   -0.6561869871    0.3117078163
 N   -1.1857214228   -0.6972290248   -0.2188465641
 C   -1.2491808385   -2.1643994735   -0.2116014655
 C   -2.6320148531   -2.4758165506    0.3709292904
 C   -3.4681136965   -1.2390270986    0.0506152647
 O   -4.6649616777   -1.1529011992    0.0277461334
 C   -2.4979871504   -0.0845484300   -0.2537070710
 H    0.8191053005    1.7598265451    0.1690891825
 H   -0.7394019726    1.7937502618   -0.4871577651
 H   -1.1546076674   -2.5629663180   -1.2305939527
 H   -0.4155466491   -2.5467604564    0.3762459487
 H   -3.1031263476   -3.3800490820   -0.0174283432
 H   -2.5857956341   -2.5645629712    1.4637118844
 H   -2.6089802503    0.7008821957    0.5032556083
 H   -2.7644546896    0.3493373185   -1.2295566568