14

 C   -0.0436518012    1.5256352269   -0.1184964843
 C   -0.0014554399    0.0276907552    0.0175731673
 O    1.2853059467   -0.6069261853   -0.0917758620
 C    0.6433503169   -0.6384620048    1.1551603661
 C    1.1781207370   -0.1361764874    2.4935561412
 O    0.6601369571   -1.3527295098    3.1230921573
 C    0.2277663287   -1.8843129589    1.9235870400
 O   -0.2799618500   -2.9371842963    1.7247789394
 H    0.7845663761    1.9938578746    0.4195645170
 H    0.0255678865    1.8129598487   -1.1722364821
 H   -0.9875698784    1.9161812293    0.2756669800
 H   -0.7963521350   -0.5263127798   -0.4824230704
 H    2.2660250183   -0.0847204394    2.5706683636
 H    0.7090377972    0.7538866970    2.9178220368