19

 O   -0.2659413837    0.4743386846    0.6062100111
 C    0.0532546641    1.4244587309   -0.0576369583
 C    1.4831300137    1.9088968039   -0.2025414984
 O    1.5151001085    2.8891526254   -1.2173212881
 C    2.7748212987    3.5105410692   -1.3748458991
 C    2.6501274683    4.5308965141   -2.5244993518
 C    2.8559223340    5.8982316234   -1.8350429075
 C    2.6385499824    5.5578962409   -0.3567230633
 O    3.1517388065    4.2296367056   -0.2231848643
 H   -0.6853889670    2.0392152055   -0.6185046711
 H    1.8163900126    2.3200204840    0.7615278938
 H    2.1336992473    1.0513193760   -0.4364909643
 H    3.5441670545    2.7408864747   -1.5237094338
 H    3.3887428412    4.3425552557   -3.3056833115
 H    1.6566036245    4.4358587370   -2.9669510097
 H    3.8771028508    6.2586583157   -1.9877071236
 H    2.1687126604    6.6659431192   -2.1976182938
 H    3.1885555608    6.1959936339    0.3382308194
 H    1.5719550325    5.5856054103   -0.0930630357