17

 C   -0.1482364888    1.4193406614    0.8996590059
 N    0.1520695799    0.0205952534    1.1295387735
 C    0.6667814845   -0.7818544813    0.1674008601
 O    0.9247650926   -0.4164039290   -0.9660639315
 C    0.9194497326   -2.2585645177    0.5714019629
 C    2.3674653362   -2.6470880070    0.2011010467
 C    0.6049519964   -2.5755866507    1.9604610752
 C    0.3571402572   -2.8294075011    3.1105938382
 H    0.1057821648    1.6433460355   -0.1370077286
 H   -1.2113128599    1.6286998559    1.0621456953
 H    0.4399992810    2.0657402363    1.5605035735
 H   -0.0154830518   -0.3841760136    2.0375318052
 H    0.2433324747   -2.8336143277   -0.0753152488
 H    3.0824243109   -2.1264237984    0.8441810196
 H    2.5168277331   -3.7225888202    0.3202105183
 H    2.5527688939   -2.3624232153   -0.8356241335
 H    0.1368886125   -3.0714207706    4.1211231079