21

 C    0.0657683818    1.3369629536    0.3105340691
 C   -0.0372517306   -0.1190630704   -0.0925215000
 C    0.7433843762   -0.6099871424   -1.3328562623
 C    1.3704224522   -1.6309580547   -0.3615903454
 C    2.8845765890   -1.6741552704   -0.2243662382
 C    3.3213079127   -2.4924821186    0.9680251583
 C    3.7011118804   -3.9063917809    0.8502894793
 O    4.6935694535   -2.8907400150    1.0074147436
 O    0.7326800854   -0.9930788308    0.7726251666
 H    1.1088202672    1.6679532285    0.3070545026
 H   -0.5043473343    1.9662745569   -0.3818567771
 H   -0.3379846608    1.4847220500    1.3172178278
 H   -1.0907379947   -0.4339053466   -0.1036591443
 H    0.1554640195   -1.0130037214   -2.1585137645
 H    1.4570905435    0.1226298807   -1.7193009387
 H    0.9772020033   -2.6498753321   -0.4944678993
 H    3.3238534035   -2.0952414631   -1.1370015929
 H    3.2618351993   -0.6495358082   -0.1189109742
 H    2.9277230785   -2.1510448524    1.9252190946
 H    3.5772583701   -4.5769561725    1.6995501844
 H    3.6788841643   -4.3891874602   -0.1266538893