16

 C    0.0932571549    1.5000178986   -0.1976012982
 C   -0.0210422919    0.0187065732   -0.0618820869
 C   -1.1035845075   -0.7586950794    0.0740911771
 C   -2.5581060876   -0.4316547336    0.1378180234
 C   -0.6533666488   -2.1712274254    0.1680955154
 O   -1.3108105525   -3.1665766740    0.2960715886
 O    0.7171061243   -2.1961242297    0.0834654403
 C    1.1988151224   -0.8653503651   -0.0624530477
 H    0.7011580051    1.9226146277    0.6118932396
 H    0.5902444389    1.7709047406   -1.1373017513
 H   -0.8835085816    1.9876316280   -0.1779629308
 H   -2.7440826431    0.6416801023    0.0572574041
 H   -3.1008314075   -0.9409313634   -0.6657151379
 H   -2.9907093733   -0.7910288676    1.0776441271
 H    1.7705357726   -0.7892481155   -0.9970651304
 H    1.8821867958   -0.6363219367    0.7662236176