19

 C   -0.2146634607    1.4536002288    0.0079633679
 C    0.0859016671   -0.0344734711    0.1105554387
 C    1.1470085949   -0.6837960125   -0.8632817323
 C    1.9141954028   -1.1965693271    0.3680925353
 C    2.3773845455   -0.1199763236    1.3130213147
 C    0.9300305847   -0.5492964128    1.2987757829
 O    0.5378198284   -1.5305228519    2.2191728452
 C    0.9042612680   -2.7717053032    1.6094540058
 O    2.0416149620   -2.5302988247    0.7745664332
 H    0.7006862583    2.0528344092    0.0600057284
 H   -0.7102382158    1.6883800265   -0.9402978320
 H   -0.8715313833    1.7779044796    0.8217868559
 H   -0.8448888999   -0.6079427890    0.0699704181
 H    0.7318305965   -1.4907926007   -1.4695637739
 H    1.7025089295   -0.0014479459   -1.5145109329
 H    2.9365967438   -0.4785010745    2.1678885836
 H    2.6744764577    0.8542593205    0.9338494142
 H    1.1792390015   -3.4857246477    2.3900463396
 H    0.0675475789   -3.1618332099    1.0072223675