18

 C   -0.1124882992    1.4767147600   -0.0206346434
 C   -0.0347652687    0.0243290883   -0.0170218856
 C    0.0375038574   -1.1821878310   -0.0140088733
 C    0.1146824074   -2.5886523408   -0.0104503948
 C    1.2160429495   -3.4392033771   -0.0084279007
 C    2.6512821470   -3.0129880895   -0.0095752085
 C    0.7113009763   -4.7671116204   -0.0050331440
 C   -0.6646332946   -4.7002073916   -0.0051298392
 N   -1.0195731411   -3.3826868212   -0.0080988149
 H    0.8895355523    1.9200041165   -0.0166218888
 H   -0.6339217526    1.8523734481   -0.9089072975
 H   -0.6426435568    1.8561632611    0.8608302994
 H    3.1850967962   -3.3860258709    0.8724537066
 H    3.1850530486   -3.3906919803   -0.8896417688
 H    2.7308189067   -1.9227384711   -0.0124622342
 H    1.2983165504   -5.6733794857   -0.0027467448
 H   -1.4112666056   -5.4781668629   -0.0031039305
 H   -1.9573002830   -3.0218516114   -0.0094785470