19

 O   -0.6291240742    0.5502564252    0.5262540106
 C    0.2032698025    0.8964194748   -0.2708906411
 C    1.2168552235    2.0027114940   -0.0410113368
 C    1.2385142113    3.0033059475   -1.1760938211
 C    2.0076014404    2.7381215635   -2.4513544565
 C    2.4416514768    3.8502774731   -1.5306700531
 C    1.8922705433    5.2268456331   -1.8556893478
 O    0.5107752093    5.0239726239   -2.1425379165
 C    0.0484254886    3.9429825774   -1.3429445277
 H    0.2848353076    0.4056816468   -1.2684666854
 H    0.9961604263    2.4779002620    0.9207113559
 H    2.2029066331    1.5233971822    0.0376379155
 H    2.6290080107    1.8494947754   -2.4828794567
 H    1.5463900230    3.0052141709   -3.3970498532
 H    3.3726873571    3.7689552452   -0.9816569219
 H    2.0280867468    5.9024536904   -0.9953959916
 H    2.3394057007    5.6961967926   -2.7380082296
 H   -0.8101380410    3.5004096963   -1.8597300441
 H   -0.2883131059    4.2895533256   -0.3510213790