22

 C   -0.2713957148    1.8199374448    0.3627998643
 C   -0.4806201227    0.3023844537    0.3217137865
 C    0.4426818994   -0.4305881620    1.2840677370
 C    0.4905755015   -1.9922200737    1.3470468751
 C   -0.3871297864   -2.8471691417    0.4500379478
 O   -1.7209531577   -2.7379418654    0.9334134867
 C    1.9750750385   -1.8632517742    1.0145366034
 C    2.2082582715   -1.0879413241   -0.2192455971
 N    1.9377331899   -0.3433830709    1.0230912318
 H    0.7617923451    2.0788303363    0.1121087177
 H   -0.9320087185    2.3307293008   -0.3443709333
 H   -0.4781074978    2.2185862662    1.3620463936
 H   -1.5114016807    0.0447903716    0.5913107425
 H   -0.3419192419   -0.0575632964   -0.7045451069
 H    0.2864235591   -0.0240064444    2.2877867826
 H    0.3389459710   -2.3300705226    2.3756893452
 H   -0.3196102901   -2.5181900682   -0.5970822244
 H   -0.0321400487   -3.8905787158    0.4860388816
 H   -2.2968552640   -3.2376920464    0.3474783360
 H    2.7719873016   -2.4081115311    1.5113141157
 H    3.2372778029   -0.9782550213   -0.5484497386
 H    1.4830788229   -1.0903099554   -1.0278106171