21

 C   -0.0183238053    1.5265762514    0.0167903496
 C    1.3080590048    0.8011624087    0.0039207284
 C    0.0161865924    0.0234641366   -0.0018565541
 C   -0.3515692385   -0.7255780915    1.2586243519
 O    0.3174340152   -1.9774713986    1.3459356394
 C    0.2524550441   -2.7821712066    0.2043375699
 C   -1.0422670332   -3.1548016092   -0.4651734484
 C   -0.0637126281   -2.2142965998   -1.1570837419
 C   -0.4000421257   -0.7245225853   -1.2603477650
 H   -0.3206234273    2.0272018522    0.9314304445
 H   -0.3320429932    2.0369045820   -0.8885705767
 H    1.8934433718    0.8254340002   -0.9092875758
 H    1.9022894232    0.8029408136    0.9116851472
 H   -0.0482183897   -0.1710766873    2.1515702032
 H   -1.4441214539   -0.8668095260    1.3132366295
 H    1.0181254623   -3.5475459503    0.2759827383
 H   -1.1546843643   -4.1670644263   -0.8382545101
 H   -1.9620829139   -2.7157835588   -0.0917939334
 H    0.4932472488   -2.6260764066   -1.9924236853
 H   -1.4767451319   -0.5903151107   -1.4307598702
 H    0.1041116924   -0.2904271574   -2.1296161010