21

 O   -0.0522788017    1.3941958273   -0.0348162708
 C    0.0276734290   -0.0192104212    0.0161434196
 C    0.6451309029   -0.5661784593    1.3348036333
 C   -0.0536909170   -1.9362632540    1.5656425789
 C   -1.0337353081   -2.0841577277    0.3738773162
 C   -1.3799669390   -0.6273838188    0.0406865030
 O   -0.4359911590   -2.7084546506   -0.7637641626
 C    0.7976574525   -2.1280238583   -1.1575746990
 C    0.7490301270   -0.5918772153   -1.2187282254
 H    0.8434069690    1.7420601728   -0.1046302326
 H    1.7354507530   -0.6516012219    1.2766002406
 H    0.4130933219    0.1422429677    2.1346715286
 H    0.6383452319   -2.7809973531    1.6121114467
 H   -0.6190492012   -1.9337312841    2.5017484957
 H   -1.9002207285   -2.7046103494    0.6110023012
 H   -1.9762545968   -0.1676176992    0.8362917136
 H   -1.9117138708   -0.5259347016   -0.9080563059
 H    1.6008895811   -2.4408196225   -0.4720286083
 H    1.0306516601   -2.5519055689   -2.1386184311
 H    0.2158147392   -0.2558732352   -2.1143600245
 H    1.7759645944   -0.2061382168   -1.2788920873