20

 O   -0.3358739928    1.4312678913    0.3337802797
 C   -0.0528227260    0.0566954896    0.1239977130
 C   -1.3923571597   -0.6563580569   -0.0287467731
 C   -1.2873966263   -2.1863925105   -0.1537610396
 C   -0.9700201719   -2.9145607873    1.2034247431
 C   -2.4794712964   -3.2307579639    1.3646596840
 C   -2.6937206223   -2.8845870664   -0.1316998284
 C   -0.4329197434   -2.5641723776   -1.2750636624
 N    0.2422183414   -2.8791843428   -2.1602741653
 H    0.4969871449    1.9116238356    0.3429641881
 H    0.5550776685   -0.0973504806   -0.7794501529
 H    0.5083667073   -0.3679776832    0.9722253912
 H   -2.0150009438   -0.4199442724    0.8414711812
 H   -1.9073714551   -0.2540620643   -0.9080202408
 H   -0.3667855261   -3.8113189978    1.0503269553
 H   -0.4956839782   -2.2991660528    1.9706417700
 H   -2.7349696386   -4.2459281076    1.6722136958
 H   -2.9861404474   -2.5319429944    2.0341373129
 H   -3.5370584314   -2.2407725606   -0.3911393040
 H   -2.7164829627   -3.7702923973   -0.7693753980