21

 C   -0.0857557019    1.5145996901    0.0563301549
 C    0.0311427506    0.0218040315    0.0229328672
 C    0.1092767319   -0.8402255770   -1.2256844127
 C    1.1588435166   -1.9261070608   -1.0811473381
 C    1.0350818853   -2.1598953462    0.4127225410
 C    0.6682652259   -0.8677756597    1.1255600222
 C   -0.3886432197   -1.9312608696    0.8912383046
 C   -1.1415256322   -2.7924139224    1.8580904821
 C   -1.0151498767   -1.0493906355   -0.2235971146
 H    0.8975984774    1.9957987108   -0.0177770098
 H   -0.6961660979    1.8790206825   -0.7767861681
 H   -0.5535426444    1.8609354280    0.9855358104
 H   -0.1199228479   -0.3895183782   -2.1850658348
 H    0.9184101574   -2.8214951175   -1.6664806764
 H    2.1592668338   -1.5826354619   -1.3698042774
 H    1.6480024900   -2.8892643762    0.9308259942
 H    1.1137486549   -0.5269010577    2.0516064954
 H   -1.9284694028   -2.2275764155    2.3717773397
 H   -1.6201810459   -3.6401291144    1.3518319020
 H   -0.4728524314   -3.1991210974    2.6242182984
 H   -2.0690904230   -0.9483984029   -0.4499216802