16

 O   -0.3799124588    0.3803906899    0.5974785759
 C    0.1491111542    0.9919091306   -0.2954135594
 C    1.2550865251    2.0023046344   -0.1372575466
 C    0.9867048037    3.4155094246   -0.7187829054
 O    1.1930467826    4.0189620588    0.5704132724
 C    1.4893140264    2.7551567531    1.1986898145
 C    0.5750964477    2.4820519324    2.3990952126
 C    0.8630949822    3.4039635908    3.4965025439
 N    1.1033832128    4.1253409266    4.3662457600
 H   -0.1549975392    0.8326696117   -1.3559629250
 H    2.1638867783    1.5434914423   -0.5422095052
 H    1.7113428217    3.7645569534   -1.4622628621
 H   -0.0282042603    3.5895149070   -1.0982681287
 H    2.5343288260    2.7208399698    1.5296610521
 H   -0.4737310415    2.5824371625    2.1087661376
 H    0.7125145791    1.4526687020    2.7425895336