16

 N    0.0626111453   -1.1792206997   -0.1354779824
 C    0.0217968004   -0.0249357825   -0.1384204171
 C   -0.0278839503    1.4375614200   -0.1225937933
 C    1.3412562118    2.0559721850    0.0278867518
 C    2.3093474782    1.7706456312    1.2080771968
 C    2.9887963853    3.0734022476    0.7879228903
 C    2.8277919582    3.1114099943   -0.7408837857
 O    2.1897790547    1.8999104048   -1.1453305087
 C    1.7143564278    3.5898978498    0.1230502457
 H   -0.4890271319    1.7925407754   -1.0502634612
 H   -0.6656106981    1.7587818382    0.7085706442
 H    1.8123058792    1.8744934699    2.1759901664
 H    2.8660239506    0.8309791400    1.1545274388
 H    3.7432451653    3.6450438185    1.3119884934
 H    3.4892066308    3.6150586234   -1.4321522031
 H    1.1502256230    4.5089771142    0.1986749241