17

 C    0.1457880453    1.5501379289   -0.2007127480
 C    0.0846360830    0.1032250468   -0.0648507631
 C    0.0426764357   -1.0953250165    0.0462114305
 C   -0.0239775579   -2.5335662256    0.1690224457
 O    0.0370765993   -2.9914896511    1.5727406245
 C   -1.2488290764   -3.4884450397    1.5237378454
 N   -1.9751752929   -3.9731009722    2.4227494496
 C   -1.4365776454   -3.1995848183    0.0364661949
 N   -2.5173989776   -2.3848913211   -0.4549873524
 H    1.1506521165    1.8808457783   -0.4840797899
 H   -0.5521649012    1.9025990574   -0.9677680905
 H   -0.1161685850    2.0445314385    0.7409004257
 H    0.7663856400   -3.0238066368   -0.4056394473
 H   -1.5008741041   -3.9833426993    3.3276276522
 H   -1.3860577693   -4.1197218818   -0.5528566960
 H   -3.3890195259   -2.9019105001   -0.3950656204
 H   -2.6219137243   -1.5555814174    0.1219506090