12

 O   -0.0176527398   -0.0305347832    0.0043482233
 C    0.0356093508    1.1610275484    0.0084262842
 O   -1.0824999833    1.9716723323    0.0288639907
 C   -0.7536628294    3.3811737767    0.0315032275
 C    0.7393124315    3.3921515481    0.0110234886
 C    1.1641973493    2.1111157547   -0.0014673084
 O    2.4912111410    2.0176609996   -0.0194058932
 N    2.9898019695    3.3263120486   -0.0196296318
 C    1.9468656459    4.1319636095   -0.0017730869
 H   -1.2143996424    3.8404914447   -0.8489475491
 H   -1.1898715670    3.8314537046    0.9289552775
 H    2.1224317840    5.1980256161    0.0012694977