13

 C   -0.0330184392    1.3796001104    0.0384864312
 O    0.0089876933   -0.0297947003   -0.0075755594
 C    0.6580767228   -0.5207301423   -1.1525488323
 C    0.6221861433   -2.0510895467   -1.0585355682
 C    1.2710224041   -2.6875915749   -2.2000605502
 N    1.7886169741   -3.1744690656   -3.1110240927
 H    0.9774868224    1.8158806011    0.0525742428
 H   -0.5781467745    1.7980774415   -0.8213811531
 H   -0.5526532037    1.6578534139    0.9577810365
 H    0.1533375105   -0.1862386054   -2.0730165652
 H    1.7010114664   -0.1690799831   -1.2030218925
 H    1.1170628724   -2.3684928533   -0.1348259352
 H   -0.4186742918   -2.3855474353   -0.9981999019