17

 C    0.0094612143    1.5461666564    0.0594756679
 C    0.0054837622    0.0464222528    0.0356060391
 C   -1.2159799365   -0.8618517802   -0.0130842014
 N   -0.4283970289   -1.9807703538    0.6784712297
 C    0.6363768425   -0.9673111439    0.9787642724
 C    1.2434747101   -0.7905793990   -0.3641926942
 N    1.0867531416   -2.0461759359   -1.0408146306
 C    0.0726861063   -2.7771588166   -0.4469306374
 O   -0.3863717135   -3.8217936594   -0.8218703377
 H    1.0039289926    1.9382242223    0.2970802516
 H   -0.2843215506    1.9579499918   -0.9129365379
 H   -0.6878142199    1.9332696256    0.8109935313
 H   -2.0135998413   -0.5273184770    0.6546865864
 H   -1.6445325480   -1.1328784998   -0.9845331507
 H    1.1066571556   -0.9047778406    1.9524384638
 H    2.1851120779   -0.2694548676   -0.4839326674
 H    1.3231830455   -2.2097567151   -2.0057382249