18

 O    0.1032646321    1.3571246132    0.0138770425
 C    0.0064113493   -0.0166143440   -0.2089339453
 C   -1.4076925275   -0.5222983007    0.0222144313
 O   -2.3010237118    0.2705550415    0.2339631887
 C   -1.6470937766   -2.0192512856    0.0052551455
 N   -3.0367245809   -2.3201608969   -0.2485313995
 C   -3.4338139278   -3.6582748994    0.1809900279
 C   -4.8695560783   -3.8650142816    0.0285992394
 C   -6.0553758549   -4.0246159501   -0.0753509703
 H   -0.8096372608    1.6601151870    0.1407503327
 H    0.2816991379   -0.2849268023   -1.2448786567
 H    0.6977613892   -0.5720882212    0.4443731244
 H   -0.9965131892   -2.4892841402   -0.7457240127
 H   -1.2795783039   -2.3878662485    0.9881129828
 H   -3.6161326699   -1.6111219317    0.1889302435
 H   -2.8935318180   -4.3945279830   -0.4306211440
 H   -3.1503493977   -3.8727213767    1.2304262024
 H   -7.1024583511   -4.1701188900   -0.1759007127