13

 C    0.0134069178    1.5056247760   -0.0000892276
 C    0.0112860732    0.0019966895    0.0106664146
 N    0.1680007905   -0.6269224932   -1.1616753075
 C    0.1638395298   -1.9588475736   -1.1350512409
 C    0.0051917010   -2.6773506842    0.0472667996
 N   -0.1517506992   -2.0644697088    1.2212247741
 C   -0.1472056349   -0.7320494827    1.1916886904
 H    0.9560542966    1.8830798638   -0.4087764877
 H   -0.7882053408    1.8838571875   -0.6423011027
 H   -0.1208573577    1.9148119037    1.0041375864
 H    0.2909117245   -2.4715065791   -2.0856793494
 H    0.0045894559   -3.7641682925    0.0481657459
 H   -0.2744261366   -0.2208788364    2.1433420148