21

 C    0.0870132621    1.5464724359   -0.0606766406
 C    0.0249004362    0.0181907152    0.0836800371
 N    0.6310229870   -0.4869915061    1.3197702646
 C   -1.4299256502   -0.5498148042   -0.0415321315
 N   -2.1656955104   -0.1007825665   -1.2330814298
 C   -1.4025939515   -2.1136131420   -0.0850832714
 N   -2.6963651545   -2.7686382133   -0.0932786410
 C   -2.1980095147   -0.1257758610    1.1440866812
 N   -2.7596365052    0.2083072327    2.0979513745
 H    1.1234216902    1.8847274560    0.0354615408
 H   -0.2817604945    1.8918079120   -1.0316202683
 H   -0.5001545316    2.0361538315    0.7246276370
 H    0.5796564398   -0.4353208745   -0.7493134832
 H    1.6196572174   -0.2569091439    1.3374900650
 H    0.2127277319   -0.0212881796    2.1219755950
 H   -2.3413774863    0.8979633319   -1.2054380224
 H   -1.6017236082   -0.2855017361   -2.0587244921
 H   -0.8638925544   -2.3767662052   -1.0062041057
 H   -0.8028403639   -2.4728525375    0.7515787205
 H   -3.1431004073   -2.6683382748    0.8134981001
 H   -3.2993516618   -2.3018354307   -0.7658363997