19

 C   -0.0341213354    1.4737001948    0.0029430468
 C    1.2979022487    0.7376929329   -0.0005498481
 C    0.0136671190   -0.0184282844    0.0057737505
 C   -0.5016146114   -0.9454541908    1.1171734763
 C   -1.9994094461   -0.9813781825    0.6745800366
 O   -1.9401877648   -0.9787648782   -0.7580159358
 C   -0.5197250967   -0.9229877001   -1.0939235506
 C    0.0800420965   -2.2605286472   -0.6848231863
 C    0.0851288605   -2.2697066109    0.6538036493
 H   -0.3285909482    1.9828757118    0.9158082015
 H   -0.3429667917    1.9804224232   -0.9058458596
 H    1.8844655187    0.7529891196   -0.9137496715
 H    1.8930753320    0.7550882544    0.9068984002
 H   -0.3343688038   -0.6497415554    2.1526086649
 H   -2.5239639075   -1.8761867879    1.0285547259
 H   -2.5357181515   -0.0884930347    1.0195127709
 H   -0.4285744130   -0.6063229668   -2.1317907681
 H    0.3237466574   -3.0713365719   -1.3586648801
 H    0.3386261472   -3.0935542760    1.3091452671