14

 C    0.8771638546    0.6154176507    0.1430957015
 O   -0.5169851158    0.8930726140   -0.0073380026
 C   -1.3265685543   -0.1469836933    0.1902378111
 C   -1.1567490232   -1.4657741191    0.5134895374
 N   -2.4029175721   -2.0448206443    0.5751672093
 N   -3.3197212268   -1.1853298556    0.3154839775
 N   -2.6847171858    0.0200897488    0.0680534652
 C   -3.3728594133    1.2071497276   -0.2554565734
 O   -4.5612912125    1.2904854446   -0.3475126972
 H    1.1974896467   -0.1424729816   -0.5798552663
 H    1.3950271560    1.5545619743   -0.0483477973
 H    1.0919649339    0.2704321638    1.1602054872
 H   -0.2586155051   -2.0275957409    0.7013846628
 H   -2.6643374824    2.0373907509   -0.4094675951