20

 C   -0.1488627804    1.4598666193    0.0831943435
 C    0.1224959882   -0.0121463845    0.0022235527
 C   -0.1348320615   -0.8955740841   -1.2131181151
 C   -0.1655213487   -2.0417357443   -0.1890874264
 C    1.2683161695   -2.1614828776    0.3491571544
 C    0.9954262422   -0.7887528754    0.9498382728
 C    1.6470506166   -0.2500062792    2.1903412579
 O    1.4818858711   -1.1432784953    3.2804651228
 N   -0.5068160022   -1.0150059704    0.9397645800
 H    0.6119147798    2.0272826999   -0.4650494341
 H   -1.1248986714    1.6905998920   -0.3564018300
 H   -0.1583145755    1.8152104161    1.1165606171
 H   -1.1274868809   -0.6913498907   -1.6246967856
 H    0.6021722695   -0.9355542768   -2.0224721774
 H   -0.8031075244   -2.9128605041   -0.3260321136
 H    1.3492888545   -2.9035450990    1.1467624090
 H    2.0873509996   -2.2876372824   -0.3670300740
 H    2.7274187030   -0.1475200142    2.0358125366
 H    1.2536888531    0.7479754616    2.4321629781
 H    0.5369662381   -1.3370986410    3.3184327813