21

 C   -0.0205384835    1.5436629111    0.0969472300
 C    0.0095807148    0.0100469003    0.0773321985
 C    0.6531746702   -0.5256740673   -1.2085611332
 C    0.7471493969   -0.5534284674    1.2864052767
 O    0.0367094669   -0.1516102504    2.4807688723
 C    0.5685938112   -0.5313126146    3.6432033963
 O    1.5845228321   -1.1763978537    3.7658334616
 C   -0.2467460916   -0.0633945329    4.8363584793
 O    0.3435391810   -0.4840673128    6.0327823134
 H    0.9942548081    1.9540414791    0.0290179066
 H   -0.5933342667    1.9325681934   -0.7505610919
 H   -0.4758623852    1.9194699738    1.0166126949
 H   -1.0236975741   -0.3583361047    0.1279233092
 H    1.6961785247   -0.1989546787   -1.2937414759
 H    0.6407774830   -1.6200318015   -1.2417004414
 H    0.1190297659   -0.1571314403   -2.0891941008
 H    0.7925874864   -1.6466913298    1.2606368840
 H    1.7745063573   -0.1771732023    1.3449221612
 H   -0.3260950423    1.0332474831    4.7902310442
 H   -1.2687947275   -0.4573630870    4.7311261024
 H    1.1376319725   -0.9737060174    5.7705072327