16

 C   -0.4233578000    1.3514758420   -0.1967042719
 C   -0.0519367173   -0.0877867807   -0.0556648825
 C   -0.0174573874   -1.1050236696   -0.9866974890
 C    0.4108151025   -2.2757272987   -0.3038605069
 O    0.6428269294   -3.5210948031   -0.8590880429
 C   -0.4262337012   -4.1768785695   -1.3776811411
 O   -0.3219622435   -5.2295976114   -1.9276758038
 C    0.6306921117   -1.9618647332    1.0139222545
 N    0.3462778763   -0.6232627932    1.1447091365
 H    0.4031271754    2.0189236354    0.0764664142
 H   -0.6909624210    1.5658074780   -1.2334846461
 H   -1.2830825707    1.6203449153    0.4294514365
 H   -0.2531370829   -1.0180530925   -2.0359174288
 H   -1.3698427934   -3.6226034124   -1.2237397561
 H    0.9696547318   -2.5655324915    1.8382962309
 H    0.4217302903   -0.1062598949    2.0035952866