21

 C   -0.2636747779    1.3741938942    0.3691999699
 O   -0.0523130985   -0.0225135479    0.3137920506
 C    0.5250262001   -0.4618055944   -0.8997538781
 C    1.2059069267   -1.8122471262   -0.6488707595
 C    2.4298783193   -1.6821117385    0.2694309498
 C    3.0670133994   -3.0382087593    0.5686602548
 O    3.3816778750   -0.7665019190   -0.2691132218
 C   -0.5422128327   -0.6080548956   -1.9801320333
 O   -0.3051828072   -0.8142359196   -3.1420673751
 H    0.6826162624    1.9268043888    0.2770379272
 H   -0.9459635616    1.7241643944   -0.4203964429
 H   -0.7131121921    1.5937950109    1.3403015280
 H    1.2906615105    0.2449851135   -1.2528285127
 H    0.4797839120   -2.5027354590   -0.2035315663
 H    1.5060605872   -2.2302269491   -1.6177870018
 H    2.1044461679   -1.2165532837    1.2053151520
 H    3.9439203418   -2.9105384908    1.2088948648
 H    2.3612272852   -3.7054252468    1.0736197832
 H    3.3869650170   -3.5320693619   -0.3578481035
 H    3.7617399564   -1.1685977190   -1.0588362717
 H   -1.5841456209   -0.5404745410   -1.5882824236