18

 C   -0.0966065955    1.5209591924   -0.4712815324
 N    0.0628883638    0.1201824090   -0.0928406674
 C    1.2836806673   -0.6433893016   -0.2609899523
 C    2.6253559377    0.0632218726   -0.3772843372
 N    2.6250119121    1.0353670516    0.7224147666
 C    1.7783150836    0.5297922762    1.8052026181
 C    1.2073179345    1.6339461331    2.5953509915
 N    0.7667039111    2.4834897382    3.2428051141
 C    0.7331351575   -0.3436815147    1.0992917388
 H    0.7896509699    2.1435597071   -0.3075782440
 H   -0.3695667241    1.5548824429   -1.5305658842
 H   -0.9295945080    1.9369535295    0.1023577747
 H    1.1838368929   -1.6132438274   -0.7412768221
 H    3.4211105812   -0.6958313604   -0.2998318904
 H    2.7573667634    0.5835508332   -1.3340067673
 H    3.5489395781    1.3012898285    1.0356197899
 H    2.3067949858   -0.1267388017    2.5192617302
 H    0.1984231786   -1.0554976483    1.7218308734