17

 C   -0.3260082577    1.7642930648    0.5718723149
 C   -0.0625138348    0.3809988542    0.0135699851
 C   -1.3026159271   -0.2752017813   -0.5775038280
 O   -0.9308401548   -1.4889785205   -1.2072984872
 N    1.2091221409    0.1743584850   -0.6620786561
 C    0.9629130044   -0.5452752721    0.6134679355
 C    1.8162549966   -0.1494738259    1.7650373763
 O    1.9680795638   -0.8299512665    2.7498751351
 H    0.5994110664    2.2388887828    0.9000081391
 H   -0.7726003203    2.4045628034   -0.1972992768
 H   -1.0168340292    1.7231181016    1.4208527665
 H   -2.0405913591   -0.4431788692    0.2218075210
 H   -1.7519984532    0.4234478236   -1.3022123999
 H   -1.7168404170   -1.8991875291   -1.5774742533
 H    1.0807646122   -0.4891389083   -1.4240530384
 H    0.7228832201   -1.6033177014    0.5709222337
 H    2.3232788890    0.8332187991    1.6475982624