21

 O    0.4393101033    1.2198567310    0.5919377833
 C    0.0552863810   -0.0443389898    0.0787444043
 C   -1.3951837651    0.0028272935   -0.4032079949
 C   -1.5507399466   -1.2614527521   -1.2667789693
 C   -2.5199561040   -1.1247615872   -2.4714424958
 C   -1.6028110605   -1.0673215515   -3.6689584832
 C   -0.3274919175   -1.2852207665   -3.3535409775
 C   -0.1186502719   -1.5054945735   -1.8765461901
 C    0.8268491499   -0.4921203752   -1.1770464034
 H    1.3503832013    1.1550652981    0.8942288255
 H    0.1502352668   -0.8178457670    0.8600837894
 H   -2.1151578687    0.0625132388    0.4174208620
 H   -1.5151829045    0.9051755840   -1.0160231821
 H   -1.8431084305   -2.1020174523   -0.6314656919
 H   -3.2080655584   -1.9773802080   -2.5448973557
 H   -3.1542559703   -0.2321892200   -2.3906006174
 H   -1.9720486678   -0.8802464829   -4.6721081343
 H    0.4954178503   -1.3016517162   -4.0611237891
 H    0.2282275363   -2.5285273238   -1.6848648115
 H    0.9795846153    0.3923763628   -1.8061091396
 H    1.8118213917   -0.9115208221   -0.9477760087