18

 C   -0.0145883314    1.5211002594    0.1130575082
 C    0.0238804869   -0.0009956844    0.0296853443
 C    0.9403179377   -0.6032002488   -1.0931675187
 N    1.7529317222   -1.1934708088   -0.0264186633
 C    1.0385761157   -0.6642382098    1.0171842179
 O    1.1697942138   -0.7001611078    2.2109216204
 C   -1.3351547917   -0.6638507263    0.0884123477
 C   -2.5051895406   -0.0908542732    0.7620129204
 O   -2.3959815011   -0.0693863072   -0.6652721651
 H    0.9680781562    1.9471470565   -0.1078392744
 H   -0.7412797553    1.9249920344   -0.5970018358
 H   -0.2914481321    1.8419605094    1.1212613216
 H    0.4602221009   -1.3351701620   -1.7498970494
 H    1.4640662727    0.1447056275   -1.6965848976
 H    2.6262616596   -1.6994451025   -0.0448871985
 H   -1.2975658016   -1.7519612755    0.0037713164
 H   -3.2671987429   -0.7576278384    1.1621253541
 H   -2.4368571689    0.8790399474    1.2484056816