20

 C   -0.1145105100    1.5384335099    0.1216715033
 C   -0.0029780182    0.0172457673    0.0312531153
 C    0.7224274081   -0.5683616286    1.2529295639
 O   -1.3294336540   -0.4968218644   -0.0354901048
 C    0.7297814819   -0.3994514843   -1.2607144560
 N    0.5224746472   -1.8420644599   -1.6000693700
 C    0.0487850128   -1.5405285151   -2.9797158257
 C    0.0618299658   -0.0498471483   -2.6080400863
 O   -0.2876675684    0.9567588270   -3.1445964387
 H    0.8757483757    1.9988233426    0.1948533329
 H   -0.6214979187    1.9413141052   -0.7573234710
 H   -0.6873833318    1.8101968592    1.0127501702
 H    0.1500700224   -0.3482421185    2.1583586426
 H    0.8102616818   -1.6564338716    1.1629581336
 H    1.7283133707   -0.1496815973    1.3657397675
 H   -1.2257013966   -1.4276902082   -0.2816741681
 H    1.7800636739   -0.0767622326   -1.2361083118
 H    1.3629005071   -2.4055611539   -1.5664935585
 H    0.7563038115   -1.7736623632   -3.7863058922
 H   -0.9266094612   -1.9706646054   -3.2297396564