17

 O   -0.0441846567    1.4709137500    0.1872817151
 C    0.0910526872    0.0665644758    0.0728536865
 C    0.6214819869   -0.5628191705    1.3691591346
 O    0.5438806317   -1.9830872017    1.2955350094
 C   -0.7710665799   -2.4089820332    1.0467302329
 O   -1.2632586526   -1.9241452832   -0.1740586476
 C   -1.3032131435   -0.5009767690   -0.2005219134
 C   -0.7162073184   -3.9316714238    0.9187185261
 O   -1.3080708623   -4.6816552097    1.6437418143
 H    0.8325846630    1.8666405319    0.1692314979
 H    0.7524041686   -0.2158317537   -0.7587357123
 H    1.6726792643   -0.3142983315    1.5426431923
 H    0.0283013767   -0.1831991044    2.2160685797
 H   -1.4366024312   -2.1186090748    1.8787840269
 H   -2.0026430227   -0.1164583448    0.5583413184
 H   -1.6659499311   -0.2080626122   -1.1876004567
 H   -0.0707998000   -4.2765972451    0.0841186659