13

 N   -0.0715492689    1.4185867639   -0.0296271287
 C   -0.0498833094    0.0221438885    0.0149885291
 C   -1.0698060933   -0.9011222305    0.1106798588
 N   -0.6321017005   -2.2245293838    0.1260230897
 C    0.6527157700   -2.0737954083    0.0388939311
 O    1.7547057017   -2.8764463548   -0.0055291174
 C    2.7867838266   -1.9877196672   -0.1010536508
 N    2.4608025081   -0.7358071127   -0.1212839857
 N    1.0900079012   -0.7950200625   -0.0311142427
 H    0.4207893672    1.8451755834    0.7483894835
 H    0.3159154068    1.7911453147   -0.8903067884
 H   -2.1220669024   -0.6691204998    0.1705941597
 H    3.7844475128   -2.3899832107   -0.1518654482