25

 C    0.7838520972   -0.3232453119   -1.4788075498
 C    0.0820342191   -0.0575822457   -0.1403073296
 C   -1.3804900033   -0.4599328517   -0.1022112214
 C   -1.9678693686   -0.9430398321    1.2065537784
 C   -1.8106092651   -1.9048934179    0.0513242331
 C   -3.0306895699   -2.1483029262   -0.8242991836
 C   -3.5926660204   -0.7363891333   -1.1007868697
 C   -2.3710765435    0.2148657382   -1.0618608153
 C   -2.7274444093    1.6601988770   -0.7054165534
 H    1.8470321579   -0.0703495967   -1.4168716578
 H    0.7058200837   -1.3786486200   -1.7612543926
 H    0.3546443818    0.2702943346   -2.2920650374
 H    0.6126815394   -0.6004526272    0.6516547749
 H    0.1774591135    1.0067258779    0.1155232621
 H   -1.2796579059   -1.0547715144    2.0383174018
 H   -2.9629213198   -0.6301858285    1.5070784941
 H   -1.0716629787   -2.6947862054    0.1449362849
 H   -2.7150897537   -2.6260001686   -1.7599743393
 H   -3.7738435902   -2.8080955642   -0.3623293866
 H   -4.1312303850   -0.6762387584   -2.0508287351
 H   -4.3087117767   -0.4520708964   -0.3215097772
 H   -1.9096993037    0.2141121346   -2.0589250816
 H   -3.1693447515    1.7196996980    0.2954589119
 H   -1.8444397178    2.3080779724   -0.7178568482
 H   -3.4501746293    2.0756890059   -1.4160436627