16

 N   -0.0644733678   -1.1386003009   -0.0846698469
 C   -0.0578001495    0.0160935697   -0.0566671206
 C    0.0014322527    1.4695313139    0.0340572113
 C   -0.2140046271    2.1699942018    1.4140497468
 C    0.6448427985    3.3062037388    0.7892665508
 C    1.3738464287    2.2081753243   -0.0346965187
 O   -0.1283998015    4.1043527985   -0.1052789672
 C   -1.1956064568    3.3729381798   -0.6653296612
 O   -0.8492429275    2.0299083442   -0.9670880304
 H   -1.2318304659    2.3693833222    1.7495889914
 H    0.3363321179    1.6479033615    2.1973255397
 H    1.2101837618    3.9834525565    1.4280751300
 H    2.1538812542    1.6971336056    0.5331017303
 H    1.7159267362    2.4780935130   -1.0337890846
 H   -2.0586779979    3.3837045288    0.0163133650
 H   -1.4690904059    3.8497427122   -1.6087347455