21

 C    0.0400813011   -1.1612266463    0.0162197191
 C    0.0094594657    0.0413858250    0.0079669767
 C   -0.0207930026    1.4902758077    0.0075424580
 C   -0.8119663398    2.1153618386    1.1957516440
 C   -1.1099865382    3.5667500751    0.7072055415
 C   -0.4535405041    3.6124575884   -0.6909228936
 C    1.0813529434    3.6122072024   -0.5123763611
 C    1.3854557076    2.1609281091   -0.0272588622
 C   -0.7089397544    2.1820744864   -1.2031293670
 H    0.0643907656   -2.2225311444    0.0209455945
 H   -1.7325627050    1.5527200803    1.3698417056
 H   -0.2292401897    2.0814866663    2.1200320344
 H   -2.1879649219    3.7405726913    0.6372608199
 H   -0.7011572191    4.3296065885    1.3762592697
 H   -0.8233823079    4.4202489417   -1.3253472855
 H    1.5840079599    3.8188598817   -1.4619949936
 H    1.4103391738    4.3733828930    0.2011390700
 H    1.8650180623    2.1248830903    0.9544391110
 H    2.0358409722    1.6308889029   -0.7275680955
 H   -0.2128533717    1.9567770718   -2.1515638580
 H   -1.7687706771    1.9245048500   -1.2856173480