14

 N   -0.1682161763   -1.0970070879   -0.6398671950
 C   -0.0922667723    0.0074937861   -0.3089102184
 C    0.0039357867    1.4132071268    0.1017644627
 C    1.4063250804    1.9593901726    0.0372961262
 C    2.1414789769    2.4143855885    1.1085623619
 N    3.3531509566    2.8422697246    0.6334460206
 C    3.4083990568    2.6661965342   -0.7255619470
 C    2.2138206878    2.1198121696   -1.1268467851
 H   -0.6749355315    1.9922003124   -0.5372260855
 H   -0.3877242133    1.4966039024    1.1213631076
 H    1.8995876919    2.4657640503    2.1582140958
 H    4.0909113501    3.2250836377    1.1978280042
 H    4.2864646725    2.9411540386   -1.2870316943
 H    1.9444011036    1.8532944142   -2.1373917136