20

 C   -0.0036274544    1.5050466811    0.0422844404
 C    0.0043659996    0.0018201450   -0.0209618486
 C    0.6009965397   -0.7864553238   -1.2127879276
 C    1.4415969075   -1.5559097364   -0.1581289100
 N    0.8395576326   -0.7915195402    0.9884228181
 C   -0.4185030951   -1.4423113761    1.4806833048
 C   -1.2566130157   -0.8344498847    0.3298423529
 O   -1.5080155747   -1.7478857897   -0.7313574140
 C   -0.5898518742   -1.5296945259   -1.8052758950
 H    1.0063401647    1.9066443874   -0.0875803431
 H   -0.6434728819    1.9212903690   -0.7447226399
 H   -0.3819557806    1.8568713662    1.0078173139
 H    1.1683836068   -0.2231654718   -1.9561623312
 H    1.2785118266   -2.6386513700   -0.1154667856
 H    2.5169821393   -1.3685428324   -0.2256544089
 H   -0.3992931567   -2.5351119745    1.5239132644
 H   -0.6815796502   -1.0445260341    2.4659198574
 H   -2.1822307912   -0.3128860051    0.5945720730
 H   -1.0655392423   -0.9310527305   -2.5979469401
 H   -0.3261043798   -2.5052442533   -2.2294533510