16

 C   -0.8145863701    0.3767068256    0.3449547618
 C    0.4177170060   -0.0172425636   -0.4636150111
 O    1.0247671173    1.1029787498   -1.0894835088
 C    1.4758596076   -0.7725670692    0.3847437535
 C    1.0138477734   -2.0481045880    0.9034254925
 C    0.6067137154   -3.1114802729    1.3153417560
 C    0.1548493454   -4.3078765225    1.7801336244
 C   -0.2472194137   -5.3695573875    2.1921131493
 H   -0.5368986783    1.0439920330    1.1715200255
 H   -1.5320667809    0.9001418028   -0.2922129553
 H   -1.3000007347   -0.5030169275    0.7760142633
 H    0.1190268958   -0.6735552170   -1.2880933355
 H    1.1552025237    1.7830907096   -0.4191097141
 H    2.3609503066   -0.9210598909   -0.2450923069
 H    1.7889488167   -0.1251264360    1.2169502630
 H   -0.5980966601   -6.3037520556    2.5541234324