18

 C    0.1119777954    1.4460179899   -0.0925421619
 C   -0.0176605307   -0.0755899639   -0.0042095080
 O    0.6564536771   -0.6022862063    1.1291391504
 C   -1.4817573056   -0.4991171579   -0.0324449993
 O   -1.5300233292   -1.9282324511   -0.1163289021
 C   -2.7435652203   -2.4904735824   -0.0547843786
 N   -3.8300219920   -1.8482330047    0.0640187661
 C   -2.6333107528   -3.9980597682   -0.1448165631
 O   -3.6029879001   -4.7090356850   -0.1093696593
 H    1.1655871111    1.7295386594   -0.0360909029
 H   -0.3034395443    1.8318139492   -1.0287453324
 H   -0.4180139641    1.9336850070    0.7352554523
 H    0.4855499512   -0.5366531543   -0.8620303663
 H    0.2910659567   -0.1797508816    1.9148452437
 H   -2.0097507862   -0.1723910196    0.8724028452
 H   -2.0107546969   -0.0693765416   -0.8908893329
 H   -4.5975764025   -2.5234774555    0.0890249625
 H   -1.6012936770   -4.3879958934   -0.2439160436