15

 O   -0.0893529295    1.4850501488    0.1014132669
 C    0.0100411952    0.0883955465    0.0327333947
 C    0.7640495910   -0.3125860964   -1.2331899066
 O    1.1664866323    0.5090533802   -2.0187424539
 C    0.7069504085   -0.4896311784    1.2328557770
 C    0.4136180116   -1.6500293477    1.9221821498
 N    1.3471136423   -1.7596812729    2.8969157960
 N    2.2323948512   -0.7447750539    2.9019650444
 C    1.8506759873    0.0259225498    1.8901857483
 H    0.3004367030    1.8123218682   -0.7255385282
 H   -0.9899536278   -0.3763437223   -0.0533865157
 H    0.9230652996   -1.3996323221   -1.3779780990
 H   -0.3735494110   -2.3777463434    1.8006673444
 H    1.4259955191   -2.4782358010    3.5964717782
 H    2.3856918072    0.9368875746    1.6692823237