14

 N    0.0021815714    1.2711745245   -0.4952812238
 C    0.0169547508    0.0871107427   -0.0907057428
 O    1.0265296750   -0.6862541323    0.4370288063
 C    0.1173461174   -1.8330249130    0.6548196613
 C    0.0447521933   -2.2218011483    2.0443921066
 C    0.0213700523   -2.5596420667    3.1962406977
 C   -1.0363078172   -0.9934688394    0.0233052422
 C   -2.2957901038   -0.6669181314    0.8039281457
 O   -2.8619963994   -1.4447493169    1.5225231112
 H    0.9152013577    1.7191381612   -0.4046439729
 H    0.4409786483   -2.6693675078    0.0297594521
 H   -0.0191407013   -2.8542704912    4.2162890098
 H   -1.3470661727   -1.3714485563   -0.9570543122
 H   -2.6711369017    0.3631050850    0.6272429288