17

 O   -0.1018644897    1.2707374315   -0.2037487279
 C   -0.0598400562   -0.1036561022   -0.1528129089
 C    0.3856584275   -0.9380753396   -1.3857079882
 C    0.6594522136   -2.3801731474   -1.0917811476
 C   -0.7676883819   -1.8962741934   -1.1153727922
 C   -1.2178508214   -1.0340981221    0.1034863789
 C   -0.1764091100   -0.8446526106    1.1839229249
 C    0.6959990549   -1.8613072545    1.8588279621
 O    1.6288125695   -1.5630127001    2.5645384528
 H    0.7828307590    1.6094095136   -0.0196204268
 H    0.6539132543   -0.4520436555   -2.3146594275
 H    0.9337441251   -2.9669560202   -1.9647670771
 H    1.1734966236   -2.7017679782   -0.1934023925
 H   -1.4844068001   -2.2833978545   -1.8271872190
 H   -2.2579455027   -0.7835087590    0.2686082183
 H   -0.5011991435   -0.1004030434    1.9110445263
 H    0.3977462779   -2.9239798844    1.7235925243