19

 C    0.0279828866    1.5394072108    0.0786954394
 C    0.1023739008    0.0114497418    0.0748585072
 C    0.7380065555   -0.5452303376   -1.1932968905
 O    2.0934273095   -0.1035668857   -1.2637799325
 C    2.8044930958   -0.6958534620   -2.3124125207
 O    2.9721782555   -2.0746382510   -2.1206962712
 C    1.7315517645   -2.7579513504   -2.1205238584
 C    0.6431893259   -2.0738153187   -1.2919600766
 O   -0.2779095948   -2.7006960898   -0.8277582333
 H    1.0231022384    1.9787862149   -0.0287759356
 H   -0.5939759285    1.9080557061   -0.7448658396
 H   -0.4072186010    1.9039067149    1.0135862015
 H    0.6883048844   -0.3427757471    0.9305944696
 H   -0.8921112714   -0.4336136496    0.1668118728
 H    0.1911331294   -0.1615966909   -2.0782861089
 H    2.2957706217   -0.5031844460   -3.2773378722
 H    3.8017089879   -0.2528268149   -2.3161380962
 H    1.3360697952   -2.8525210657   -3.1487793410
 H    1.8964348047   -3.7651811491   -1.7326975339