20

 C    0.0085294310    1.4330682473   -0.0044770031
 N    0.0146252585   -0.0075769104   -0.0076717586
 C   -0.0125219248   -0.7988734317   -1.1029289318
 C   -0.0006650339   -2.1383414309   -0.8324744906
 C    0.0386480191   -2.2930457261    0.6031094770
 O    0.0610256451   -3.2872718326    1.3059242617
 C    0.0499071497   -0.8462741123    1.2009362482
 C    1.3412277951   -0.6429246679    2.0009545332
 C   -1.1977236043   -0.6513536149    2.0694021581
 H    0.9071473919    1.8423644368    0.4741537083
 H   -0.0192903013    1.7930225105   -1.0361634884
 H   -0.8678718786    1.8350054583    0.5194962839
 H   -0.0406121125   -0.3289001708   -2.0802733920
 H   -0.0174328415   -2.9374500384   -1.5559511479
 H    2.2190944662   -0.7185616156    1.3525010820
 H    1.3588313981    0.3293945220    2.5044396770
 H    1.4063574483   -1.4302515660    2.7565939543
 H   -1.2169403110   -1.4391520640    2.8271134410
 H   -1.1945030840    0.3207838007    2.5735307945
 H   -2.1087590012   -0.7326566039    1.4691692232