18

 O   -0.2575223969    0.2725791371    0.9058653103
 C   -0.1176299704    1.2361368294    0.1932803557
 C   -1.2410151806    1.8553831997   -0.6966487697
 C   -0.9601052303    3.3850094125   -0.7256139878
 C    0.5204585695    3.4719041135   -0.4021263791
 C    1.3507618245    4.2374161102    0.6483501907
 C    1.9139263370    2.8631143910    1.1745998931
 C    1.0441153770    2.1553722090    0.1261452195
 N    1.4395441089    2.6857600889   -1.2019813542
 H   -1.2368992591    1.4013777376   -1.6941269735
 H   -2.2051614461    1.6071663144   -0.2495915125
 H   -1.2283478462    3.8553967268   -1.6777341297
 H   -1.5386704605    3.8871656549    0.0563641498
 H    2.0767916538    4.9469045341    0.2460480711
 H    0.7223740412    4.7368194820    1.3887090076
 H    2.9879230617    2.7034728673    1.0677683660
 H    1.6085980280    2.6416648105    2.1981951853
 H    0.9362181785    2.1905230614   -1.9345291126