20

 C   -0.0785734566    0.8126772252   -2.0919800718
 C    0.0358560727   -0.3177339645   -1.0913672248
 C    1.3213109277   -0.6379544864   -0.3441869402
 C    2.6035968020    0.1445157926   -0.5329479511
 C    0.1441286445   -0.0537646522    0.3834507643
 C    0.0421681297    1.2754141120    1.1285236615
 O   -0.7252023445    0.6499323246    2.1806975522
 C   -0.6694754106   -0.6399571509    1.5319743551
 H    0.4893966960    1.6956414130   -1.7858547185
 H    0.2904929744    0.5085246489   -3.0775776055
 H   -1.1225737162    1.1231090026   -2.2107354260
 H   -0.5601615407   -1.1906671770   -1.3526682821
 H    1.4831116166   -1.6996701143   -0.1649984378
 H    2.4201629242    1.2146568165   -0.6636328350
 H    3.2601908385    0.0313436911    0.3368129592
 H    3.1556278485   -0.2052456257   -1.4121804987
 H    0.9854142603    1.6946371040    1.5040740565
 H   -0.5248523989    2.0708457216    0.6262523814
 H   -1.6702147278   -1.0126664076    1.2731895570
 H   -0.1582484199   -1.3893313637    2.1520112345