23

 C    0.2470452201   -1.4019923569    0.8959071155
 C    1.6714709808   -1.5106708662    0.3310572783
 C    1.7060772328   -1.2519448758   -1.1450568609
 O    0.9721221298   -2.1923948446   -1.9579370996
 C    2.0321778156   -2.1939327319   -2.9496687032
 C    2.7868982494   -1.1056315779   -2.2057989092
 C    1.8546501037    0.0619361523   -1.8774469204
 C    0.7923887263    0.5469626672   -2.8450088685
 C    2.5482474522    1.1785836586   -1.1147231782
 H   -0.1509962268   -0.3897193479    0.7717187090
 H   -0.4241859218   -2.0925724156    0.3779210873
 H    0.2306570177   -1.6443558562    1.9626094435
 H    2.3343197472   -0.8046940735    0.8412399231
 H    2.0673458638   -2.5153379614    0.5235425484
 H    2.5488290510   -3.1609077913   -2.9555525263
 H    1.6621483058   -1.9709758681   -3.9577418157
 H    3.8630577722   -1.0305601990   -2.1094998005
 H    0.1989373958   -0.2812160760   -3.2363133028
 H    0.1042033168    1.2341753701   -2.3393002026
 H    1.2396256607    1.0890665800   -3.6863320867
 H    3.0068060794    1.8880945317   -1.8133703262
 H    1.8374908135    1.7377470309   -0.4956009485
 H    3.3423880540    0.8047570218   -0.4615921757