19

 O    0.4583740397    0.5624030620   -1.1405002613
 C    0.0643007279   -0.2904875385   -0.1069280716
 C    0.0859860296    0.1701379644    1.3841858942
 C   -1.2515475249   -0.5955207454    1.6184710900
 C   -2.4952634098    0.3116759901    1.6770050538
 C   -2.5429502559    0.3429096169    0.1041218372
 C   -2.3180227509    1.6326101297   -0.5259147477
 C   -2.1549690934    2.7233305988   -1.0115122880
 C   -1.4063476977   -0.7495306692    0.0606995667
 H   -0.1356059728    1.3237423872   -1.1385075731
 H    0.6824928723   -1.1890558381   -0.2114582632
 H    0.9493557401   -0.1542439401    1.9690412413
 H   -0.0211365093    1.2533289128    1.4991644607
 H   -1.2051455345   -1.4516964453    2.2907091913
 H   -3.3776633231   -0.1847857888    2.0881463804
 H   -2.3720462144    1.2785012791    2.1707915626
 H   -3.4826384352   -0.0652125454   -0.2788038654
 H   -2.0242731040    3.6807243716   -1.4527321222
 H   -1.7078043438   -1.6705063619   -0.4399399758