13

 C   -0.0113990905    1.4722421890    0.0095882304
 N   -0.0475198262    0.0170249211    0.0012846394
 C   -1.2127508852   -0.6898958072    0.0045944819
 C   -1.1858142962   -2.0388974861   -0.0030741476
 C    0.0978436004   -2.7150967874   -0.0147475600
 O    0.2620764140   -3.9156482274   -0.0223354909
 N    1.2558058387   -1.8513014477   -0.0172291820
 N    1.1708656945   -0.5933351513   -0.0096946851
 H    1.0371217779    1.7673021016    0.0029224641
 H   -0.5106649210    1.8757461683   -0.8764176890
 H   -0.4963314782    1.8653481959    0.9081606142
 H   -2.1239077356   -0.1008336027    0.0134985256
 H   -2.0953440924   -2.6250528962   -0.0007376811