17

 O   -0.1020768163    1.4142976945    0.0319657826
 C   -0.0020852765    0.0335746464   -0.0110115323
 C    0.3248348715   -0.7993326168   -1.3066837717
 C   -0.3373545550   -1.9464504410   -0.4675612538
 C    0.6006308509   -2.0135715026    0.7365750190
 C    0.8205824522   -0.7281875032    1.0373954785
 C   -1.2999400503   -0.8262893031    0.0407646409
 C   -2.5106263526   -0.7807004860    0.8414105050
 O   -2.5005997106   -0.4733307428   -0.5791073783
 H    0.7846293189    1.7890684328    0.0082627464
 H   -0.2800925704   -0.4903415795   -2.1634913293
 H    1.3781150731   -0.9256684599   -1.5683281040
 H   -0.7067223695   -2.8613951362   -0.9237208037
 H    0.9311954051   -2.9096109342    1.2426231990
 H    1.3657799693   -0.2796051193    1.8566511025
 H   -3.0285961167   -1.7002592958    1.1081777412
 H   -2.7001331831    0.0728537867    1.4893511478