22

 C   -0.0503286264    1.3867799213   -0.2503699502
 O   -0.0618936144   -0.0198065658   -0.2882421478
 C   -1.2830404176   -0.5699802676    0.1684521064
 C   -1.1837681246   -2.0574786098    0.1637710592
 N   -1.2565210628   -2.8438571929   -1.0923725030
 C   -2.2396112128   -3.0941094074   -0.0116387629
 C   -1.5475667731   -4.0386426078    0.9759705773
 C   -0.4340740512   -2.9426943123    1.1813696450
 C    1.0160945325   -3.2936769259    0.8857178505
 H    0.9265272541    1.7160042768   -0.6122989688
 H   -0.8324240245    1.8206646872   -0.8944084997
 H   -0.1995382308    1.7710145408    0.7716569083
 H   -1.5018157656   -0.2092285780    1.1889771726
 H   -2.1200868241   -0.2426427353   -0.4755567616
 H   -1.7078000384   -2.2514635878   -1.7896509668
 H   -3.3017902992   -2.9756024002   -0.1927828315
 H   -2.1264059354   -4.2306576489    1.8820576237
 H   -1.2165645173   -4.9865941652    0.5437576685
 H   -0.5290232295   -2.5072789264    2.1819864952
 H    1.1084858189   -3.6969409279   -0.1259201434
 H    1.6511157572   -2.4045707568    0.9571573859
 H    1.3936295949   -4.0403231002    1.5930853132