18

 N    0.6345160015    0.0091800844    0.7646440854
 C   -0.2259294577    0.3684255036   -0.2171139547
 O   -0.0547893903    1.2971878847   -0.9851194333
 C   -1.4842298772   -0.4949771601   -0.3168355603
 C   -1.6667230410   -1.0256032350   -1.7419914033
 O   -2.8219725393   -1.8440726760   -1.8178352328
 C   -2.7427261806   -2.9255515891   -0.9051383610
 C   -2.5700466618   -2.4106771929    0.5193625624
 O   -1.4205426950   -1.5760640532    0.6077036538
 H    1.4857920773    0.5319981030    0.8828987890
 H    0.4288252920   -0.7839733969    1.3476797731
 H   -2.3457682913    0.1481017238   -0.0745700842
 H   -1.7998775893   -0.1951904259   -2.4360277575
 H   -0.7707996398   -1.5969232468   -2.0348984424
 H   -3.6716400257   -3.4954046949   -1.0025485365
 H   -1.8958715778   -3.5829067891   -1.1627674349
 H   -3.4660665971   -1.8460904126    0.8213212189
 H   -2.4177049568   -3.2341692372    1.2232048385