21

 C   -0.0466557041    1.5185609482    0.1108348851
 C    0.0247096219    0.0058378975   -0.0251908035
 C    0.7755246979   -0.4601484742   -1.2780321182
 C    1.1083698894   -1.9252601147   -1.1911190672
 C    1.0352183606   -2.5964174682   -0.0437656691
 C    1.3254158586   -4.0652339030    0.0853533285
 O    1.5283269564   -4.6442796057   -1.1895666959
 C    0.6433081430   -1.8961618163    1.2359996173
 O    0.6756057072   -0.4888035868    1.1424568529
 H    0.9609504994    1.9386721796    0.1899122490
 H   -0.5394736124    1.9600328986   -0.7608415234
 H   -0.6059413004    1.7983080285    1.0075812172
 H   -0.9986203694   -0.4079271353   -0.0621293524
 H    0.1622218160   -0.2624597971   -2.1668514215
 H    1.6931696600    0.1334661384   -1.4028925053
 H    1.4095396963   -2.4436439333   -2.0950179726
 H    2.2127245646   -4.2001337728    0.7298824611
 H    0.4870631335   -4.5530595970    0.6160455874
 H    1.8048408371   -5.5557025292   -1.0619392104
 H   -0.3597022172   -2.2403074207    1.5547942976
 H    1.3353748316   -2.1613650465    2.0461316535