15

 C    0.0170522161    1.5150585530   -0.0956439445
 N   -0.0045942016    0.0592488760    0.0660737627
 C   -1.1567713110   -0.5824210768    0.8189384035
 C   -0.2111129890   -1.8076530657    1.0160230554
 C    0.0828780629   -2.6020279256   -0.1664333705
 N    0.3066744856   -3.2979210653   -1.0613494903
 C    0.6929538004   -0.5604919665    1.2641604884
 C   -0.4909005704    0.0279190667    2.0880492384
 O   -0.7130726616    0.7874755828    2.9736865861
 H    1.0097002998    1.8012580684   -0.4534719454
 H   -0.7104407797    1.7808662867   -0.8672677561
 H   -0.2092797276    2.0851599284    0.8170980913
 H   -2.1777789478   -0.5743842833    0.4446445927
 H   -0.4123195504   -2.4389257804    1.8830671205
 H    1.7719927042   -0.5275614185    1.3953389879