18

 O    1.1265774067   -0.3181892118   -0.3129573933
 C    0.5324175286    0.7046863514   -0.0868222127
 C    1.1551883626    2.0617779625    0.0652857011
 C    0.5313635420    3.2107437081   -0.7976392938
 C    0.5153447995    4.0919606058    0.4564837196
 C    1.2048489192    5.4176001723    0.5964263069
 C   -0.2991349813    5.3155570149    0.7369678794
 C    0.7550617714    2.8678827905    1.3474242976
 H   -0.5796384843    0.7075859356    0.0301260034
 H    2.2358254403    1.9805780002   -0.0604341395
 H    1.1264309151    3.5458934091   -1.6504823316
 H   -0.4753993890    2.9573231269   -1.1499091876
 H    1.7904729754    5.5985489107    1.4924666384
 H    1.6036769927    5.8847822203   -0.2987067194
 H   -0.9152258427    5.7149766786   -0.0627113861
 H   -0.7284931074    5.4288658314    1.7276267294
 H   -0.1678518139    2.4859143541    1.7993379173
 H    1.5200015252    2.9426212394    2.1239912608