15

 N   -0.4706431372    1.1571470689    0.2285673437
 C    0.0436532696   -0.1798797460   -0.0912428840
 C    0.9345029184   -0.2004180492   -1.2815925921
 N    1.5996027345   -0.1581083108   -2.2258481389
 C    0.7315748083   -0.7707259386    1.0575516508
 C    1.2925804340   -1.2584349637    2.0032978605
 C    1.9856784516   -1.8475962864    3.1173785088
 C    1.6234641520   -1.5198132333    4.5114792647
 O    1.2503507147   -2.7657742443    3.9399365489
 H    0.3060526237    1.7737344014    0.4498200880
 H   -0.9334983656    1.5441457083   -0.5894874083
 H   -0.8224661796   -0.8097932975   -0.3364616915
 H    3.0109045693   -2.1554857118    2.9164983311
 H    2.3955816862   -1.5612979140    5.2783887501
 H    0.8085135099   -0.8221657631    4.6932357083