19

 O   -0.0345771292    0.0442786025   -0.6384630009
 C   -0.0445499549    1.1709427619   -0.1885942109
 C   -1.3637372245    1.9199322371   -0.0098263762
 C   -1.7029799254    2.5076470867    1.3695646264
 O   -0.8734855941    3.6070258618    1.6966123244
 C    0.0300640289    3.4080228870    2.7626337786
 C    1.0063919754    2.2368143606    2.5375963577
 C    1.7319599035    2.3169537508    1.2220429798
 C    1.2602545374    1.8777982083    0.0557845050
 H   -1.3534455601    2.7591271866   -0.7185415788
 H   -2.1571458133    1.2298164279   -0.3136756921
 H   -2.7365908811    2.8736332845    1.3285999080
 H   -1.6712474136    1.7320349234    2.1458344570
 H    0.5810540972    4.3499898959    2.8500522042
 H   -0.5084651619    3.2452244628    3.7102075135
 H    1.7203800966    2.2323809278    3.3685329372
 H    0.4575656494    1.2912957177    2.6064700955
 H    2.7217120836    2.7680856449    1.2380079317
 H    1.8881739460    1.9292555721   -0.8310990901