17

 O   -0.0382019237   -0.0240148480    0.0423148674
 C    0.0233473117    1.1874938724    0.0738759496
 N    1.1770216563    1.9009377600    0.1131951873
 C    2.5034964939    1.2927987735   -0.0307097447
 C    3.3298600084    2.4250672564   -0.6335739581
 C    2.4623471275    3.5476453024   -1.0313377115
 C    1.3150943746    3.3409253119   -0.0056836640
 C    2.3320563829    3.8549297807    1.0465770582
 N    3.4709523448    3.7382976709    0.0721983934
 H   -0.8690884228    1.8453185600    0.0813374842
 H    2.8957908278    0.9437305563    0.9315503750
 H    2.4459399193    0.4286270079   -0.6989732178
 H    4.2145589437    2.1730462913   -1.2056580880
 H    2.4678393626    4.1003516877   -1.9625163205
 H    0.3550529159    3.8429845894   -0.1145365796
 H    2.2001094677    4.9118420037    1.2887767906
 H    2.4329892394    3.2744521534    1.9693370285