13

 N   -0.0676762452    1.1355943736   -0.1118850851
 C   -0.2529880208   -0.0923094141    0.0927792272
 O   -0.5874955720   -0.8960483210   -0.9475994668
 C   -0.8085751187   -2.2511650422   -0.6572852705
 C   -2.1124049801   -2.4999463913    0.1071063755
 O   -2.7617496875   -1.6080210142    0.5991198081
 C   -2.4772503881   -3.8999721661    0.2137973374
 C   -2.7476459387   -5.0710637416    0.2786787241
 H    0.1898016775    1.5991856052    0.7566857458
 H   -0.1557745652   -0.6254884196    1.0465318065
 H   -0.8453213859   -2.7806596873   -1.6138690827
 H    0.0144687330   -2.6962025800   -0.0754263010
 H   -3.0050179383   -6.1006223614    0.3487080514