23

 C    0.0222763028    1.5646570958    0.0122418435
 C   -0.0512361597    0.0214890898    0.0164645086
 C   -1.5338045563   -0.3987048358    0.1418657556
 C    0.5567796264   -0.4754513490   -1.3174063263
 C    0.4220480021   -1.9638289296   -1.6612292896
 C    1.1473675066   -2.9330158499   -0.7759966334
 C    1.5507930785   -2.7650335367    0.4921964536
 C    1.3697555969   -1.6325925440    1.3963382317
 C    0.7060265213   -0.4793422544    1.2265347147
 H    1.0558607457    1.9111233886   -0.0934212059
 H   -0.5605721739    1.9806477021   -0.8162059270
 H   -0.3770958824    1.9793956789    0.9439349116
 H   -2.1081353083   -0.0465639400   -0.7240665090
 H   -1.6392338752   -1.4842855098    0.2094376965
 H   -1.9844681194    0.0322325441    1.0419605711
 H    0.0828119065    0.0919218115   -2.1284212826
 H    1.6190892656   -0.2045810337   -1.3318561945
 H   -0.6404265021   -2.2455900484   -1.7141477030
 H    0.7910456214   -2.1024501904   -2.6865893127
 H    1.3690574644   -3.8931781035   -1.2386128903
 H    2.0796144736   -3.6023142263    0.9435349117
 H    1.8301463399   -1.7775511562    2.3719582631
 H    0.6856484956    0.1992001569    2.0783407926