14

 C    0.0404228819    1.5104534824    0.1129781014
 C    0.0009681402   -0.0011906767   -0.0009752995
 O    0.6856854500   -0.5361357132    1.1462849181
 C    0.7560507002   -1.8748130561    1.2250410898
 N    0.2496920318   -2.6397345031    0.3410441514
 C    1.4582571244   -2.3037935508    2.4054062211
 C    2.0366279905   -2.7146682006    3.3758671081
 H    1.0715161966    1.8745601919    0.1283264454
 H   -0.4715518313    1.9589471021   -0.7435323360
 H   -0.4566690659    1.8466912052    1.0272019337
 H   -1.0230274113   -0.3888271653   -0.0160630453
 H    0.4953471416   -0.3610999110   -0.9093370459
 H    0.4093152048   -3.6149951314    0.5825728627
 H    2.5485776064   -3.0737966634    4.2348543850