16

 C    0.0373939947    1.4147567920    0.0500724059
 N    0.0218954608   -0.0322417778   -0.0086593003
 C   -0.0757727876   -0.8187451970   -1.0974722352
 C   -0.0379453007   -2.1322014019   -0.6567841571
 C    0.0819075677   -2.0128797762    0.7486009992
 N    0.1183338255   -0.7443988469    1.1382824224
 C   -0.1234816202   -3.3022545816   -1.5528209282
 N    0.0267653624   -4.5280213274   -0.9495101926
 O   -0.3419463537   -3.1926792106   -2.7476813299
 H    0.9861888092    1.7655264683    0.4641895804
 H   -0.0870206273    1.8104513482   -0.9587340410
 H   -0.7779408392    1.7707830515    0.6842913474
 H   -0.1645123436   -0.4258034878   -2.0970584910
 H    0.1265154252   -2.7928952266    1.4956873354
 H    0.4749808566   -4.6046905534   -0.0520638925
 H    0.1152492002   -5.3149916827   -1.5729737729