20

 C   -0.0175975471    1.5154839368    0.0275456817
 C   -0.0091743528    0.0080074756   -0.0038490162
 C   -0.6311021474   -0.8259248622    1.1011165166
 C    0.8557057115   -0.8822801608    0.8553239433
 N    1.3968797295   -1.9130902293   -0.0524361784
 C    0.2826944171   -2.2531704482   -1.0520816019
 C    1.3535656569   -2.4281385437   -2.1417070723
 C    1.7118070288   -1.1591533738   -1.3604212398
 C    0.1970887175   -0.7236403423   -1.3273736425
 H    0.8202269227    1.9303663522   -0.5456394640
 H   -0.9422016594    1.9260232589   -0.3957370809
 H    0.0659141521    1.8889207974    1.0533619830
 H   -0.9415395299   -0.2880236651    1.9924690565
 H   -1.2612934650   -1.6769932327    0.8692798907
 H    1.5502481607   -0.5119822966    1.6008555820
 H   -0.5202108963   -2.9447318789   -0.7933463240
 H    2.0269789470   -3.2766244984   -2.0145045164
 H    1.0279102349   -2.2996748651   -3.1752328197
 H    2.5942094147   -0.5208408687   -1.4426132753
 H   -0.3003754257   -0.3479142450   -2.2255967723