15

 O    0.1464533514    1.3746541130    0.2291507488
 C    0.1272686511   -0.0234581177    0.1139383494
 C   -1.2772849499   -0.6805124998    0.1666741688
 C   -2.4578257375    0.2840885562    0.1950183502
 C   -3.7337518440   -0.3947258844   -0.0170883724
 N   -4.7406521157   -0.9378346242   -0.1758048330
 O   -1.0547581022   -1.2440678762   -1.1701633122
 C    0.1513901972   -0.5895516599   -1.2940313114
 N    0.9446727987   -0.4604308793   -2.2531003851
 H    0.7622100313    1.7105617380   -0.4328599186
 H    0.8490112747   -0.4984942568    0.7902251680
 H   -1.3969718915   -1.4866452381    0.8931492581
 H   -2.4752925724    0.7908413198    1.1665455333
 H   -2.3180845439    1.0604016274   -0.5619507687
 H    0.6215902627   -0.9398062180   -3.0947754251