17

 O    0.4069344202    1.3547357432   -0.4283875202
 C    0.0591902920    0.0720157511   -0.0296653760
 C    0.2873354596   -1.0011158981   -1.0986679383
 O   -1.0062392153   -1.5987978466   -0.8476566551
 C   -1.3880727906   -0.5589064671    0.0720030194
 C   -1.0811430770   -0.9217562487    1.5240469952
 C   -1.9822326872   -0.9031707412    2.6800060457
 O   -1.4653936254   -2.1276774445    2.1444661413
 C    0.3622816224   -0.3957297681    1.4256404770
 H    0.2951634662    1.9570835182    0.3142142854
 H    0.3474997608   -0.5788689348   -2.1091347579
 H    1.1141469911   -1.7023489823   -0.9383498400
 H   -2.3402168047   -0.0877646477   -0.1859577551
 H   -1.5954288358   -0.6189106530    3.6583377520
 H   -3.0503716571   -0.7448810786    2.5353789270
 H    1.1475173368   -1.1496189008    1.5251990793
 H    0.5810813938    0.4297377091    2.1118444500