16

 O    0.1119330501    1.3572945183   -0.0445531485
 C   -0.0472758470   -0.0231916400    0.0173780723
 C   -0.5045019183   -0.7887694166    1.2607656512
 C   -1.1946200121    0.0219246127    2.2898248214
 N   -0.9058821592    0.0954339102    3.5144274372
 O   -2.2136108632    0.7411243501    1.6862781405
 C   -2.5532877799    0.1647418974    0.4117327961
 C   -1.3735719219   -0.7110545167    0.0099533720
 O   -1.6389442806   -1.8361740245   -0.7597815986
 H   -0.4687992674    1.7712884821    0.6052488700
 H    0.7446539196   -0.5216430955   -0.5327859395
 H    0.0319992288   -1.6768913931    1.5633793450
 H   -1.5656061180    0.7029878069    4.0034035003
 H   -3.4538629284   -0.4517431760    0.5079908667
 H   -2.7491347149    0.9878312691   -0.2828791233
 H   -1.5249014577   -1.6043416644   -1.6878958626