18

 N   -0.1182971097    1.3271204398   -0.0273562531
 C    0.0562297504   -0.0257876138    0.0140305854
 O    1.1584535389   -0.5401009313    0.0426721545
 C   -1.2368301784   -0.8341734988    0.0147039652
 C   -0.9660645328   -2.3305845188   -0.0061350135
 O   -2.2189706632   -2.9888775746    0.0077446679
 C   -2.0833254030   -4.3956582607   -0.0075597595
 C   -3.3977692946   -5.0245968343    0.0084395465
 C   -4.4679856158   -5.5689157761    0.0211690124
 H    0.6976853640    1.9152883170    0.0093676664
 H   -1.0270551154    1.7547997378   -0.0055228527
 H   -1.8275746152   -0.5808483256    0.9033728519
 H   -1.8493772514   -0.5566460342   -0.8511731818
 H   -0.3886452433   -2.6022089823   -0.9025942404
 H   -0.3583111354   -2.6199456296    0.8638303046
 H   -1.5276709014   -4.7209308977   -0.9040402259
 H   -1.4982044026   -4.7372662256    0.8637145914
 H   -5.4169575610   -6.0452787712    0.0325265707