21

 C    0.2083791256    1.5397084392   -0.1973088073
 O   -0.3083157525    0.2802693678   -0.5671872099
 C    0.6456088065   -0.5661036952   -1.1447166312
 C    1.6908594914   -1.2368060959   -0.1938343922
 C    1.3007028839   -2.5779400850   -0.8314950211
 O    1.7981305245   -3.6675809835   -0.8434473412
 C    0.0798075300   -1.9705876169   -1.5534666249
 C   -1.2303324041   -2.3296528141   -0.8377360975
 C    0.0052654519   -2.2684724508   -3.0494764287
 H    0.9968748926    1.4531055706    0.5651488341
 H    0.6247614339    2.0763368041   -1.0639845956
 H   -0.6191556815    2.1211103218    0.2156937022
 H    1.1378119199   -0.0674147011   -1.9935774767
 H    2.7417770540   -0.9482380961   -0.2669970840
 H    1.3758238301   -1.1834741081    0.8541664319
 H   -1.1781093724   -2.1403737304    0.2372858157
 H   -2.0541827323   -1.7315335253   -1.2370480953
 H   -1.4560080475   -3.3889742328   -0.9918443009
 H   -0.1672227988   -3.3362156630   -3.2159486508
 H   -0.8150418627   -1.7112843536   -3.5147362937
 H    0.9343352378   -1.9981766418   -3.5615800628