19

 C   -0.2164993131    1.4677579533    0.2088024342
 C    0.1131351711   -0.0027055101   -0.0335325412
 C    0.7670431015   -0.2349099288   -1.3973734069
 O    1.0521252672    0.6553932440   -2.1568711932
 N    0.9821769302   -1.5898890071   -1.6628453682
 C    1.7089965348   -2.1374092300   -2.7450896537
 O    2.4473653079   -1.5055212535   -3.4599917113
 N    1.5125934986   -3.4988312650   -2.8463716605
 C    2.1160470763   -4.2325026784   -3.9456980856
 H    0.6847124317    2.0810204742    0.1418014934
 H   -0.9182570970    1.8386769716   -0.5421451742
 H   -0.6611604349    1.6035037738    1.1985461506
 H    0.7955791675   -0.3819067477    0.7392015335
 H   -0.7910236148   -0.6226710799    0.0346261452
 H    0.6634275365   -2.2376848183   -0.9586188672
 H    0.6658524450   -3.8802651722   -2.4550854399
 H    3.0591548636   -3.7467092381   -4.1963431507
 H    2.3085594215   -5.2643572379   -3.6399287887
 H    1.4866383464   -4.2385925399   -4.8447826857