21

 C   -0.1663477685    1.6293714910   -0.1313501628
 C    0.0217866909    0.1198133642   -0.0154120933
 C    1.0296415576   -0.5957197129   -1.0299706121
 C    1.9332214377   -0.8596647220    0.1918498750
 C    2.5987730265   -1.7808469765    1.2690711669
 C    2.0983504045   -0.4714384617    2.0404886177
 C    2.6745751955    0.3498898013    0.8743703927
 O    4.0524301876    0.5456961279    0.7057689863
 C    0.7904006140   -0.6283428465    1.1716604257
 H    0.7694816733    2.1797027453   -0.2514482195
 H   -0.7869475421    1.8595849353   -1.0051946287
 H   -0.6793750693    2.0256249319    0.7513254500
 H   -0.9717422061   -0.3338334375   -0.0761746151
 H    0.5872665752   -1.4911431666   -1.4750504705
 H    1.4588205349    0.0222644836   -1.8245815697
 H    2.0631472443   -2.7052027605    1.4985878283
 H    3.6777430095   -1.9757713702    1.2519188297
 H    2.2079993896   -0.2850850337    3.1132052562
 H    2.2324798846    1.3333472502    0.7384491840
 H    4.5088465155   -0.2965407985    0.7944237735
 H    0.2263528950   -1.5248492640    1.4427140955