23

 C   -0.4666127660    1.2453810888   -0.5411515694
 O   -0.6633645888   -0.1459524660   -0.5784742408
 C   -0.9615766178   -0.6910876761    0.6946842943
 C   -1.0939008931   -2.1849418904    0.5531875883
 C   -1.9449715931   -3.0736486566    1.4281829045
 C   -3.2704908149   -2.4029204787    1.8079424863
 C   -3.5828974403   -2.1969196800    0.2914196716
 C   -2.2635884044   -2.9018397040   -0.0686499289
 C   -2.1071680955   -3.8565805532   -1.2173336450
 H   -0.2446075086    1.5741955306   -1.5596696981
 H   -1.3630878270    1.7790483237   -0.1848264727
 H    0.3755378241    1.5249201884    0.1128844265
 H   -0.1546771175   -0.4492689120    1.4085823232
 H   -1.8810746520   -0.2346488906    1.0926850609
 H   -0.1496016673   -2.6563573713    0.2861830715
 H   -1.5117014081   -3.9257273850    1.9407980776
 H   -3.9675690312   -3.1025869219    2.2746778722
 H   -3.2137328670   -1.5094931189    2.4384274350
 H   -4.4583673024   -2.7677151341   -0.0283337237
 H   -3.6954177463   -1.1685112744   -0.0661819883
 H   -2.1224943727   -3.3247752305   -2.1764952182
 H   -1.1565642790   -4.3971053458   -1.1574930797
 H   -2.9146773210   -4.5981259818   -1.2352111869