14

 C   -0.0617037620    1.4257298037    0.1243299830
 N   -0.0540708464   -0.0008938402   -0.1430875121
 C   -1.2060807948   -0.7235661542   -0.0586957167
 N   -2.4207501877   -0.1641199767   -0.0257209282
 N   -3.2278419875   -1.2510989619    0.0005377979
 C   -2.4904592435   -2.3812170616   -0.0035163987
 N   -1.1992119897   -2.0887181632   -0.0397013229
 C   -3.0729318339   -3.6765325175    0.0281961865
 N   -3.5866031664   -4.7127967681    0.0555477549
 H    0.9375913017    1.8230977058   -0.0635444633
 H   -0.7641209090    1.9217431911   -0.5502849308
 H   -0.3554074602    1.6691540454    1.1551268268
 H    0.7685864728   -0.5196418269    0.1194419342
 H   -4.2288175833   -1.1438110757    0.0288500293