14

 O    0.0066272256   -0.0469970174   -0.0358395085
 C   -0.0147380239    1.1640480738    0.0042368584
 N   -1.1367433400    1.9451702091    0.0542408842
 C   -0.9854883307    3.3655824377    0.0972962943
 C    0.2051376809    3.9435310073   -0.6636864608
 O    1.1182735318    2.9684100986   -1.1007571322
 C    1.2199104843    2.0775360365    0.0065164196
 O    1.1686195772    2.8942964209    1.1728576597
 C    0.2384167678    3.8944560746    0.8410294399
 H   -2.0441977451    1.5053796735    0.0603898329
 H   -1.9081941895    3.9305193805    0.1360557308
 H    0.1657918778    4.8202361121   -1.2950469742
 H    2.1526909363    1.5183438670   -0.0323664155
 H    0.2282587576    4.7281274858    1.5292632315