15

 O    0.0633806375    1.3910342480    0.0095546975
 C    0.0585977937    0.0156108128    0.0705718658
 C   -0.4098525082   -0.7440748010    1.2956718534
 O   -1.1127021291    0.0006669307    2.2595186571
 C   -2.4427161519    0.0707095875    1.7834678796
 O   -2.3524377651    0.1299375808    0.3667401015
 C   -1.2733304239   -0.7409266628    0.0359178972
 C   -1.5588251228   -1.8618683230   -0.7958168665
 C   -1.7696178936   -2.8090848263   -1.5067384035
 H   -0.8475287266    1.6789155803    0.1607839324
 H    0.8788597804   -0.4296579206   -0.4840401663
 H    0.0975725875   -1.6324530928    1.6563429296
 H   -3.0145439118   -0.8194189495    2.0896198139
 H   -2.9129193902    0.9865899208    2.1490149346
 H   -1.9625095158   -3.6428017648   -2.1357315662