21

 C   -0.1053842230    0.7060610092    0.9997026149
 C    0.0058953324   -0.0951399226   -0.2846466436
 O    0.9872118354   -0.0442538900   -0.9901274373
 C   -1.1702783540   -1.0056227341   -0.6296253876
 C   -0.9969668506   -2.3615974324    0.0471316568
 C   -1.4502977761   -2.7286862136    1.4367430736
 C   -2.8069428776   -2.1013903783    1.7893692228
 C   -3.4352562316   -2.7769508819    0.5283259549
 C   -2.0728434333   -3.4017943853    0.2015559787
 H    0.8341481468    1.2212195498    1.2033028562
 H   -0.9129552227    1.4423899411    0.9086796510
 H   -0.3658899763    0.0512640979    1.8381938066
 H   -2.1133402468   -0.5377862255   -0.3321074243
 H   -1.1768191099   -1.1411797843   -1.7154159668
 H   -0.0367990539   -2.8134675152   -0.1954150038
 H   -0.7586952294   -3.1454158439    2.1598899183
 H   -3.2213815458   -2.5052699881    2.7153028541
 H   -2.8469746625   -1.0084082768    1.8486784285
 H   -4.1859156621   -3.5232482117    0.7959576808
 H   -3.8651019487   -2.1183102321   -0.2334453883
 H   -1.9276994306   -4.4100330124   -0.1686922155