19

 C   -0.0081621355    1.5311474560   -0.2825317294
 C   -0.0450108193    0.0505762900    0.0122257942
 N    1.2219914126   -0.6885095505   -0.0758455626
 C    0.5430892377   -0.5889908702    1.2256705166
 C    1.2715953815    0.1654111383    2.3056788004
 N    0.4346818440    0.6154448119    3.4554678319
 C    1.3897296189    0.0965476938    4.4679221540
 C    2.1063610221   -0.6438119624    3.3263342256
 O    2.9166754423   -1.5160195555    3.2565949699
 H    0.9081125447    1.9914539659    0.0942535764
 H   -0.0418836140    1.7055385163   -1.3632224464
 H   -0.8678081095    2.0396777307    0.1674720826
 H   -0.9325089082   -0.4528139963   -0.3708878538
 H    1.0908377706   -1.6107809883   -0.4801414578
 H    0.0187748796   -1.4690207020    1.5944426177
 H    1.8988886362    0.9484821709    1.8573811077
 H    0.2863428720    1.6166971411    3.4937111527
 H    2.0438620400    0.8437064928    4.9401948571
 H    0.9415549844   -0.5230782921    5.2522112132