21

 C   -0.1090060913    1.5070385819    0.0493302068
 C    0.0548646575   -0.0206171257   -0.0347560725
 C    0.7952281597   -0.4019711010   -1.2963365476
 C    1.1228938340   -1.6412659030   -1.6874442613
 C    0.9181607734   -2.8815109667   -0.9476508068
 C    0.8416130562   -3.0357101402    0.3857092907
 C    0.9951536271   -2.0220433007    1.4519884897
 C    2.0988771663   -0.9650439392    1.4108397178
 C    0.6666060398   -0.5517314106    1.2670894236
 H    0.8665944720    1.9988210043    0.1323808475
 H   -0.6094365020    1.8975550697   -0.8423452830
 H   -0.7044710296    1.7944594204    0.9214130787
 H   -0.9521052667   -0.4631802993   -0.0980980739
 H    1.0396190060    0.4215304481   -1.9640437879
 H    1.5774424429   -1.7553190296   -2.6702511376
 H    0.8584856738   -3.7820520699   -1.5551343469
 H    0.6871928463   -4.0475427657    0.7539624011
 H    0.7798273329   -2.4107656778    2.4424389106
 H    2.6203848869   -0.7437357513    2.3355463819
 H    2.7225000733   -0.9551314725    0.5252023303
 H    0.2286545814   -0.0834145213    2.1470470790