20

 C   -0.0453726535    1.6011191564   -0.2106090906
 N   -0.1699074380    0.1534470564   -0.3166605700
 C   -0.1260057197   -0.5809572619    0.9451991286
 C   -1.4061353780   -0.4255045778    0.2029287889
 C    1.3955017576    2.0149321731   -0.1461509786
 C    2.6100040716    1.5433633732   -0.9886838585
 C    3.1131335352    2.3902662366    0.2011976486
 C    2.0103943110    3.4382103847   -0.0763078306
 O    2.1682980198    1.6693974141    1.0848157398
 H   -0.5022975297    2.0560551508   -1.0983625809
 H   -0.5631332396    2.0126880671    0.6753835334
 H    0.4156939302   -1.5217236290    0.9208524779
 H    0.0019347545   -0.0073713931    1.8599949998
 H   -2.1492010386    0.2501737005    0.6241553401
 H   -1.8172665606   -1.2491710986   -0.3736213851
 H    2.8228701226    0.4768129710   -0.9279944604
 H    2.7218814029    1.9496441823   -1.9973709852
 H    4.1280826937    2.5366424031    0.5699350736
 H    2.0674762706    4.0193913254   -1.0005941717
 H    1.7082181182    4.0320521057    0.7875403709