19

 C    0.3265241804    1.5709964118    0.1723735315
 C    0.1682198186    0.0712616742    0.0727005582
 O    1.0932671374   -0.5613456588   -0.8614699664
 C    1.4021722214   -1.6042325659    0.0843506741
 C    0.6783294273   -0.8444536624    1.2147143503
 O    1.6741613421   -0.2935928955    2.0559204122
 C    2.9471480406   -0.4036955704    1.4185874171
 C    2.8690665100   -1.6284564620    0.4949986912
 O    3.0596835179   -2.8593669764    1.1748824233
 H    1.3035380161    1.8460650023    0.5746387464
 H    0.2102956320    2.0257038338   -0.8163047633
 H   -0.4432466640    1.9856791337    0.8315861905
 H   -0.8635297285   -0.1880120316   -0.2071470179
 H    1.0333337770   -2.5879609314   -0.2185892385
 H   -0.0688213631   -1.3385353915    1.8370004801
 H    3.1734854807    0.4940779827    0.8271132379
 H    3.7073493882   -0.5059128999    2.2004456906
 H    3.5354984117   -1.5278790121   -0.3725293378
 H    3.9132324442   -2.8336982506    1.6174000905