20

 C   -0.0238584855    1.4898558346   -0.0287274474
 C   -0.0217920825   -0.0096195888    0.0612706600
 N    1.2103178093   -0.7504773774   -0.2366566420
 C    0.6035580344   -0.8874370015    1.0933043908
 C    1.3937000806   -0.5000071243    2.3107211386
 C   -0.5292720339   -1.9588151470    1.1946709466
 C   -1.8016104839   -1.0778135380    1.3100274070
 C   -1.3437424587   -0.8155380144   -0.1493902766
 O   -0.8810060541   -2.1982770025   -0.2009283157
 H    0.9174095439    1.9015102595    0.3437532093
 H   -0.1406894676    1.8191847189   -1.0678170753
 H   -0.8453126782    1.9241588767    0.5526821715
 H    0.9872150679   -1.5714315357   -0.7997148414
 H    1.9912574650    0.3940315545    2.1162786884
 H    0.7378875358   -0.2984045270    3.1655367454
 H    2.0827447989   -1.3016415600    2.6012598803
 H   -0.3561953444   -2.8660488067    1.7742488930
 H   -2.7227048995   -1.6607828493    1.3723202707
 H   -1.8000977102   -0.2446299257    2.0178298046
 H   -2.0147696174   -0.5379084760   -0.9627677079