17

 C   -0.0910431542    1.4586318851   -0.0168455961
 N    0.1524168020    0.0321202065    0.0391367979
 C    0.6769868383   -0.6469383485   -1.0296190727
 N    1.1833634567    0.0392422846   -2.0505985997
 C    1.7322648918   -0.6396426945   -3.0699433405
 C    1.7925262237   -2.0189355468   -3.1297355739
 C    1.2469226916   -2.7473823950   -2.0618914518
 C    0.6870133882   -2.0672992838   -1.0044743462
 O    0.1193182677   -2.6576709878    0.0948005045
 H    0.8324653430    1.9856454120   -0.2669287988
 H   -0.8419377971    1.7349358150   -0.7705094334
 H   -0.4348719601    1.7928687507    0.9648428341
 H   -0.4090588522   -0.5193100245    0.6659297683
 H    2.1363729845   -0.0327281845   -3.8761021370
 H    2.2416223778   -2.5232363630   -3.9766622071
 H    1.2628147898   -3.8346268788   -2.0612972708
 H    0.1574207286   -3.6146143868   -0.0024421668