15

 O    0.2130277849    0.0001474592   -0.3796272579
 C    0.1134018468    1.1487911030   -0.0900484921
 O   -0.9768532654    1.7002901536    0.5062629679
 C   -0.8164287999    3.1130859102    0.6733124947
 C   -0.9329765282    3.5198973079    2.1546946771
 C    0.5015571586    3.7216893796    2.5787461787
 C    1.3618597872    3.6335584640    1.5660144448
 C    0.6634044679    3.3434120537    0.2651604866
 O    1.0628366025    2.0907836031   -0.3160335419
 H   -1.5426882520    3.6139974917    0.0293951431
 H   -1.5206940727    4.4389915632    2.2684456563
 H   -1.4469750778    2.7421971377    2.7289760885
 H    0.7733730332    3.9311721977    3.6073427034
 H    2.4368359290    3.7495221240    1.6244716697
 H    0.8133558058    4.1116400514   -0.4980273388