21

 C    0.0040827562    1.5411680240   -0.0678857553
 C   -0.0202178134    0.0169538221    0.1010342989
 C    0.6805500174   -0.4569468552    1.3447585301
 C    0.3957452059   -0.1646501025    2.8392848833
 C    1.6218938383   -1.1051168612    2.9117888251
 C    2.3795641949   -1.6310221881    4.0962136224
 C    1.1413903215   -1.9168176344    1.6633688061
 O    2.4099884170   -1.8055874190    0.9479899793
 C    2.2260074027   -0.5101570578    1.5962340549
 H    1.0317744973    1.9156740150   -0.1224232969
 H   -0.5098997301    1.8431573161   -0.9852794943
 H   -0.4887825377    2.0427469852    0.7715524997
 H   -1.0598650586   -0.3358613800    0.1158654102
 H    0.4603167042   -0.4640892581   -0.7601432459
 H    0.5506925043    0.8644611248    3.1787136205
 H   -0.5443441269   -0.5561125514    3.2419806063
 H    1.7297545492   -2.2139597719    4.7579557609
 H    3.1956074993   -2.2790277735    3.7596649946
 H    2.8111595002   -0.8156244886    4.6868863095
 H    0.5879606652   -2.8553932822    1.6055480535
 H    2.9906682733    0.2560449467    1.4604178071