20

 C    0.0636025300    1.5336491155    0.1026304147
 C    0.0086859017    0.0194862447   -0.1299909999
 N    0.7283484727   -0.4221831718   -1.3027618019
 C    0.2732323163   -0.8418044808   -2.5319737504
 O   -0.8338108886   -0.8924207619   -3.0026762330
 C    1.7101813870   -1.2050278816   -2.9812481289
 C    2.1218757069   -0.7497611940   -1.5725789928
 C    3.3313462770    0.0160706019   -1.1423174370
 C    3.0790868648   -1.3949240679   -0.6216431639
 H    1.0889716913    1.8795018078    0.2632244772
 H   -0.3448518949    2.0685257601   -0.7592034193
 H   -0.5248621177    1.8020347819    0.9858218068
 H    0.3932613327   -0.5163784389    0.7475245269
 H   -1.0287164993   -0.2993618072   -0.2744628056
 H    1.8560353913   -2.2650093294   -3.1985330116
 H    2.0916869960   -0.5988545675   -3.8053595443
 H    4.1267004354    0.1663963387   -1.8651873155
 H    3.2074125069    0.8348937967   -0.4417446845
 H    2.7859006325   -1.4958902368    0.4184492900
 H    3.7021500779   -2.2044097696   -0.9874258971