19

 C   -0.2429757896    1.6681687913   -0.7170923220
 C   -0.3057729077    0.1556371609   -0.9123617396
 C    0.9931767342   -0.5439702053   -0.5520645720
 O    1.9352485941    0.0248003139   -0.0408805012
 C    1.0892334725   -1.9979684528   -0.8511865133
 C    2.1859031173   -2.9831927787   -0.4280526804
 C    1.9719909674   -3.7465670607   -1.7813391886
 C    0.8838961202   -2.7262850068   -2.1377638289
 O   -0.1036608178   -2.7544005604   -1.1176761551
 H    0.0112053160    1.9164679564    0.3161540982
 H    0.5238794712    2.1156857192   -1.3552680646
 H   -1.2051125757    2.1276499737   -0.9594525969
 H   -1.0974188635   -0.2972251557   -0.3008864320
 H   -0.5724444925   -0.1103240570   -1.9433340632
 H    3.1616513707   -2.5019051214   -0.3584422444
 H    1.9765473723   -3.5338147873    0.4909109483
 H    2.8423516210   -3.6899794331   -2.4382367455
 H    1.6244232562   -4.7802121425   -1.7210079947
 H    0.5831504137   -2.3483146137   -3.1090256439