19

 O   -1.6854571585    1.0837917827   -0.3890105643
 C   -1.1978575181    0.4761993450    0.8097746853
 C   -1.9325279060   -0.8553441759    0.9821198047
 C   -1.5033579082   -1.9576499860    0.0152896645
 C   -0.3895423888   -2.8905495414    0.4980065846
 C    0.8474740488   -2.1967485229    0.8610787325
 N    1.8155552523   -1.6394984328    1.1587824682
 C   -2.5118162869   -2.5435452744   -0.9088552372
 N   -1.4450267995   -1.6749355901   -1.4248935027
 H   -1.0721947849    1.7777400594   -0.6477718348
 H   -0.1140111032    0.3216357017    0.7616649672
 H   -1.4087282706    1.1201127633    1.6764542782
 H   -1.7964831373   -1.2007075755    2.0135180791
 H   -3.0017490473   -0.6510610013    0.8592802832
 H   -0.7285091602   -3.4627351441    1.3703151567
 H   -0.1592458828   -3.6055624969   -0.2971669952
 H   -2.4415659024   -3.5864117416   -1.2092962712
 H   -3.5272489072   -2.1594198187   -0.8539635658
 H   -1.7861375393   -0.7301321806   -1.5868405129