24

 C   -0.1525042794    1.2231677381    0.1498823273
 C   -0.1229238933   -0.0827388360    0.9261847843
 O    1.0495667373   -0.7913697541    0.5458524310
 C    1.1788295084   -2.0876608774    1.0856975107
 C    1.8200378859   -2.1482936057    2.4832556613
 C    3.1166413198   -1.3411989037    2.5447713359
 N    0.8852458720   -1.6570832604    3.4998739552
 C   -0.0820815173   -2.6160582299    4.0202394574
 C    1.0665689882   -2.1644231520    4.8535685330
 H   -0.1519174021    1.0332081116   -0.9274758695
 H   -1.0501373973    1.7957998004    0.4029956778
 H    0.7239546996    1.8327269758    0.3890292542
 H   -0.1275227844    0.0988553501    2.0076368085
 H   -1.0130954097   -0.6903312021    0.6897564181
 H    0.2033495999   -2.6001016057    1.1068709760
 H    1.8275022167   -2.6402294144    0.3949600315
 H    2.0548915721   -3.2166594832    2.6661300318
 H    3.8445323231   -1.7292694375    1.8255343220
 H    2.9197425973   -0.2952467517    2.3015132639
 H    3.5607249110   -1.3939520138    3.5430385184
 H   -1.0831564730   -2.2350958618    4.2010775507
 H   -0.0452907356   -3.6367116756    3.6410238151
 H    1.8656884711   -2.8853475215    5.0232011185
 H    0.9231425798   -1.4475617695    5.6569751968