20

 C   -0.0981716208    1.4835514092   -0.1274875910
 N    1.2139465461    0.8251336959    0.0376306205
 C   -0.0137641252    0.0149469890    0.0034091988
 C   -0.3832026318   -0.9591243524    1.1544568546
 C   -0.3003448806   -2.1350263897    0.1095300836
 C   -1.4272241418   -3.0989436900   -0.3068185554
 C   -1.5307726064   -2.8715959289   -1.8529409763
 C   -1.0733554280   -1.4225198139   -2.0235375885
 C   -0.3511940277   -1.0747454002   -0.9623052598
 H   -0.4140425349    2.0827966903    0.7227744370
 H   -0.3630266809    1.8975922724   -1.0973823370
 H    1.6844161607    0.7671448277   -0.8629192051
 H    0.3180594570   -0.9854903713    1.9911607378
 H   -1.4002571146   -0.7956002999    1.5221377551
 H    0.6715974850   -2.6375684802    0.1830901599
 H   -1.2438662594   -4.1443279989   -0.0422246868
 H   -2.3717709746   -2.7981013526    0.1613789549
 H   -0.8890012847   -3.5741664210   -2.4042055227
 H   -2.5482073724   -3.0261399623   -2.2282205428
 H   -1.3884418348   -0.7938838332   -2.8483901669