16

 O    0.0111442411    1.4528305088    0.0697301999
 C   -0.0086868402    0.0536974923    0.0303820313
 C   -1.4035611737   -0.5703817212   -0.0632448141
 C   -2.0215841576   -0.2580077357   -1.4436931956
 N   -1.5168924281   -1.5611000082   -2.0134089672
 C   -1.1431744067   -1.9904269631   -0.6370834956
 C   -0.0641477091   -1.7283344400   -1.6320807311
 C    0.6787730900   -0.5006861083   -1.2222093689
 O    1.6272861892    0.0267314834   -1.7536624413
 H    0.7895574635    1.7207685575   -0.4408366815
 H    0.5139054463   -0.3847012881    0.9017436873
 H   -2.0214421668   -0.4550527611    0.8249591219
 H   -3.1120625712   -0.3013093750   -1.4535897209
 H   -1.6818332727    0.6475414522   -1.9543334417
 H   -1.3912461339   -2.9610491022   -0.2249486875
 H    0.4232724699   -2.5121959012   -2.1981414949