18

 C    0.1375059546    1.5410714273   -0.0368182992
 C    1.3406176385    0.6409185381    0.1975826088
 C   -0.0130529400    0.0537815514   -0.0423461447
 O   -0.6630038336   -0.5157035845    1.1066887188
 C   -1.3608582694   -1.5733689769    0.6264801602
 N   -1.3193928278   -1.8405061192   -0.6126452546
 C   -0.4530720175   -0.8354440187   -1.1987777351
 C   -0.7736527572   -0.3503138942   -2.5878247112
 C    0.4207918839   -1.2441219781   -2.3550344131
 H   -0.2662019949    2.0732392617    0.8171129086
 H    0.0599752555    2.0701053439   -0.9805934704
 H    2.0857751891    0.5544270539   -0.5859089534
 H    1.7324075035    0.5779088836    1.2064988106
 H   -1.9183503460   -2.1233981054    1.3752035358
 H   -1.6504872140   -0.7783226766   -3.0592691496
 H   -0.5955790451    0.6946124109   -2.8190176208
 H    1.4110434274   -0.8069512166   -2.4279345674
 H    0.3555441032   -2.2794451507   -2.6683050333