18

 C    0.0575725738    1.3254613840   -0.2762107025
 C    0.0840639261   -0.1764708536    0.0025591601
 O    0.7410030476   -0.5337568797    1.2036887402
 C    2.1581692731   -0.4384680095    1.1804929982
 C    2.6632206590   -1.1352411723    2.4344776003
 O    2.2794421564   -2.4943761620    2.4646756820
 C   -1.3216953371   -0.7621981505    0.1070597424
 O   -2.2604247313   -0.3881283963   -0.5433881595
 H    1.0509172472    1.7048930668   -0.5274733995
 H   -0.6163976329    1.5201689174   -1.1136857749
 H   -0.3137698298    1.8632154027    0.6009202531
 H    0.5636093702   -0.6977445433   -0.8480498325
 H    2.5525750334   -0.9435531861    0.2847629917
 H    2.4889498376    0.6103214714    1.1632344339
 H    3.7575035920   -1.1059406776    2.4531911545
 H    2.2960317375   -0.5904192045    3.3187891165
 H    1.3279590397   -2.5014264245    2.3093875665
 H   -1.3980234725   -1.5951968525    0.8405082694