18

 C   -0.0386891091    1.5386959805    0.0382500508
 C   -0.0473217712    0.0465970633   -0.0433002712
 C   -0.0719477867   -0.7323312859   -1.1368829349
 C    0.0239033319   -2.1770410249   -0.7183243840
 C    1.3427885367   -2.5534860997    0.0143773566
 C    1.3654129530   -1.6998179819    1.2312895496
 C    0.0579077189   -0.8622195571    1.1651725121
 C   -0.5401105692   -2.2234027299    0.7269769527
 N    0.6685422447   -3.0265460001    1.2661462155
 H    0.8874447426    1.9069168847    0.4984778674
 H   -0.1282947488    1.9969220105   -0.9505857370
 H   -0.8623224138    1.9085077533    0.6621263770
 H   -0.0818835951   -0.3851603447   -2.1637677955
 H   -0.3278044576   -2.9372030265   -1.4148709787
 H    2.2190703715   -3.0503435262   -0.3851985885
 H    2.2583463829   -1.5085181991    1.8146610147
 H   -0.2600560063   -0.4608496613    2.1278049751
 H   -1.5587946245   -2.5305863250    0.9602587182