17

 N   -0.0458666022    1.3174558543   -0.3476019464
 C    0.0012016731    0.0462875353   -0.2482103575
 N   -1.1294124372   -0.6978495648   -0.0405575413
 C   -1.3472991906   -2.1349035147    0.1416898771
 C   -1.2423965605   -2.6668828194    1.5934435808
 N   -2.5956711606   -2.1319060980    1.8992206684
 C   -2.8382809550   -1.7944885916    0.4699980819
 C   -2.4847777629   -0.3346247985    0.1780417449
 N   -3.1270247396    0.7450010487    0.1542105659
 H    0.8846270549    1.6970608896   -0.5063724659
 H    0.9043534795   -0.5727720657   -0.3234683713
 H   -1.0055222118   -2.7627551795   -0.6813556938
 H   -1.1742950964   -3.7619350060    1.6108720691
 H   -0.4420824544   -2.2517716496    2.2152433786
 H   -3.2394142043   -2.8174846722    2.2725791090
 H   -3.7057376907   -2.2335314489   -0.0212695476
 H   -2.4985906912    1.5253577411   -0.0486080618