17

 C   -0.0704408206    1.5243276759    0.0498172090
 O    1.3273329067    1.8838227225   -0.0979103446
 C    2.1625607159    0.7102543658    0.0619759309
 C    1.2708580157   -0.2499082897    0.8349706283
 C    0.0779316573    0.0222487033   -0.0775247333
 O   -0.7256375280   -1.0252500366   -0.5679964444
 C    0.2626644242   -0.4397360883   -1.4537513510
 C    1.6816895682   -0.9156193170   -1.6814733331
 O    2.5557016847    0.1200274824   -1.1709318866
 H   -0.4428618992    1.8651871838    1.0238757840
 H   -0.6515298700    1.9904183934   -0.7490994084
 H    3.0845390013    1.0553949419    0.5294489926
 H    1.6165499634   -1.2814163867    0.8429660923
 H    1.0930476646    0.0878763130    1.8587586987
 H   -0.1878083133    0.1430668689   -2.2532877391
 H    1.8759290828   -1.8792533967   -1.1958886185
 H    1.9314106062   -1.0082786360   -2.7400637268