14

 O    0.0095303819   -0.0592359085   -0.0608652361
 C   -0.0581459682    1.1489716327   -0.0113736603
 C    1.1844807251    1.9553197035   -0.0008849453
 N    2.1491791625    2.5928010090    0.0077531231
 C   -1.3015155981    1.9271205570    0.0415869278
 C   -2.5270912424    1.3908905339    0.0432491715
 C   -3.5507000662    2.4772452852    0.1043736081
 O   -2.8135423680    3.6934466592    0.1381388145
 C   -1.4123046432    3.4344984676    0.1023178050
 H   -2.7525409144    0.3330569772    0.0062576701
 H   -4.2212565492    2.4584716166   -0.7697890830
 H   -4.1887272511    2.3896561131    0.9984662204
 H   -0.9288441784    3.8552671780    0.9958963210
 H   -0.9613668803    3.9240972155   -0.7730221271