19

 O    0.0386469586    1.3187709249   -0.0658652095
 C    0.0265294029   -0.0744362103    0.0578520140
 C   -0.5727360327   -0.7098426560    1.2864990954
 C   -1.3162523178   -0.7325204793   -0.0305676429
 C   -2.5906711029    0.0902883800   -0.2465933345
 O   -3.2653051056   -0.5485660421   -1.3275697266
 C   -3.0081626908   -1.9381884297   -1.1676383469
 C   -1.5046732313   -2.0103919361   -0.8642521696
 O   -0.7207576945   -2.0251971666   -2.0477863859
 H    0.7312561643    1.6641411919    0.5066919149
 H    0.8514872167   -0.5889057175   -0.4326958548
 H   -0.1401152732   -1.6321188568    1.6623520650
 H   -0.9539280909   -0.0379650439    2.0506773288
 H   -3.2236673302    0.0808121578    0.6554946579
 H   -2.3905194378    1.1261520578   -0.5260053887
 H   -3.5968145647   -2.3549135937   -0.3327523788
 H   -3.2753094718   -2.4539549144   -2.0923314565
 H   -1.2281022348   -2.9168509432   -0.3197309582
 H   -0.9665815234   -1.2428583629   -2.5561674830