17

 O    0.1966183420    1.2986593958   -0.3735002675
 C    0.0970724720   -0.0770977279   -0.0841502669
 C    0.2137629946   -0.4365790086    1.4280699890
 N   -1.2636177040   -0.5935277884    1.5024506143
 C   -1.3981353180   -0.4992604356    0.0265035004
 C   -2.5227979393    0.5284171350   -0.2354602257
 N   -2.8652702978    0.9352122403    1.1200188398
 C   -1.9783651582    0.4813675550    2.0752175332
 O   -1.8325873945    0.9099384371    3.1967496713
 H    1.0927952801    1.5894845139   -0.1758752133
 H    0.7101171280   -0.6787937774   -0.7682496139
 H    0.7353836367   -1.3764604442    1.6303603388
 H    0.6005476645    0.3497857469    2.0823122916
 H   -1.5984704541   -1.4661705639   -0.4413930211
 H   -2.1640240934    1.3648147470   -0.8443333990
 H   -3.3744971767    0.0636509391   -0.7431727156
 H   -3.3578067721    1.7910763358    1.3132099145