16

 N   -0.0105883737    1.2853282970    0.3101108914
 C   -0.0097092721    0.0505639316    0.0527907430
 O    1.1355017227   -0.6848962991   -0.2264611105
 C    0.8182327361   -1.9350799179   -0.8904855150
 C   -0.6502366531   -2.1461453340   -0.6162348081
 C   -1.1829317764   -2.1467876771    0.7695195034
 C   -1.1784711236   -0.8542579177   -0.0360065810
 C   -2.2057171893   -0.9393021662   -1.1719610684
 O   -1.6618988248   -2.2214104245   -1.6251681469
 H    0.9323598609    1.6691935186    0.2243283080
 H    0.9916339249   -1.8395272586   -1.9678986003
 H    1.4856891665   -2.6964800369   -0.4794497804
 H   -2.1384296637   -2.6211113291    0.9649128968
 H   -0.4584897060   -2.2019170419    1.5744487105
 H   -3.2598461947   -1.0206466747   -0.8894613156
 H   -2.0765042339   -0.1657429395   -1.9341851068