22

 C    0.3458299845    1.4729111395   -0.3633835344
 C   -0.1460039018    0.0909077498    0.0886287495
 C    0.5735573610   -0.4482311781    1.3161337938
 N    1.9583246983   -0.9641607833    1.1370575680
 C    0.8489732839   -1.9045798014    1.4237576779
 C    0.8656959666   -2.5675563853    2.7967074910
 C   -0.0978659277   -1.8859711915    3.7880665591
 C   -0.0104224274   -0.3805079146    3.7146467954
 C    0.3197623850    0.2701516302    2.5993724728
 H    1.4203898079    1.4624353589   -0.5739174226
 H   -0.1719580767    1.7900188571   -1.2737007712
 H    0.1660579877    2.2359754839    0.3999349892
 H   -1.2231442023    0.1348201184    0.2937090691
 H   -0.0170554490   -0.6259491038   -0.7329845658
 H    2.1744088836   -0.9905765416    0.1409634626
 H    0.5086238944   -2.5235247878    0.5961573203
 H    0.6200886286   -3.6309933900    2.7065159911
 H    1.8847618510   -2.5022146901    3.1901971048
 H   -1.1329491760   -2.2014853211    3.5894255625
 H    0.1209422004   -2.2241324964    4.8069489789
 H   -0.2261445334    0.1788366033    4.6217044610
 H    0.3897262012    1.3546329740    2.5955621171