17

 C    0.0793668070    1.5263224968   -0.0789849083
 C    0.0156182054    0.0189831427    0.0930360371
 O    0.5988675344   -0.6192183524   -1.0815652913
 C    1.3314505676   -1.7025201446   -0.7325647915
 O    1.6932815949   -2.5500464069   -1.5027344188
 C    1.5911207939   -1.6936646527    0.7415579895
 O    1.7743442263   -2.9245250937    1.3389834475
 C    2.2738478098   -0.4402882476    1.2458434085
 C    0.7673147583   -0.5617209351    1.2853845309
 H    1.1135735127    1.8795489290   -0.0999362653
 H   -0.4089850333    1.8244967330   -1.0102414736
 H   -0.4365591388    2.0143573548    0.7535619303
 H   -1.0319009966   -0.3046920976    0.1287516687
 H    2.0971097862   -3.5084406452    0.6377048256
 H    2.7823014697   -0.5664760267    2.1951235876
 H    2.7528829308    0.2409272041    0.5497783457
 H    0.2612309718   -0.6285080478    2.2401222874