21

 C    0.1999120369    1.3015025547    0.1964915083
 O   -0.1637055923   -0.0209092466   -0.1598817496
 C    0.5371192167   -0.5070909742   -1.2434631142
 C    0.2205344978   -0.1955179801   -2.7066390935
 C    0.8297619594   -1.5963851326   -3.0649794322
 C    2.3102671620   -1.4775648518   -3.4552539306
 C    2.9760095682   -0.8355581139   -2.2049072577
 C    1.9523793270   -1.0563694297   -1.0917831441
 C    0.8220690207   -1.9535287826   -1.5509854316
 H    1.2640893253    1.3674418369    0.4637276653
 H    0.0006234662    2.0124555647   -0.6179321829
 H   -0.4058139549    1.5784131092    1.0623087024
 H   -0.8605769525   -0.1749402090   -2.8679023485
 H    0.6741084112    0.6864153228   -3.1743536934
 H    0.2270570957   -2.2081805752   -3.7358546363
 H    2.7285628460   -2.4732191301   -3.6411359012
 H    2.4554475880   -0.8849837271   -4.3642348236
 H    3.9291151374   -1.3162662172   -1.9634095970
 H    3.1889375827    0.2278673878   -2.3601987938
 H    2.2770082498   -1.1478415764   -0.0608113434
 H    0.4915955387   -2.8632121297   -1.0685447225