17

 C    0.1152151478    1.5843828933   -0.0273695456
 C    0.0437770308    0.0668949189    0.0364188156
 C    0.9182794567   -0.7633063618   -0.9618535212
 C    1.4175763845   -1.6408692908    0.2094666888
 O    2.8324076458   -1.5257715993    0.4838911988
 C    2.9221059545   -0.5094340111    1.3801311499
 N    1.8731670983    0.0361522507    1.8411732185
 C    0.7409558683   -0.6719912238    1.2235056364
 H    1.1452327004    1.9339283516    0.0864053229
 H   -0.2695616667    1.9483802597   -0.9863800143
 H   -0.4779786656    2.0432373543    0.7702286821
 H   -1.0007642367   -0.2576160062   -0.0208966014
 H    0.3815459574   -1.2849725633   -1.7574549334
 H    1.7340226932   -0.1898125215   -1.4103768761
 H    1.1581461082   -2.6991069055    0.1925176173
 H    3.9381466391   -0.2413768310    1.6491777256
 H    0.0803016540   -1.0635196541    2.0016639462