20

 C   -0.0819125364    1.5729918275   -0.0142670891
 C    0.1109533112    0.0597772945   -0.0147368652
 C    0.8461373826   -0.5394904952   -1.2301631690
 C    1.5575211290   -1.7671523281   -0.6630632715
 C    1.2343968060   -3.1762982616   -1.0963134102
 C    2.5831619138   -2.5532919898   -1.4175840115
 N    1.7394059962   -1.4440428865    0.7268589493
 C    0.9444069747   -0.4279514412    1.1836569017
 O    0.9037464355   -0.0064044470    2.3195712977
 H    0.8698739952    2.0890381445   -0.1802278285
 H   -0.7789779379    1.8858126664   -0.7975349659
 H   -0.4724750176    1.8959068496    0.9540908731
 H   -0.8690454374   -0.4257582104    0.0950681293
 H    0.1841833368   -0.7921429834   -2.0614533817
 H    1.5896852397    0.1780363365   -1.5982422627
 H    1.2061965371   -3.9485703421   -0.3345861342
 H    0.5267949943   -3.3189176790   -1.9065601297
 H    2.7914854135   -2.2690323875   -2.4441476718
 H    3.4503648696   -2.9182720007   -0.8761684037
 H    2.3127777341   -1.9790699864    1.3598750036