17

 O   -0.0837740715    1.3748420552    0.0692016441
 C   -0.0931877753   -0.0012422788    0.1028559724
 C   -0.4718237922   -0.8998696471   -1.0432155379
 C   -1.1899551883   -1.0575486997    0.2862314677
 C   -0.3312162313   -1.8182022303    1.2893154246
 C    0.7935459377   -0.7407917706    1.0984594382
 O   -2.5732115537   -0.8987319728    0.4119196501
 C   -3.3653744070   -1.7479930084   -0.2874563141
 O   -4.5554851377   -1.7119127770   -0.2203555112
 H   -0.5004189075    1.6807849645   -0.7421733627
 H   -1.0830617924   -0.4086736413   -1.7980163600
 H    0.1936572468   -1.6667222048   -1.4387711325
 H   -0.7557266523   -1.7966726676    2.2948193674
 H   -0.0745142307   -2.8499156191    1.0276376289
 H    1.7556129515   -1.0917657387    0.7138703984
 H    0.9577673066   -0.1551746568    2.0047358937
 H   -2.7854836625   -2.4497930566   -0.9142489771