20

 C   -0.5844086678    1.4832537993    0.2138964912
 C   -0.2146576524    0.0098195191    0.2054620517
 O   -1.3682221704   -0.7358659738   -0.1412873882
 C   -1.1634876825   -2.1300614972   -0.2407478819
 C   -1.1868258522   -2.8293207483    1.1328164033
 O   -2.5663401491   -3.0971959398    1.4119911692
 C   -3.3073135885   -3.0639432243    0.2607736922
 N   -4.5477335426   -3.2830863097    0.1989473939
 C   -2.4000567945   -2.7378424200   -0.9051043492
 H    0.2874653107    2.0925601028    0.4695311351
 H   -0.9499320964    1.7915643492   -0.7694320934
 H   -1.3715901973    1.6764183379    0.9478466632
 H    0.5891355596   -0.1868059925   -0.5238955420
 H    0.1674651350   -0.2920205667    1.1939476312
 H   -0.2315592910   -2.3413571822   -0.7836087738
 H   -0.6282757283   -3.7741225155    1.1097265053
 H   -0.7921502769   -2.2052320771    1.9376931891
 H   -4.9195797439   -3.4956944337    1.1263643742
 H   -2.8726622275   -2.0546691062   -1.6095868445
 H   -2.1437952337   -3.6615998115   -1.4343760166