20

 C   -0.0069652130    1.4564674322    0.0067800130
 C   -0.0334487749   -0.0576580835   -0.0280808482
 C    1.0178237211   -0.6411284569   -0.9650952802
 O    0.9956110667   -2.0450999812   -1.1522235096
 C   -0.3030993500   -2.6075665606   -1.2436586838
 C   -1.1221593083   -2.2412281347   -0.0100868247
 C   -0.2755433412   -2.1168043505    1.2846573854
 N   -0.3986154059   -0.6151771516    1.3044345764
 C   -1.3401881936   -0.7260174730    0.1143940686
 H    0.9636557088    1.8204365492    0.3614761025
 H   -0.1872574577    1.8780669593   -0.9879509406
 H   -0.7727670512    1.8308139772    0.6897595484
 H    0.8933111996   -0.1302780873   -1.9362669466
 H    2.0245849038   -0.4063664386   -0.6005120843
 H   -0.8190621421   -2.2739603780   -2.1603417995
 H   -0.1451893551   -3.6882673919   -1.3155417639
 H   -2.0228668236   -2.8508221433    0.0768155217
 H   -0.7872927283   -2.5076551578    2.1667900876
 H    0.7477899005   -2.4961344099    1.2540714211
 H   -2.2930338956   -0.2056661192    0.0795923767