17

 C    0.0027375061    1.5151216121    0.0389089636
 C    0.0462003205    0.0156625850    0.0627647473
 N    0.8781415821   -0.7244168886   -0.9517868197
 C    0.8138196224   -1.8611313004   -0.0109575412
 C   -0.6861672305   -2.1425804659    0.4429689694
 N   -0.2838883700   -1.7688665532    1.8379337571
 C    0.7187690011   -0.8976606619    1.1863262217
 C   -1.2578925050   -0.8030613120   -0.0473689333
 O   -2.3563176973   -0.4797745573   -0.4081221723
 H    1.0113722222    1.9341142254   -0.0075426127
 H   -0.5645055699    1.8715698974   -0.8274078492
 H   -0.4955836193    1.8978617413    0.9357438543
 H    0.4124485767   -0.8688458743   -1.8501006609
 H    1.5066377362   -2.6930004624   -0.1172497911
 H   -1.2369805998   -3.0672089842    0.2869349059
 H   -1.0126390663   -1.2839542580    2.3652456468
 H    1.5507494807   -0.5011884429    1.7660838942