21

 C    0.1053435416    1.4958556002    0.1216788613
 C    0.0512702837    0.0018655718    0.0334494448
 C   -0.0307657636   -0.7410311475   -1.0771338589
 C   -0.0919095730   -2.2240421293   -0.7839190372
 C    0.0447791990   -2.2981348806    0.7405800521
 C    1.3034056914   -1.8023428950    1.4082224268
 C    2.6250010329   -1.5952556511    0.7106475696
 O    3.4784668814   -0.7159432578    1.4358666916
 C    0.1030436479   -0.8659566763    1.2521879395
 H    1.0363615585    1.8400834415    0.5911567271
 H    0.0332482179    1.9607252226   -0.8651098297
 H   -0.7127779888    1.8848185239    0.7411550890
 H   -0.0306043884   -0.3454017490   -2.0875888892
 H   -1.0462840205   -2.6582812132   -1.1109018153
 H    0.6911875432   -2.7863551011   -1.3096143123
 H   -0.5297340418   -3.0510798720    1.2676162261
 H    1.4315243413   -2.1668412522    2.4251758919
 H    3.1664357060   -2.5462824912    0.6553519154
 H    2.4751116320   -1.2421276116   -0.3180968459
 H    2.9956777681    0.1081726668    1.5567188618
 H   -0.4121386489   -0.5466643689    2.1531507616