25

 C   -0.5148537651    1.2436734063   -0.7393951954
 O   -0.6573349185   -0.1558583362   -0.7071242822
 C   -0.8801228742   -0.6592718312    0.5902828833
 C   -1.0101051297   -2.1835457347    0.5219489742
 O   -1.0643371557   -2.7123809810    1.8444516148
 C   -2.1996630729   -2.6264793903   -0.3330771443
 C   -2.3553108625   -4.1493050129   -0.4945388213
 C   -3.7227005964   -4.4857669024   -1.1044073814
 C   -1.2259138855   -4.7625766825   -1.3347427442
 H   -0.3401616786    1.5321820880   -1.7787929786
 H   -1.4203707705    1.7550257506   -0.3754925417
 H    0.3368932349    1.5813602842   -0.1281079570
 H   -0.0477800155   -0.4010644250    1.2642404032
 H   -1.8011282440   -0.2248742754    1.0238267555
 H   -0.0787148137   -2.5750800657    0.0991430405
 H   -1.9204129758   -2.4747998347    2.2187163967
 H   -3.1135420960   -2.2179482294    0.1275318818
 H   -2.1150529828   -2.1468627179   -1.3154831006
 H   -2.3086829997   -4.5913360024    0.5090380601
 H   -3.8238432645   -4.0507576622   -2.1062822430
 H   -3.8589338706   -5.5682923281   -1.1987605995
 H   -4.5427413345   -4.0970005362   -0.4908355550
 H   -0.2413478487   -4.5931702093   -0.8892218694
 H   -1.3583963656   -5.8451197343   -1.4336722770
 H   -1.2145836537   -4.3355443876   -2.3449767094