19

 C   -0.3777445576    1.6248974627   -0.1520747712
 C    0.0520454303    0.1582124567    0.0316293534
 C    0.8474315969   -0.3838717237   -1.1009687873
 C    2.1116262609   -0.8772271778   -1.2603352416
 N    3.1075547536   -1.0943934668   -0.3175596242
 C    4.4946481718   -1.0873124463   -0.7677460750
 N    2.3018661696   -1.2433168269   -2.5876951643
 C    1.1729702802   -0.9688196209   -3.1570507984
 O    0.2382080912   -0.4534753103   -2.3451973912
 H    0.4937438035    2.2802551792   -0.2444168273
 H   -0.9792468192    1.7385614803   -1.0582104624
 H   -0.9761292597    1.9648684681    0.6988051559
 H    0.6516583898    0.0574707864    0.9439775129
 H   -0.8412608181   -0.4609367318    0.1931710564
 H    2.9642941810   -0.5591508514    0.5265800954
 H    4.6211314904   -1.8347628568   -1.5522086735
 H    4.8247644776   -0.1172352644   -1.1703470334
 H    5.1364435389   -1.3543582100    0.0757020314
 H    0.9043659188   -1.1038154964   -4.1931749856