15

 O    0.1141843274    1.4802062155   -0.1105835718
 C   -0.0057346358    0.0968339193    0.0312049126
 C    0.5360931626   -0.3804121127    1.4098881273
 O   -0.2493188980   -1.5101879078    1.7942812824
 C   -1.4294314599   -1.5522040184    1.1063404247
 O   -2.2575569889   -2.3859161388    1.3128879632
 C   -1.4605553699   -0.4112903571    0.0977397450
 C    0.7485946763   -0.5995201329   -1.0908319072
 O    1.3256368485    0.0257847863   -1.9454411521
 H    0.6371434751    1.6220895980   -0.9167699097
 H    1.5863070228   -0.6831588708    1.3962017008
 H    0.4084253328    0.4367108156    2.1272187678
 H   -2.0906160632    0.3969113491    0.4823688027
 H   -1.8881785554   -0.7482295981   -0.8483426526
 H    0.7418297155   -1.7078663770   -1.0771864030