20

 C   -0.4220306211    1.3511192551    0.3076516925
 N    0.0272449114   -0.0270296727    0.1698463354
 C    1.3849498868   -0.2672435844   -0.2940901241
 C    0.9978700646   -0.5723953841    1.1150952838
 C    1.5775120029    0.2302794947    2.2499131157
 O    0.6146406125    0.2876592798    3.2885688109
 C    1.1010386086    0.9543571142    4.4365631688
 C    0.0726348039    0.9893247957    5.4676900238
 C   -0.7568464866    1.0331994644    6.3346448457
 H    0.3822397025    2.0790131250    0.4991811394
 H   -0.9229442739    1.6477477584   -0.6192245312
 H   -1.1416062576    1.4116450490    1.1286745498
 H    1.5170795880   -1.0667115666   -1.0185252046
 H    2.0306381636    0.5974952689   -0.4528228610
 H    0.7922225121   -1.6061610685    1.3879816140
 H    2.4989479298   -0.2598889445    2.6089009228
 H    1.8580526079    1.2455766461    1.9293054205
 H    2.0003208956    0.4460704405    4.8259860313
 H    1.4084288315    1.9845760436    4.1853992665
 H   -1.4955231025    1.0672718053    7.0968443801