16

 O    0.0118002643    0.0177839526   -0.4532579183
 C   -0.0244229061    1.1726275188   -0.1193268810
 C   -1.3258948707    1.9150760432    0.1506680125
 C   -1.2303719796    2.9385771866    1.2629115741
 C   -0.5176158766    2.6224742522    2.5618068623
 C    0.1136553684    3.5466611877    1.5434152558
 N    1.2284661009    3.1129673260    0.7492889662
 C    1.3011719857    1.9707477763   -0.0005966334
 O    2.3161857684    1.5956425308   -0.5462926938
 H   -1.5812297154    2.4287522394   -0.7883825411
 H   -2.1100995019    1.1735314706    0.3293894554
 H   -2.0831289275    3.6059576475    1.3341966735
 H   -0.9083159167    3.0471933722    3.4796986038
 H   -0.0707753176    1.6390945805    2.6727097231
 H    0.1653266118    4.6051528456    1.7717329390
 H    2.1200731427    3.5659543101    0.8978479818