18

 O    0.7558676743    0.2412770436   -0.6105108503
 C   -0.0720288679    0.2109637695    0.5527915770
 C   -1.4744031112   -0.1987132023    0.2449920108
 C   -2.6949425635    0.3018674998    0.6443495378
 C   -3.7150857655   -0.5027062499    0.0559255637
 C   -5.2004697589   -0.3547153688    0.2137337874
 O   -5.9273568527   -0.8121485178   -0.9204411540
 C   -3.0766496153   -1.4650285435   -0.6992227795
 N   -1.7254969724   -1.2765219816   -0.5697650450
 H    0.3549428068    0.8637712628   -1.2272623227
 H    0.4201073616   -0.5083524212    1.2191229009
 H   -0.0860887936    1.1773603702    1.0763166027
 H   -2.8425335566    1.1497109209    1.2978434147
 H   -5.5737846078   -0.9591463152    1.0496869308
 H   -5.4440044171    0.6932937131    0.4530065645
 H   -5.5534198350   -0.3661594549   -1.6880517971
 H   -3.4823059964   -2.2519340998   -1.3138834072
 H   -1.0059962687   -1.7767492849   -1.0639213146