18

 C   -0.0312051637    1.4400754687    0.2066039098
 C    1.2508854576    0.7548055884   -0.1572681031
 C    1.8660086299    0.1332698307    1.1020885974
 C    0.5713324290   -0.7224041464    1.2741051300
 C    0.6543148215   -2.2604262198    1.3692697142
 C   -0.1081799610   -2.0805865930    2.6952500655
 O   -0.1455822032   -0.6499200461    2.5258612462
 C   -0.0353221450   -0.0578260691    0.0466381407
 H   -0.1581347398    1.8805850766    1.1921892574
 H   -0.5235488814    1.9826129512   -0.5940193040
 H    1.7757140146    0.9544123524   -1.0825577332
 H    2.7467004826   -0.4869852845    0.9153986487
 H    2.0814546294    0.8259368652    1.9218267149
 H    0.1148273667   -2.7983384625    0.5869231941
 H    1.6637242101   -2.6674102009    1.4540971120
 H   -1.1141816046   -2.5157832142    2.7302478508
 H    0.4347368098   -2.3722887076    3.6025495147
 H   -0.6666734923   -0.5531694492   -0.6825961961