16

 O   -0.0391584940    0.1851773484   -0.9013056212
 C   -0.0330327187    1.2238738760   -0.3004584521
 C   -1.2681601487    1.9874180452    0.2128239725
 C   -0.6978616709    3.1713199771    0.9571524181
 C    0.1674875711    2.9079685093    2.1529180322
 C    0.2501098681    1.5974310825    2.7310687674
 C    0.3369393597    0.4992921364    3.2155728820
 N    0.7804854333    3.2224917064    0.8333998656
 C    1.2107677950    2.0539479264    0.0626107109
 H   -1.8755425225    2.2995634699   -0.6431547509
 H   -1.8799333763    1.3217256488    0.8275512344
 H   -1.2065945068    4.1286763856    0.8962443112
 H    0.2947402838    3.7219806154    2.8624338969
 H    0.4089707124   -0.4688804222    3.6469555772
 H    1.9302978388    1.4376812768    0.6086277870
 H    1.6944806057    2.3964280479   -0.8592351612