20

 C   -0.1680878839    1.5220038050    0.0328435593
 C   -0.0218429668    0.0186081876   -0.0533563823
 C    0.6113228720   -0.8016024608   -1.1324879614
 C    1.5607383819   -0.2548774257   -2.1870039500
 C    1.3673009271    1.1632660689   -2.7668430893
 O    2.3206079028    1.7207711729   -1.8325001068
 C    2.7179975793    0.3953421334   -1.3905906369
 C    2.4826648826    0.0563445335    0.0916190182
 N    1.2274288509   -0.7144609838    0.2241400617
 H    0.6645016461    2.0689985523   -0.4074465841
 H   -1.0943020476    1.8350293476   -0.4616705333
 H   -0.2512605574    1.8149216737    1.0859447763
 H   -0.8602126964   -0.4856020681    0.4299042405
 H    0.1475890177   -1.7570669413   -1.3669873197
 H    1.8155812709   -1.0272402481   -2.9134795341
 H    1.7188696572    1.2718249234   -3.8001034468
 H    0.3754995891    1.6152999170   -2.6725411847
 H    3.7440018475    0.1839893263   -1.7130083243
 H    3.2928165146   -0.5855667567    0.4533695725
 H    2.4764153124    0.9599638328    0.7095478652