22

 C    0.1307759819    1.6323029469    0.2488262753
 C   -0.0460212723    0.1315723729   -0.0348896874
 O    0.4556526618   -0.6299773322    1.0622585800
 C   -1.5208843983   -0.2445004415   -0.3232068380
 C   -2.5160696662    0.0604966392    0.7916710465
 O   -2.1413956935   -0.6911684544    1.9534360922
 C    0.7899901724   -0.2538607143   -1.2549558431
 C    2.2171169124   -0.6184358829   -1.1121011197
 N    1.2081264484   -1.6481799969   -1.4417655694
 H    1.1877263971    1.8451978866    0.4265268931
 H   -0.2085881756    2.2439694366   -0.5946233258
 H   -0.4254492353    1.9384716469    1.1400624261
 H   -0.2736698650   -0.7379155984    1.6897921145
 H   -1.8562968078    0.2812326538   -1.2248957628
 H   -1.5611008015   -1.3165221025   -0.5464098073
 H   -2.5303386369    1.1352291460    1.0181630572
 H   -3.5277035437   -0.2234787837    0.4686152553
 H   -2.6588232031   -0.3862088400    2.7041394511
 H    0.4714086348    0.2385498791   -2.1726041247
 H    2.9189200542   -0.3887127471   -1.9089924815
 H    2.6327402441   -0.6244146474   -0.1098033558
 H    0.9918530424   -2.1370914569   -0.5733400856