19

 C   -0.0502664385    1.5580112177    0.0636344257
 C    0.0433537133    0.0504645286    0.0690009583
 C    1.3307563154   -0.7159575860   -0.2223638500
 N    2.5953258936   -0.0614349457   -0.0577048812
 C    2.7322176352    0.4644334691    1.2250359474
 O    3.5737149393    1.2478456508    1.6037018679
 N    1.7064083990   -0.0927282830    1.9794343033
 C    0.7259779358   -0.7633615846    1.1659502011
 C    0.0795623684   -1.9823490925    1.7729671415
 H    0.8440086416    2.0335067728    0.4730812424
 H   -0.1874786299    1.9352697214   -0.9556266937
 H   -0.9048597607    1.8967120218    0.6593208219
 H   -0.8326324045   -0.4534530874   -0.3337179489
 H    1.3146856114   -1.5791817603   -0.8795304674
 H    3.0462854609    0.4392900868   -0.8063552917
 H    1.4773397394    0.3489245605    2.8550630306
 H   -0.5638056793   -1.7081431456    2.6174929718
 H   -0.5457381119   -2.4969735934    1.0380082742
 H    0.8376028014   -2.6824458510    2.1379923867