17

 C    0.0030898761    1.6075693664    0.0109080456
 C    0.0419711273    0.0733473668    0.0117678946
 C    0.6875475381   -0.5044756142   -1.2495237087
 O    2.1200890028   -0.3479234668   -1.2858603456
 C    2.8486114163   -0.8644940207   -0.2670124958
 O    4.0071714309   -1.1350954405   -0.4156384267
 C    2.1481631845   -0.9938802249    1.0642815362
 O    1.8963181492    0.2755402435    1.6859775115
 C    0.7760710183   -0.4796308490    1.2320517964
 H    1.0120714282    2.0186147592   -0.0600581081
 H   -0.5852443016    1.9731957313   -0.8360574609
 H   -0.4495959588    1.9888842424    0.9306614910
 H   -0.9855781571   -0.3093978925    0.0396476203
 H    0.4548088085   -1.5725595398   -1.3432125393
 H    0.3300370876    0.0009058983   -2.1495611075
 H    2.5645022959   -1.7560666585    1.7173869617
 H    0.1694335638   -0.8913417310    2.0377138653