16

 N   -0.0349958468    1.2860276475    0.0083279119
 C   -0.0242386133    0.0236251377    0.0027531885
 O   -1.1831825594   -0.6587326462    0.0085566968
 C   -1.0770695081   -2.0833962543    0.0005481751
 C   -2.4587982745   -2.6468307899    0.0101821365
 C   -3.6517996210   -1.9749507129    0.0214310678
 N   -4.6144311870   -2.9615389973    0.0265282691
 C   -3.9687294867   -4.1603926633    0.0179760009
 N   -2.6645677531   -4.0077571674    0.0081419418
 H    0.9195834969    1.6394538713    0.0026614553
 H    0.8661908834   -0.6208746725   -0.0068826318
 H   -0.5309053980   -2.4195613217   -0.8920664496
 H   -0.5150828474   -2.4286110157    0.8797645845
 H   -3.8903455533   -0.9261470060    0.0263163291
 H   -5.6099887059   -2.8173399313    0.0350938782
 H   -4.4970338959   -5.1020037380    0.0196242459