21

 C   -0.0381821659    1.5928704019   -0.0091924902
 C    0.0119278079    0.0615216598    0.0602110444
 C    0.7699858780   -0.5926017181   -1.1425776737
 C    1.5753765396   -1.8033832120   -0.5777500581
 C    1.6008789309   -1.4920250369    0.8906649611
 C    0.7723089176   -0.5088424553    1.2278835826
 C    0.7830604861   -0.3135303716    2.7111586778
 O    1.7503904031   -1.2587026781    3.1882915750
 C    2.2561209206   -2.0575553636    2.1101479282
 H    0.9723075889    2.0160455393   -0.0175298778
 H   -0.5503205866    1.9254392266   -0.9182476098
 H   -0.5739280785    2.0159004034    0.8471064146
 H   -1.0259029204   -0.3054678623    0.0902947341
 H    0.0947663544   -0.8774759985   -1.9540232709
 H    1.4700911396    0.1431386454   -1.5535222166
 H    1.0686747112   -2.7594836303   -0.7708086146
 H    2.5697877387   -1.8878204883   -1.0313182553
 H    1.0841773143    0.6987903226    3.0215623642
 H   -0.1972883535   -0.5137179538    3.1752944031
 H    2.0043870509   -3.1179456348    2.2783844146
 H    3.3548415431   -1.9874679054    2.0906344274