13

 O    0.0138125713    0.0247744055   -0.2623381081
 C   -0.0004238604    1.2038184458   -0.0727779080
 C   -1.0476934778    2.2735162075    0.2874684585
 O   -0.0045137216    3.2783910372    0.2568820050
 C    1.0017535290    2.3183631794   -0.0785621000
 C    2.4075215479    2.3519934411    0.4473840989
 C    2.1402796255    2.5846855527   -1.0202445058
 H   -1.8229238354    2.4457289360   -0.4676643501
 H   -1.5051801871    2.1689951480    1.2777437185
 H    2.6644077628    3.2131129223    1.0544664648
 H    2.8465075695    1.4109203161    0.7610980887
 H    2.3924585809    1.8062691210   -1.7324364141
 H    2.2191426956    3.6008131176   -1.3908276885