21

 C    0.0132224558    1.5015910512   -0.1911507469
 C    0.0112198283    0.0495220595   -0.0859800608
 C    0.0108621639   -1.1537156042    0.0011828192
 C    0.0019653131   -2.5891732356    0.1034903328
 C    0.5709722154   -3.4128273967   -1.0958466389
 C   -0.7072293784   -4.3010517625   -1.1126929964
 C   -1.3155205751   -3.4837225558    0.0553734245
 C   -0.9959996983   -4.0309284880    1.4661897217
 C    0.3311418184   -3.2182157979    1.4993818838
 H    0.6401620424    1.8417227487   -1.0232780846
 H   -0.9971787486    1.8913854242   -0.3602711079
 H    0.3970752061    1.9688182467    0.7229153447
 H    0.6871372120   -2.8084016558   -1.9972967218
 H    1.5191744689   -3.9195443414   -0.8946713636
 H   -1.2727343588   -4.2263844908   -2.0443455806
 H   -0.5534493822   -5.3622776130   -0.8956430566
 H   -2.3039540433   -3.0524555835   -0.1044736145
 H   -1.7095600697   -3.7034159539    2.2262218133
 H   -0.9019241504   -5.1187235903    1.5358670836
 H    1.2540668430   -3.8047642532    1.5177192664
 H    0.3768267772   -2.4790402476    2.3007703426