23

 C   -0.9516804131    0.6397906062    0.3285561517
 O   -0.2166939073   -0.5546018925    0.1933945887
 C    0.9185747596   -0.6120642605    1.0338496246
 C    0.5990546526   -1.0210590636    2.5015112126
 C    0.9486706858   -2.4943231564    2.1454156218
 C   -0.2763358338   -3.3647266164    1.9170441323
 O   -0.8902809857   -3.5716400114    3.1851869604
 C    1.6548509098   -1.9678982856    0.8518278205
 C    1.5446599115   -2.7056660357   -0.4758286292
 H   -0.3350426736    1.5207821636    0.0898254966
 H   -1.7858138719    0.5907167910   -0.3758450814
 H   -1.3540886281    0.7694232054    1.3440831564
 H    1.5231070330    0.2972827269    0.8952900863
 H    1.2950198632   -0.5775987912    3.2183442767
 H   -0.4217854192   -0.8429986909    2.8469134547
 H    1.6036308247   -3.0046671900    2.8575992430
 H   -0.9644160602   -2.8649036356    1.2205303863
 H    0.0230383070   -4.3232947901    1.4630763707
 H   -1.7055465444   -4.0614015840    3.0443674500
 H    2.7125091469   -1.8043287043    1.0865318645
 H    0.5051536794   -2.8283544023   -0.7868757511
 H    2.0594418557   -2.1515578924   -1.2680837961
 H    2.0073635677   -3.6963795199   -0.4104091299