16

 O    0.0403176154    1.3859215265   -0.0110944041
 C    0.0756454037    0.0321174791   -0.0677085686
 C    0.0480044912   -0.7664274003   -1.1805732217
 N    0.0142181060   -0.7349279362   -2.5935140710
 C    0.3565648090   -2.1217956882   -2.9884282423
 C    0.0149779955   -3.0371995494   -1.7717088586
 N    0.0943955247   -2.0622406544   -0.6966838532
 C    0.1372378086   -1.9977585341    0.6567631664
 N    0.1232937962   -0.7375862809    1.0632859970
 H    0.0788777228    1.6101467564    0.9264291688
 H   -0.9049536101   -0.4748547646   -2.9397367311
 H   -0.1705505198   -2.4126199453   -3.8987498929
 H    1.4328351402   -2.1749048714   -3.1838254816
 H   -0.9924359870   -3.4670922584   -1.8351479910
 H    0.7353282255   -3.8490589095   -1.6478900463
 H    0.2082837182   -2.8651143591    1.2937195201