18

 O    0.6280208771    2.5562266342   -1.9625446483
 C    0.2644849483    1.9049699903   -1.0083807157
 C    1.1234026047    0.7979018751   -0.4146039419
 C    2.0251112011    1.3796750410    0.6676184732
 C    3.4596732229    1.0025212995    0.7158673962
 N    3.0585968397    2.3572187175    0.3012059054
 C   -1.0438013324    2.2264593836   -0.3402018324
 C   -2.0418069724    1.1667412951   -0.0836896977
 O   -1.2639710964    1.7050466975    0.9736525046
 H    0.5130756054   -0.0006861322    0.0173310193
 H    1.7288298452    0.3884934629   -1.2285669967
 H    1.5112172358    1.6136899093    1.5963531069
 H    3.9799708493    0.9498600053    1.6680367870
 H    3.8232368929    0.3077487126   -0.0374827228
 H    3.0986950219    2.4478663387   -0.7121315403
 H   -1.3982096761    3.2402628220   -0.5161259461
 H   -3.0958038059    1.4380559834   -0.0833104253
 H   -1.8218385809    0.1361539942   -0.3576692554