21

 C   -0.0284404266    1.1405689765    0.4780088128
 O   -0.1791819183    0.0792329823   -0.4483503010
 C   -1.3642302139   -0.6219757430   -0.2833872162
 C   -1.4466670033   -1.9785304578   -0.9022885431
 C   -0.3047173767   -2.5554594859   -1.7101091120
 C   -1.3849861442   -1.8605487458    0.6343176115
 C   -0.1145001082   -2.2593440412    1.3717678302
 C   -2.6104452202   -2.1122125233    1.3405828329
 C   -3.6395954928   -2.3147596837    1.9321355490
 H    0.9112234686    1.6431929476    0.2386268296
 H   -0.8533287218    1.8629187121    0.3930002844
 H    0.0089963463    0.7754522005    1.5130563359
 H   -2.2584989531    0.0022782981   -0.2738131786
 H   -2.4321764893   -2.2422336205   -1.2745431885
 H    0.6600722640   -2.1497962319   -1.4035332007
 H   -0.2701407723   -3.6460589058   -1.6200011522
 H   -0.4381648884   -2.3131881480   -2.7697542113
 H    0.7683552230   -1.8387817012    0.8877122204
 H   -0.1455195210   -1.8959373191    2.4030799272
 H   -0.0072940362   -3.3480847643    1.4067941394
 H   -4.5455564457   -2.4981974058    2.4540014805