17

 C    0.0128440509    1.5461343764   -0.0345451359
 C   -0.0171998820    0.0521750792    0.0487435154
 C   -1.1078326260   -0.7626019503    0.0643426281
 N   -2.4229145096   -0.4030594687    0.0936501759
 C   -0.7134078489   -2.2095369633    0.0592157748
 N   -0.0053431599   -2.5781348530   -1.1988194597
 C    0.7592565057   -2.2248600688    0.0324302990
 C    1.2021002144   -0.7632882858    0.0519714789
 O    2.3535105492   -0.3768952381    0.0704727783
 H    1.0456812222    1.8716668718   -0.1848173470
 H   -0.5902919750    1.9307518997   -0.8678816290
 H   -0.3551957536    2.0224688888    0.8829906785
 H   -2.6527192879    0.5547115001   -0.1236123329
 H   -3.1025857084   -1.0773532844   -0.2206099976
 H   -1.3088929631   -2.9486028889    0.5844952573
 H   -0.0044246170   -3.5963971360   -1.2799301028
 H    1.3609699092   -2.9804799988    0.5228340588