17

 C   -0.0097862985    1.5496778498    0.0230342444
 O    1.3118790009    2.0864773749    0.0136150915
 C    2.3232870617    1.0748640005   -0.0315412269
 C    2.1258100171    0.1331454129    1.1464111892
 C    0.9126092810   -0.4260725205    1.1561300051
 C    0.0419544690    0.0008820637   -0.0149853949
 C    0.8069202163   -0.3953430457   -1.2920232019
 O    1.1217923805    0.6530830258   -2.2220855787
 C    2.1282841890    0.2186795558   -1.3027683793
 H   -0.5232136255    1.8804821501    0.9348021620
 H   -0.5449245364    1.9313550310   -0.8521428982
 H    3.2779578948    1.6016656715   -0.0180957105
 H    2.8795278224    0.0031313091    1.9137745551
 H    0.5370489359   -1.0718503481    1.9415087132
 H   -0.9651391169   -0.4187921461    0.0199557609
 H    0.6113462859   -1.3687334842   -1.7351550198
 H    2.9985441529   -0.2638429302   -1.7417803812