8

 N    0.0068637129    1.3543886388    0.0098030736
 C    1.2877308849    1.7751224177   -0.0006303393
 N    2.1022228334    0.7378995984   -0.0143837260
 C    1.2386759646   -0.3171902112   -0.0115535850
 N   -0.0452811419    0.0014633793    0.0029412768
 H   -0.8459890948    1.8890884125    0.0211917297
 H    1.5694263080    2.8172545796    0.0022548317
 H    1.5661064428   -1.3457822952   -0.0204190516