19

 C   -0.1118703280    1.5582650792    0.0805129742
 C   -0.0388428110    0.0273727327    0.0286676479
 C    1.1470551150   -0.5189703414   -0.8356248799
 N    1.9359139085   -0.7342686903    0.4028247307
 C    0.7241722298   -0.6117369379    1.2182492912
 C    0.6696567353   -0.2546476522    2.6662429157
 C    0.2011124423   -1.6221480576    2.1904185989
 C   -1.3412199136   -0.5578903882   -0.2581776009
 N   -2.3778110749   -1.0255672218   -0.4690786198
 H    0.8802208213    1.9604214858    0.2994613102
 H   -0.4555314355    1.9625909399   -0.8759448379
 H   -0.8029381195    1.8918611487    0.8594482763
 H    0.8815773940   -1.4322240113   -1.3788438995
 H    1.5891968104    0.2021836670   -1.5296763521
 H    2.3873577741   -1.6414403623    0.4552276729
 H    1.6150239156   -0.1954108113    3.1957613236
 H   -0.0800751096    0.4541659342    3.0030160419
 H   -0.8630673391   -1.8359908507    2.1951182042
 H    0.8311920547   -2.4781723426    2.4133975823