20

 O    0.1448244533    1.3876904368   -0.1236924400
 C    0.0264398871   -0.0227592924   -0.0556713654
 C    0.8130300748   -0.5424529356    1.1623141989
 O    0.5539116508    0.2514953009    2.3111810103
 C   -0.7153278524    0.0567986037    2.9322986289
 C   -1.8881761127    0.6622608379    2.1605486582
 N   -2.3361089774   -0.2080350862    1.0736575675
 C   -2.5767450709    0.3778706611   -0.2451851269
 C   -1.4154933402   -0.5206840532   -0.0213694698
 H    0.3783725123    1.6768453441    0.7690712449
 H    0.4851349464   -0.4382214209   -0.9644545768
 H    0.5810144650   -1.6008819086    1.3514316186
 H    1.8880283298   -0.4455446389    0.9811251640
 H   -0.8952882532   -1.0159882962    3.0961578094
 H   -0.6306384977    0.5450388379    3.9079585498
 H   -2.7322065403    0.7821857541    2.8522681021
 H   -1.6041062386    1.6709035238    1.8245851157
 H   -3.4615434197    0.0255431067   -0.7693472522
 H   -2.3406271533    1.4309570365   -0.3789262980
 H   -1.4926929631   -1.5586640314   -0.3487058790