16

 C    0.0467105218    1.5027181200   -0.1624711439
 N    0.0180374959    0.0536479698    0.0185235867
 C   -1.0400184823   -0.5609906529    0.9270322024
 C   -0.1195692531   -1.8079754660    0.9845272416
 C    0.7662185000   -0.5480655114    1.2052736184
 C   -0.3192241327   -0.0237664842    2.1972266599
 C    2.2018690865   -0.4718180461    1.3331664185
 N    3.3501842973   -0.3990723980    1.4461456555
 H    1.0251514650    1.7769130076   -0.5684323879
 H   -0.7088703760    1.7604827567   -0.9111186448
 H   -0.1362109547    2.1174770875    0.7307636061
 H   -2.0991473694   -0.5189588440    0.6768670987
 H   -0.2341457794   -2.4756637296    1.8384388794
 H    0.0420626174   -2.3207326938    0.0375202543
 H   -0.3409406718    1.0488168469    2.3799760846
 H   -0.4468460045   -0.5841549627    3.1261066404