22

 C   -0.0487488936    1.4560789232    0.1335596142
 C    0.0101504202   -0.0642780869   -0.0554282783
 C    0.8342701508   -0.4729279855   -1.3031428660
 C    2.2286531451   -0.7591780095   -0.7259318001
 C    1.8747211452   -1.3340517537    0.6456784794
 O    0.7206806254   -0.6159022681    1.0744696428
 C   -1.3999264891   -0.6418421838   -0.0820354059
 C   -1.6773161640   -2.0224613059    0.3736124763
 N   -2.1275042909   -0.8647225308    1.1741171481
 H    0.9558456186    1.8888161968    0.1096905061
 H   -0.6473426825    1.9230292142   -0.6553028377
 H   -0.5036815668    1.6993792937    1.0976168070
 H    0.4138014122   -1.3800373065   -1.7491800065
 H    0.8370713354    0.3064811472   -2.0686105054
 H    2.8176968217   -1.4468118230   -1.3377512399
 H    2.7997687002    0.1678571164   -0.6121869303
 H    1.6534020605   -2.4104077788    0.5724392978
 H    2.6576248691   -1.1992227219    1.3983024673
 H   -2.0195761342   -0.2287090999   -0.8770964815
 H   -2.4724219571   -2.6001855382   -0.0893332636
 H   -0.8456799941   -2.6061336719    0.7560874323
 H   -1.4631347523   -0.7480305573    1.9381443638