18

 O    0.2603476767    1.5256339680    0.1519930865
 C    0.2835942765    0.1105520701    0.1043976764
 C    0.2474069806   -0.5671750829    1.5016162750
 C   -1.2933282110   -0.6116990200    1.3978631126
 O   -1.8084237045    0.5940088990    1.9521359537
 C   -1.1322749131   -0.4946035679   -0.1542078109
 N   -2.0371592947    0.3518031672   -0.8830392205
 C   -3.0642005093   -0.1312154586   -1.6381495202
 O   -3.4220446741   -1.2889277734   -1.6595474451
 H   -0.3040256565    1.7611230845    0.9028511240
 H    1.0798802196   -0.1667034438   -0.5891729289
 H    0.6892649686   -1.5663125021    1.4892483096
 H    0.6581157664    0.0068785922    2.3346058087
 H   -1.8227278433   -1.4866455822    1.7904830512
 H   -2.6641517435    0.7535753101    1.5343784803
 H   -1.0953125532   -1.4835619547   -0.6161707298
 H   -1.7248153431    1.3042763145   -1.0176218256
 H   -3.5543403620    0.6675295001   -2.2293906771