18

 C    0.1121810295    1.5542120700    0.0099701602
 C    0.0368370875    0.0293339799   -0.0570042833
 C   -1.4226283922   -0.5067212910    0.0226758197
 O   -2.1182194826   -0.0553738616    1.1763730710
 C   -1.6156963620   -0.4952889393    2.4313997551
 C   -2.2024897062   -0.0537598669   -1.1365010217
 C   -2.8098624109    0.3170552525   -2.1023814830
 C   -1.3746035921   -1.9973717237   -0.0014303043
 N   -1.3083699236   -3.1506806730    0.0139588146
 H    1.1547162651    1.8795405178   -0.0431269631
 H   -0.4306513573    2.0107138727   -0.8219272814
 H   -0.3184305086    1.9339435772    0.9399624684
 H    0.4709019287   -0.3424477529   -0.9902492239
 H    0.6102824488   -0.4264100710    0.7562833179
 H   -1.5438674317   -1.5889465744    2.4793354855
 H   -0.6358757417   -0.0596394058    2.6641624901
 H   -2.3382017709   -0.1523867264    3.1739972609
 H   -3.3612103397    0.6391795860   -2.9517646328