20

 C   -0.0643550729    1.5386152613    0.0304294516
 C    0.0871993794    0.0376601222   -0.0218222566
 N   -0.7677986782   -0.8187376550    0.8463924374
 C    0.6621355316   -0.7173448797    1.1468315701
 C    1.4701237411   -1.9982346700    0.9763870732
 C    1.7878694224   -2.3320651123   -0.4914590710
 C    0.5960120234   -2.0392682670   -1.4256765121
 C    0.2919073941   -0.5533143508   -1.3928662306
 O    0.2645474593    0.1424947612   -2.3847664304
 H    0.8037893705    2.0337670137   -0.4134125176
 H   -0.9425795492    1.8583603417   -0.5381153867
 H   -0.1686730844    1.8822463713    1.0645790164
 H   -1.3081784797   -0.2174634686    1.4644210500
 H    0.9401600355   -0.0946766339    1.9954381789
 H    2.4040076039   -1.9151636416    1.5423949884
 H    0.8961577701   -2.8153485578    1.4286391479
 H    2.6464261127   -1.7354842960   -0.8245617464
 H    2.0859115781   -3.3814608248   -0.5817290307
 H    0.8124565580   -2.3191660338   -2.4588920098
 H   -0.2865311260   -2.5912874900   -1.0834492520