25

 C   -0.0153893896    1.6274266889    0.0090342620
 C    0.0534788262    0.1084804564    0.0152036328
 C    1.0559456824   -0.6072824778   -0.9345615776
 C    1.3665643712   -1.6160679257    0.1949463698
 C    0.7508286865   -0.6093614720    1.2056603117
 C    0.7462949909   -3.0405582315    0.1800904702
 C    2.0157844873   -3.5650718808    0.9094838179
 C    2.5944569647   -4.9116541086    0.5046883436
 C    2.7437814779   -2.2643412403    0.4650997642
 H    0.9796587164    2.0646102383    0.1528452624
 H   -0.4102779381    2.0055526032   -0.9409130169
 H   -0.6622790167    2.0023996281    0.8104931338
 H   -0.9495419003   -0.3087508158   -0.1287428603
 H    0.6749291602   -1.0094072924   -1.8785192032
 H    1.9214390723    0.0301021522   -1.1523973072
 H    1.5217258443    0.0276781253    1.6551789926
 H    0.1203822387   -1.0094010600    2.0057716635
 H   -0.2227711702   -3.1812010803    0.6687736731
 H    0.6831350103   -3.4383338719   -0.8396844267
 H    1.8529044212   -3.5420816084    1.9928978244
 H    2.7641117570   -4.9550103788   -0.5775625393
 H    3.5545060788   -5.0988525563    0.9992355693
 H    1.9190200376   -5.7335927203    0.7685320539
 H    3.3033433868   -2.4199743274   -0.4652005225
 H    3.4010672841   -1.7688548439    1.1864896685