18

 C    0.0035233701    1.4859701287    0.0549412192
 C    0.0064187689    0.0296412061    0.0352900855
 C    0.0432349805   -1.1762854972    0.0318248926
 C    0.0480421891   -2.6105863317    0.0048060089
 C   -0.4739286979   -3.4040551455    1.1999553900
 C   -1.2748860898   -3.3561774259   -0.0703474328
 N   -2.4683374953   -2.5759799419   -0.1503394109
 C   -3.6997245832   -3.1388317895   -0.2670934342
 O   -3.9235539137   -4.3307242184   -0.2552852311
 H    1.0167769456    1.8782767635    0.1949919630
 H   -0.3860336915    1.9013888038   -0.8810167587
 H   -0.6147388032    1.8714878427    0.8730934109
 H    0.8675761765   -3.0591611106   -0.5485221136
 H    0.0375674246   -4.3256293982    1.4535499062
 H   -0.8434103736   -2.8298351129    2.0410301807
 H   -1.3147466112   -4.2532379861   -0.6774670780
 H   -2.3663151478   -1.5741100145   -0.2330980044
 H   -4.4911691780   -2.3711592126   -0.3808855334