16

 C   -0.0175644188    1.4840690682    0.0104207122
 C    0.0032844325    0.0303223160    0.0026456385
 C    0.0191459300   -1.1762038381   -0.0037983015
 C    0.0379422161   -2.5989340121   -0.0116775278
 C    1.2440436029   -3.3150662391   -0.0223173796
 C    1.2033450212   -4.7035703319   -0.0296289143
 N    0.0750519947   -5.4204408093   -0.0272079256
 C   -1.0716931201   -4.7335734065   -0.0170498212
 C   -1.1488962574   -3.3466051370   -0.0090806104
 H    0.9969093484    1.8965669285    0.0029699923
 H   -0.5446342808    1.8761888482   -0.8665463118
 H   -0.5278485245    1.8669319874    0.9013009810
 H    2.1916357920   -2.7896176541   -0.0247635231
 H    2.1307569660   -5.2717369988   -0.0379107947
 H   -1.9838371070   -5.3259968905   -0.0151454241
 H   -2.1099400153   -2.8462451008   -0.0009649902