22

 C    0.0269944704    1.5290716887   -0.3630671348
 C   -0.0274303555    0.1099598215    0.2194580949
 C   -1.4077370200   -0.5345120065    0.1489247623
 C   -2.4789608447    0.1786415300    0.9585743358
 C   -1.8397539484   -1.1775444199   -1.1508476689
 C   -1.5509266201   -2.0422590613    0.0543454526
 C   -0.3978842118   -3.0115783589    0.0587289477
 O   -0.8511891057   -4.2197245396   -0.5438614088
 H    1.0494237582    1.9188652101   -0.3381613102
 H   -0.3114657063    1.5379671191   -1.4046027265
 H   -0.6030732123    2.2260216471    0.1973926090
 H    0.6986983676   -0.5100125466   -0.3156838642
 H    0.3059324207    0.1354050580    1.2663059178
 H   -2.6408086762    1.2024919666    0.6051378877
 H   -3.4373349890   -0.3451419724    0.8915353718
 H   -2.2021731143    0.2326261361    2.0186355038
 H   -2.8683166897   -1.0638231250   -1.4767227756
 H   -1.1199169907   -1.2108418231   -1.9635707616
 H   -2.4222545650   -2.4506593788    0.5607758400
 H    0.4605164999   -2.6007626947   -0.4927613393
 H   -0.0637298417   -3.1936514387    1.0936130262
 H   -0.1400431555   -4.8647609718   -0.4849110495