17

 C    0.0847834761    1.5357822995    0.1606541597
 O    1.5141832123    1.4294260698   -0.1384081268
 C    1.2753987027    0.2074547223   -0.9042458356
 C    1.5589471160   -1.2224554251   -0.4027284698
 C    0.7922722701   -0.8329706250    0.8939943038
 C   -0.0482620196    0.0432328538   -0.1336838464
 C   -0.7939007187   -1.0516009499   -0.8890691991
 O   -0.2844171067   -1.2813765959   -2.2158989530
 C    0.3586602001   -1.9489656639   -1.1199796025
 H   -0.0948442701    1.8758023954    1.1852005755
 H   -0.4170570872    2.2003832386   -0.5540614592
 H    1.3225820099    0.4096532591   -1.9723914442
 H    2.5221009010   -1.7345905991   -0.4163554263
 H    0.2546348043   -1.6303575869    1.4127689663
 H    1.3748477361   -0.2342891686    1.5931008387
 H   -1.8074908414   -1.3838531953   -0.6944981516
 H    0.3016899251   -3.0327308388   -1.1232232094