22

 C    0.0138416940    1.5276554659    0.0245711524
 C   -0.0437209032   -0.0059311042   -0.0064343879
 C   -1.5108599299   -0.4693310602    0.0407909281
 C    0.6700291188   -0.5328374610   -1.2748441771
 C    0.8910656362   -2.0522267841   -1.2330965247
 C    1.5454938037   -2.4524519278    0.0904850777
 O    0.8058756692   -1.9789364513    1.2042041152
 C    0.7132765560   -0.5650739026    1.2158792751
 H    1.0472073769    1.8916168650    0.0004562086
 H   -0.5090107338    1.9542473115   -0.8385512365
 H   -0.4612148124    1.9250063632    0.9288412306
 H   -2.0471744371   -0.1710051334   -0.8667751301
 H   -1.5856877868   -1.5542441823    0.1450300010
 H   -2.0287393726   -0.0203519814    0.8957776402
 H    0.1038529667   -0.2485448980   -2.1698858018
 H    1.6474106767   -0.0365255544   -1.3540968135
 H   -0.0623846635   -2.5822019184   -1.3363470210
 H    1.5253481470   -2.3708229633   -2.0687005656
 H    1.5999317193   -3.5398244819    0.1988593317
 H    2.5763565854   -2.0567804435    0.1322564586
 H    1.7253924133   -0.1238229184    1.2537552112
 H    0.1971584160   -0.3011863595    2.1453136479