18

 C    0.0321087059   -1.1190920891    0.3346175642
 C    0.0023498434    0.0516632162    0.0658557357
 C   -0.0328196170    1.4793892239   -0.2334418832
 N    1.2960670953    2.0880486416   -0.1000356897
 C    1.3853570096    3.5439354160   -0.0937794744
 C    1.1815048484    4.0666237708    1.3560106229
 C    0.9800332704    2.8294780502    2.2286859850
 C    1.9565816903    2.1194988442    1.2411582742
 C    2.5227033715    3.5454136145    0.8688184184
 H    0.0552391526   -2.1559049934    0.5620456756
 H   -0.3533985794    1.6298313905   -1.2727298254
 H   -0.7992521965    1.9611460786    0.3967988617
 H    1.2126229717    4.1541147808   -0.9721335903
 H    0.9024501364    5.0926688993    1.5597174745
 H    1.4615527243    2.9576561038    3.2014236181
 H   -0.0212444702    2.4101939734    2.3726082449
 H    2.5128479232    1.2299360757    1.5273099959
 H    3.5160974001    3.9652522629    0.8243912421