11

 C   -0.0064764843    1.4524495481   -0.0020962486
 N    0.0136690961    0.0034151249   -0.0366298939
 C    0.0632045690   -0.8398356786   -1.1084264781
 N    0.0682509444   -2.0866799528   -0.7791749536
 O    0.0180083621   -2.0801548730    0.6378897461
 C   -0.0159018827   -0.7943636699    1.1035858233
 O   -0.0611857536   -0.4602657189    2.2544789067
 H    0.8992591012    1.8685491001   -0.4520546756
 H   -0.8848400976    1.8451472673   -0.5218662603
 H   -0.0513096423    1.7407300192    1.0494443760
 H    0.0950839077   -0.5055411664   -2.1350956921