21

 C    0.0691699777    1.4840066978    0.1021086150
 C   -0.0837783156   -0.0268530538   -0.0473717162
 C   -1.5618372138   -0.4287665032   -0.1087757969
 C    0.7050088962   -0.5454806463   -1.2640759006
 N    0.8865341099   -1.9906785841   -1.2809685693
 C    1.5240945831   -2.4359156051   -0.0442910791
 C    0.9289011247   -1.8685924101    1.2302757730
 N    0.9553495261   -2.5282732815    2.3109488230
 O    0.4710379026   -0.5836742908    1.1819172611
 H    1.1244713305    1.7545831660    0.1972165408
 H   -0.3456668825    1.9997116919   -0.7694537703
 H   -0.4565728348    1.8354579156    0.9941497486
 H   -2.0576073185    0.0447756211   -0.9620993642
 H   -1.6787758078   -1.5129701362   -0.2033164968
 H   -2.0729156943   -0.1180274252    0.8060471682
 H    0.2007541189   -0.2297123940   -2.1833906196
 H    1.7008188502   -0.0833220398   -1.2622975822
 H   -0.0073514622   -2.4569488885   -1.3977122717
 H    1.5121749797   -3.5243175261    0.0236584494
 H    2.5783935041   -2.1252072219   -0.0781605700
 H    0.5568930358   -1.9688864060    3.0693310381