17

 O    0.0108331831    1.3968419353   -0.0373817746
 C   -0.0020612999   -0.0020445511    0.0312694412
 C   -0.6298076436   -0.6749975918    1.2385133712
 C   -1.3686447960   -0.6516258732   -0.0639361083
 C    1.1221562668   -0.7297829600   -0.6523658418
 O    1.1996184528   -1.9352758124   -0.6268272072
 C    2.1354302269    0.1615136727   -1.3871486541
 C    3.1639438696   -0.5740750054   -2.1003855444
 C    4.0184743216   -1.1733299124   -2.6936528530
 H    0.5395032792    1.7341754816    0.6938031528
 H   -0.1826866244   -1.6099947748    1.5545302003
 H   -0.9696958075   -0.0114482817    2.0259849443
 H   -2.1970932429    0.0386945658   -0.1682179469
 H   -1.4294309706   -1.5718199936   -0.6321534740
 H    1.5739447028    0.8236737685   -2.0582407463
 H    2.5838372140    0.8406851472   -0.6487390610
 H    4.7703170083   -1.7091830247   -3.2177854183