20

 C    0.3448816177    1.3626203537    0.2021938070
 C    0.1099700705   -0.1266242481   -0.0691012340
 N    0.6440271594   -0.5780749563   -1.3516906652
 C    2.0734489929   -0.8305412646   -1.4854332390
 C    2.4904064212   -2.1431710383   -0.8627984250
 C    3.8072944900   -2.3132155074   -0.2393672034
 O    2.6348021130   -2.1614448514    0.5634852766
 C   -0.1656256054   -0.7630052638   -2.4324718310
 O    0.1979771202   -1.1265999144   -3.5328858543
 H    1.4115709881    1.6055381933    0.2193088254
 H   -0.1321617017    1.9799143549   -0.5650162228
 H   -0.0726674835    1.6377731329    1.1757689175
 H    0.5580219114   -0.7314884247    0.7245387348
 H   -0.9646020075   -0.3377542620   -0.0672688268
 H    2.2904157789   -0.8489278150   -2.5568083743
 H    2.6386198391   -0.0139293360   -1.0230552896
 H    1.9919103508   -3.0235386899   -1.2691214424
 H    4.2687319924   -3.2986907478   -0.2131466145
 H    4.5027923508   -1.4750147186   -0.2136357085
 H   -1.2244979084   -0.5419265165   -2.1927978203