21

 C   -0.5119376826    1.0777907877   -0.5005888282
 C    0.0296033498   -0.3295711069   -0.2348325470
 C    0.9958444304   -0.8553267583   -1.3254820080
 O    2.0038008305   -1.6477104602   -0.6804640882
 C    1.9348267440   -1.4645721897    0.7197626594
 C    2.2614583473   -0.0875393911    1.2354569151
 C    3.0321713530    0.8883148762    0.3565468364
 O    4.2250376751    0.3146614754   -0.1534324723
 C    0.8084863244   -0.5427807521    1.0600031177
 H    0.2888803242    1.8214872922   -0.5434356298
 H   -1.0568990018    1.1147825347   -1.4502506033
 H   -1.2060358155    1.3812568273    0.2891990029
 H   -0.8281734712   -1.0122122566   -0.1800115463
 H    0.4919258808   -1.4859791150   -2.0657354400
 H    1.4712508139   -0.0257644349   -1.8642007527
 H    2.1968074500   -2.3655953516    1.2625153849
 H    2.5723991648   -0.0785665374    2.2774585980
 H    2.4064484669    1.2773243753   -0.4567286823
 H    3.3398190636    1.7543962048    0.9512130178
 H    3.9528165707   -0.4851039003   -0.6208915327
 H    0.2273346919   -0.6809483194    1.9651111787