20

 C   -0.0148036650    1.5480362042   -0.0268813375
 C    0.0406892782    0.0193664384    0.0353401218
 O    0.6464384035   -0.5649989682   -1.1348015911
 C    1.9518878014   -1.0629999575   -0.8884274984
 C    2.7867233962   -0.0430351244   -0.0896053785
 N    2.2511733329   -0.6321000454    1.1859797322
 C    2.0103696604   -1.9315537637    0.4192610799
 C    0.6709745072   -2.1194138350    1.1241103507
 C    0.7174313447   -0.5784067187    1.2735900993
 H    0.9451784041    2.0286740900    0.1694421081
 H   -0.3620494868    1.8619306911   -1.0153096178
 H   -0.7287722464    1.9157384870    0.7182994303
 H   -0.9987883268   -0.3373722367    0.0284447442
 H    2.3133904338   -1.4732018893   -1.8344845309
 H    3.8606338995   -0.2551768921   -0.1218662966
 H    2.6299286878    1.0197022141   -0.2775190444
 H    2.7934780862   -2.6937423341    0.4549629318
 H   -0.1630168017   -2.5441976071    0.5616294309
 H    0.7948143706   -2.6424280687    2.0742813723
 H    0.3532386403   -0.1220208838    2.1970569638