17

 N   -0.0400966936   -1.2141275117    0.0860519104
 C   -0.0726383102   -0.0590910538    0.0395250036
 C   -0.0309321529    1.4099590063   -0.0209089727
 C   -0.3538340561    2.0572735741    1.3692057846
 C    1.1760704941    2.1881203496    1.5548663273
 N    1.3403541499    1.9681155922    0.0956443354
 C   -0.7944463450    1.9461170867   -1.2173023345
 C   -1.0920061711    1.1598321445   -2.4203008231
 O   -2.0970859870    1.4204109224   -1.4335051030
 H   -0.8589687046    3.0163360652    1.2448498508
 H   -0.9023054042    1.4392840715    2.0774848965
 H    1.5611418839    3.1502931268    1.9030728195
 H    1.5901964794    1.3888158712    2.1815994155
 H    2.0912213169    1.3487877655   -0.1901564717
 H   -0.7022635599    3.0287198440   -1.3058388405
 H   -1.2261943801    1.6766576195   -3.3687573185
 H   -0.7669074694    0.1238361462   -2.4849347696