18

 C    0.0736825927    1.5038592421    0.0470534518
 C    0.0104836387    0.0137040122   -0.1124019884
 N    0.0862053916   -0.5503424572   -1.2433401352
 C    0.0533271690   -2.0058651773   -1.3138717527
 C    0.4205179071   -2.6786132727    0.0092446819
 C   -0.3650669273   -1.9990589556    1.1384670014
 O   -0.1261169638   -0.5794565622    1.1176904945
 C   -1.8012405823   -2.2758633624    1.0697744224
 C   -2.9757958321   -2.5215802389    1.0093774170
 H    0.8873484648    1.7782874098    0.7260670237
 H    0.2313753236    1.9674332391   -0.9257824599
 H   -0.8557211756    1.8766598089    0.4894033054
 H   -0.9503042900   -2.3183355507   -1.6304425799
 H    0.7395064250   -2.3236568508   -2.1062461322
 H    0.2046083934   -3.7503736969   -0.0045883939
 H    1.4881806348   -2.5490313314    0.2165916942
 H    0.0110528844   -2.3241876470    2.1138671637
 H   -4.0159465840   -2.7321107089    0.9616430562