20

 C   -0.0035297720    1.5833463883    0.0103008825
 C    0.0131428103    0.0537871198    0.0020393412
 C   -1.4078480863   -0.5471698448    0.0130143001
 C   -1.4143765849   -2.0058189711    0.0053135701
 C   -1.3769303928   -3.2098157280   -0.0016179667
 C   -1.3799874333   -4.6665626120   -0.0094578723
 C   -2.8236780328   -5.2346874332    0.0005231254
 C   -2.8410924328   -6.6953025472   -0.0071419856
 N   -2.8330671733   -7.8508003144   -0.0133585305
 H    1.0125872453    1.9885185342    0.0023307012
 H   -0.5271807346    1.9802609479   -0.8665446796
 H   -0.5095800389    1.9709026439    0.9015489844
 H    0.5453428758   -0.3137566252   -0.8822955345
 H    0.5628157938   -0.3230361680    0.8716571153
 H   -1.9483990287   -0.1821336138    0.8968287303
 H   -1.9658704392   -0.1728304525   -0.8559263354
 H   -0.8550884599   -5.0471826296   -0.8933525971
 H   -0.8392534833   -5.0566440600    0.8606610461
 H   -3.3566101308   -4.8756262582    0.8866824172
 H   -3.3724836216   -4.8662004360   -0.8719721320