20

 C   -0.2970880880    1.3405105092   -0.0262617230
 O   -0.1741530369   -0.0596415575   -0.0865701963
 C    0.7973329293   -0.4839578637   -1.0184024707
 C    0.8309703483   -1.9900629431   -0.9978592747
 O    0.0015416501   -2.6950559771   -1.9283886309
 C    1.4278784052   -2.8349856367   -2.0481622212
 C    2.0406906605   -2.2483614779   -3.3036537037
 C    1.9558453653   -4.2030957662   -1.6669871447
 H    0.6489975081    1.8224679063    0.2696275561
 H   -0.6091800943    1.7665568198   -0.9930709582
 H   -1.0592218555    1.5697747196    0.7222844590
 H    0.5543994775   -0.1177293734   -2.0265967748
 H    1.7905807126   -0.0831348184   -0.7450870479
 H    0.8031331273   -2.3932541715    0.0163765199
 H    1.5852979139   -1.2945564937   -3.5735293001
 H    3.1181823598   -2.0980403248   -3.1748356969
 H    1.9008166579   -2.9378460420   -4.1434210714
 H    1.7915897713   -4.9153868579   -2.4830848178
 H    3.0323889148   -4.1656936076   -1.4675462460
 H    1.4480288729   -4.5808219634   -0.7765279670