15

 C    0.0587388317    1.4419868523    0.2886371095
 C    0.0979307027   -0.0199043004   -0.0986370881
 O    1.1036838196   -0.5692848822   -0.4786736455
 C   -1.2320363065   -0.7784888877   -0.0176739986
 C   -1.0020619093   -2.2812418906    0.2022120178
 O   -0.5480875105   -2.5694010445    1.5112778313
 C   -2.2155325396   -3.0535707221   -0.1258161642
 N   -3.1839316494   -3.6431931402   -0.3498655295
 H    1.0067278307    1.9211088623    0.0425749222
 H   -0.7675930637    1.9565407159   -0.2141210689
 H   -0.1236300795    1.5274325431    1.3666887728
 H   -1.8770779746   -0.3685519632    0.7674087493
 H   -1.7576283344   -0.6106250318   -0.9673720655
 H   -0.1904292039   -2.5926223819   -0.4627639886
 H   -1.2794326334   -2.4326591190    2.1246480262