19

 C    0.1769522401    1.2844803687   -0.0448135241
 C    0.4126691847   -0.2128982822   -0.1106450122
 O    0.3332358293   -0.6209101955   -1.4816314566
 C    0.5273544837   -1.9841089754   -1.6562053675
 C    0.7816989780   -2.4620772238   -3.0401860980
 C    1.9582236313   -2.3793616804   -2.0751453943
 O    2.8860944446   -1.3511113277   -2.2032670338
 C    2.5062142130   -3.6271924737   -1.5047686888
 O    1.8783939903   -4.6580175289   -1.4149043206
 H    0.9422618809    1.8264214630   -0.6081742076
 H   -0.8010248199    1.5379863671   -0.4627761711
 H    0.2103803698    1.6243309769    0.9942654388
 H    1.3970845562   -0.4804899823    0.2993881222
 H   -0.3471450239   -0.7549744239    0.4706955601
 H    0.0085057671   -2.6363076025   -0.9558582325
 H    0.4323351133   -3.4559439651   -3.2965052414
 H    0.7773684447   -1.7218219321   -3.8324614702
 H    2.3966405252   -0.5253044118   -2.0822391619
 H    3.5507282718   -3.5313304404   -1.1384636306