25

 C   -0.0383021031    1.4657187625   -0.5238902920
 C   -0.0496304623    0.1347973978    0.2378210159
 C   -1.3886414334   -0.5706293509    0.1485576297
 C   -1.7192817407   -1.4761035366   -1.0164627165
 C   -1.5660032930   -2.0559847033    0.3704908051
 C   -0.4227172017   -2.9910392555    0.7217139021
 C   -0.7590136137   -4.4488159464    0.4715316072
 C   -0.5336281888   -5.0748402799   -0.8813030289
 C    0.3340543577   -5.4702267050    0.2898777842
 H    0.9340405733    1.9623322889   -0.4452809826
 H   -0.2549850316    1.3105797784   -1.5859804982
 H   -0.7959610314    2.1522272385   -0.1298412400
 H    0.7428527984   -0.5115891589   -0.1561328895
 H    0.2016652783    0.3157049786    1.2915695480
 H   -2.2150414254    0.0407581471    0.5069962681
 H   -2.7052827490   -1.4279497933   -1.4659574257
 H   -0.9217339104   -1.6762510466   -1.7267485694
 H   -2.4986717460   -2.3279523293    0.8613158334
 H    0.4734097977   -2.7295954414    0.1465224406
 H   -0.1541580572   -2.8602965755    1.7798129498
 H   -1.6404220103   -4.7963831624    1.0062566272
 H   -1.2591969255   -5.7907149660   -1.2517434882
 H   -0.0865797921   -4.4600567593   -1.6557001774
 H    1.3610908643   -5.1187825005    0.2994121354
 H    0.2014504259   -6.4561009410    0.7220012219