21

 C   -0.1637717175    1.4522519410    0.0097471032
 C   -0.0591327235   -0.0382353741   -0.0709814121
 C    0.6740247055   -0.9348219704   -1.1039265214
 C    0.2204150121   -1.8081640795    0.0839644664
 O    0.6951554255   -0.7497533672    1.0054213578
 C   -1.1757759179   -1.1299418172    0.0491181179
 C   -2.0339644029   -1.1580568707    1.2771248070
 C   -3.4458484744   -0.6218175316    1.2262477246
 C   -3.2085500634   -2.1040980290    1.3569954065
 H    0.8315907399    1.9061122604    0.0349929552
 H   -0.7000063960    1.8415410187   -0.8616173671
 H   -0.7068045240    1.7516981059    0.9110924342
 H    0.2030194651   -1.0929687442   -2.0781313835
 H    1.7505455844   -0.7717078508   -1.1678415640
 H    0.4843871263   -2.8369558327    0.3298092147
 H   -1.7571691084   -1.3012887800   -0.8647007041
 H   -1.4836975730   -0.9905612559    2.1960776267
 H   -3.8209388057   -0.0793483371    2.0870962085
 H   -3.8155254091   -0.2517052068    0.2750211674
 H   -3.4183550623   -2.7276647829    0.4936171058
 H   -3.4195493107   -2.5805184860    2.3080103765