23

 C   -0.3252137506    1.4733778826   -0.0226952549
 C    0.0678295602   -0.0015695026    0.0271354548
 C    0.9261130094   -0.4817302174   -1.1602634132
 C    1.4119898857   -1.8745106509   -0.7230503050
 C    1.4815615363   -1.7990673887    0.8085094766
 C    1.4984059393   -3.0018005600    1.6503481921
 O    2.6896765832   -2.2390657395    1.4418688133
 C    0.8813465976   -0.4565972435    1.2709480570
 C    1.9792288392    0.5238064323    1.7082043782
 H    0.5532935436    2.1245148132   -0.0691410004
 H   -0.9350841493    1.6797210543   -0.9087466461
 H   -0.9109868844    1.7639299277    0.8563070004
 H   -0.8564672423   -0.5976879962    0.0188113455
 H    0.3684808683   -0.4983470331   -2.1011917319
 H    1.7761624662    0.1963524985   -1.3031346273
 H    0.6923402513   -2.6424698565   -1.0286937759
 H    2.3839217218   -2.1550911573   -1.1366052820
 H    1.0904569591   -2.9653486890    2.6606900831
 H    1.4894743752   -3.9886634335    1.1863818227
 H    0.2108735016   -0.6149702856    2.1230765690
 H    2.6459156380    0.7892682257    0.8810047504
 H    1.5462173395    1.4469633551    2.1032717828
 H    2.5957092314    0.0678376743    2.4859543806