16

 C    0.8844467655    1.3329563096    0.0704206353
 N    0.7909748028   -0.0862457109   -0.2079630553
 C   -0.1212390505   -0.6031671202   -1.0810404574
 O   -0.9280183102    0.0609978425   -1.7077332990
 C   -0.0441929476   -2.0527877160   -1.2039463041
 C   -0.0103333020   -3.2505348088   -1.3401256462
 C   -0.0091214221   -4.6773605321   -1.5039019499
 C    1.1263377982   -5.3794277567   -2.1376877389
 O    0.9382824385   -5.4319460217   -0.7309102052
 H    1.8750183467    1.7232731484   -0.1877596838
 H    0.1329774134    1.8353576068   -0.5392503763
 H    0.6878070009    1.5444552632    1.1272843874
 H    1.4040191322   -0.7282973898    0.2673768381
 H   -0.9932903745   -5.1385950588   -1.5732720547
 H    0.9341124078   -6.3049523162   -2.6783862919
 H    1.9806240609   -4.7980066695   -2.4782655182