10

 C    0.0336981118    1.4634869740    0.0860144096
 N   -0.0550619919    0.0387380627    0.3643869454
 C   -1.0991664791   -0.5870266747    0.1256482875
 O   -2.3035056007   -0.1557654169   -0.4008049702
 N   -3.1416054601   -1.2683667441   -0.4595340068
 N   -2.5507702589   -2.2630297427   -0.0307438467
 O   -1.2636349468   -1.9344700374    0.3599858911
 H    0.8602027555    1.6367346968   -0.6103063038
 H   -0.8796094126    1.8980118309   -0.3365081153
 H    0.2770397329    1.9904285515    1.0139690393