11

 N   -0.0415508605    1.4872434898    0.0720762186
 C   -0.0226866883    0.0249013444   -0.0236838606
 C   -1.3909286934   -0.5008837258    0.1507434114
 N   -2.4602043920   -0.9147240902    0.2819766209
 C    0.5676410031   -0.5069711881   -1.2634972912
 C    1.0914250897   -0.8784509498   -2.2859363405
 C    1.6819333966   -1.3002202179   -3.4432551357
 N    2.1875065589   -1.6554224931   -4.4263690503
 H    0.9106633415    1.8368226387    0.0185712382
 H   -0.5509019061    1.8790034260   -0.7150115194
 H    0.5710191004   -0.3503322241    0.8213272186