18

 N   -0.1994840694    1.3198933870   -0.1194070839
 C   -0.0594537212    0.0782239962    0.0722442586
 C   -1.2289239547   -0.8757106079   -0.0183254804
 C   -1.1304891618   -2.0664377236    0.9432579582
 C    0.2579262868   -2.6914909038    0.8235886649
 C    1.3154601659   -1.6150527319    1.1064532712
 O    1.1853777219   -0.4780665917    0.2510879453
 C    0.4783042623   -3.8834765466    1.7319820290
 O   -0.3324336865   -4.3044701721    2.5157863468
 H    0.7087133144    1.7862169269   -0.0601194146
 H   -2.1431694946   -0.2994378845    0.1296987116
 H   -1.2517866641   -1.2522379147   -1.0504920389
 H   -1.2885159897   -1.7428406279    1.9783614167
 H   -1.9088783133   -2.8027414867    0.7273229518
 H    0.4289941645   -3.0480634370   -0.2049186624
 H    1.2373349128   -1.2879189388    2.1534421769
 H    2.3297303216   -1.9885524666    0.9419916561
 H    1.4777846150   -4.3663289663    1.6275841033