17

 C    0.0619468657    1.5181563305   -0.0492742045
 C    0.0401460962    0.0639220807    0.0122567249
 C    0.0217173827   -1.1399678673    0.0633370976
 C    0.0459622321   -2.5881292969    0.0863935116
 C   -0.0867188585   -3.3241906718    1.4828529361
 C   -1.5984627504   -2.9079007521    1.4551803355
 C   -1.3283328973   -3.3688739228   -0.0192620329
 C   -0.5598562320   -4.5219362256    0.6447078128
 O   -0.4307325842   -5.7034208258    0.5731212820
 H    0.8150804329    1.8718597681   -0.7618890323
 H   -0.9074683210    1.9183540536   -0.3661506364
 H    0.2987726493    1.9552097345    0.9270708628
 H    0.8395280553   -2.9761386139   -0.5580063855
 H    0.6107706740   -3.2772439999    2.3156956355
 H   -2.2935289353   -3.5045440574    2.0474486933
 H   -1.7697498721   -1.8372195429    1.5649494991
 H   -2.0156778774   -3.3717917912   -0.8618007296