22

 C    0.2036209735    0.7994139722   -1.0354661889
 C   -0.0322033670   -0.2837874912    0.0034850077
 O   -1.3075785197   -0.8575322526   -0.2288313151
 C   -1.6391243969   -1.9590802913    0.6065673982
 C   -2.1131075324   -1.5301227606    1.9965695298
 C   -2.7187223948   -2.8159426113   -0.0794925658
 O   -3.2151698536   -3.7656792623    0.5047026255
 N   -3.0318671935   -2.4344772559   -1.3401991949
 C   -4.0225013474   -3.1200226749   -2.1417323181
 H    1.1794483427    1.2686927205   -0.8796243634
 H    0.1796205391    0.3789363673   -2.0451801977
 H   -0.5670663193    1.5723417469   -0.9659785962
 H    0.7450182360   -1.0625405777   -0.0628647497
 H    0.0197559250    0.1429477216    1.0159757913
 H   -0.7599517019   -2.6156928382    0.7096585720
 H   -2.4632985479   -2.4100954172    2.5389766107
 H   -1.3073192686   -1.0596437299    2.5663285987
 H   -2.9399829074   -0.8189308119    1.9078795303
 H   -2.5503603952   -1.6224853802   -1.6926795065
 H   -4.4140585367   -3.9447214428   -1.5444514159
 H   -4.8477592377   -2.4520960100   -2.4138265762
 H   -3.5835120363   -3.5221567805   -3.0619742258