16

 C    0.0379938232    1.4531063506   -0.0049734304
 N   -0.0020985220   -0.0014305303   -0.0173931615
 C   -0.0492795739   -0.6861031769    1.1792161873
 O   -0.0600652913   -0.1526110077    2.2677629182
 C    0.0083555481   -0.6658884677   -1.2482223433
 N   -0.0261938477   -1.9950091352   -1.3275712326
 N   -0.0021232530   -2.2433662415   -2.6553444109
 C    0.0460316735   -1.1242560315   -3.4065578760
 C    0.0547457219   -0.0603817529   -2.5285704041
 H    0.9505873813    1.8221699730   -0.4851809708
 H   -0.8294629850    1.8716235853   -0.5265158372
 H    0.0224529192    1.7661044874    1.0379314367
 H   -0.0761164251   -1.7746996112    1.0295330279
 H   -0.0210846452   -3.1992738247   -2.9654616624
 H    0.0701056548   -1.1610488333   -4.4839785438
 H    0.0891687910    0.9860452567   -2.7764748371