20

 C    0.1943992508    1.6353301904    0.0179626759
 C    0.1055826322    0.1092399104    0.0242313929
 C    0.8413817039   -0.5266584035   -1.1737464204
 O    0.8719214244   -0.0656683237   -2.2840127275
 C    1.5134537140   -1.8367120102   -0.7312615560
 C    1.5333122375   -1.7407951246    0.7755681187
 N    2.1739213367   -0.4882568220    1.2386135517
 C    0.6973249908   -0.5950321228    1.2379333277
 C   -0.0562298405   -0.6012001930    2.5421938263
 H    1.2183241176    1.9499299753    0.2379502288
 H   -0.0786275377    2.0173193288   -0.9689095968
 H   -0.4743404725    2.0792210703    0.7614888185
 H   -0.9482279143   -0.1962268731   -0.0757382487
 H    0.9041202531   -2.6818268301   -1.0770415052
 H    2.5019134570   -1.9270607817   -1.1888364093
 H    1.6322098802   -2.6354922661    1.3823305702
 H    2.5242535012   -0.6127464020    2.1856124991
 H   -0.1327398814    0.4088265018    2.9607623744
 H   -1.0750407356   -0.9815053605    2.4087135386
 H    0.4438219827   -1.2345385037    3.2830438609