15

 C    0.1184367880    1.3270114081    0.0159418660
 N   -0.0264192943   -0.1077133290   -0.0047243268
 N    0.1076004552   -0.8191114708   -1.1289253675
 C    0.0804333404   -2.0812116665   -0.7112218044
 N    0.2229588312   -3.1914051390   -1.5483190258
 C   -0.0538722377   -2.0860838903    0.6953686171
 N   -0.1990865461   -3.2009568279    1.5250472778
 N   -0.1087150046   -0.8273591483    1.1194196631
 H    1.1674494553    1.6255059918    0.1313095207
 H   -0.2653191148    1.7262401439   -0.9237434778
 H   -0.4586785657    1.7200356044    0.8538385490
 H   -0.4968039653   -3.8864468260   -1.3824814633
 H    0.2100998844   -2.9173015230   -2.5232455952
 H    0.5042766642   -3.9065320514    1.3368222443
 H   -0.1645803303   -2.9375281162    2.5023037027