17

 C   -0.5743655248    1.1678841404   -0.6937477106
 C    0.0321101652   -0.0641466416   -0.0441913894
 C    1.1993468409   -0.7280649913   -0.7026198972
 N    1.3944551829    0.0272082901    0.5400347636
 C   -0.8959372810   -0.8719183394    0.7121469380
 C   -1.6987420057   -1.5318064834    1.3176102755
 C   -2.6532139087   -2.3410612384    2.0705467163
 C   -3.3822982392   -3.3038192484    1.2328773895
 N   -3.9625634266   -4.0627428162    0.5845471028
 H    0.1785757126    1.7009545760   -1.2831933025
 H   -1.3975994899    0.8919527741   -1.3594533238
 H   -0.9696978324    1.8513125814    0.0643866022
 H    1.3271668752   -1.8017844411   -0.6092386676
 H    1.5434905076   -0.3037179812   -1.6425997706
 H    1.7767756235    0.9473880970    0.3316116631
 H   -2.1385816980   -2.8987140091    2.8637524297
 H   -3.3895623016   -1.7024248790    2.5755231709