21

 C   -0.0802298714    1.6313021077   -0.0740329159
 C    0.1436785965    0.1318602150    0.0345843926
 C    1.3875620979   -0.6994946422   -0.2099774439
 C    2.6911539560   -0.2008265431    0.4924680647
 C    4.0857899526   -0.5144478595    0.0655087236
 O    2.4311913512    1.0504637565    1.1524691170
 C    2.0158844665   -0.1695171805    1.7870113729
 C    0.6867173315   -0.7104823862    1.1615806234
 C   -0.0647278205   -1.8242539401    1.8338286679
 H   -0.1610092891    1.9164672871   -1.1296222437
 H   -1.0301033613    1.8954311219    0.4058250135
 H    0.7156908372    2.2105407700    0.3823986409
 H   -0.6993099023   -0.4075760307   -0.4043171061
 H    1.4073268524   -1.5000667349   -0.9411098002
 H    4.3353732158    0.0108366552   -0.8638545984
 H    4.7977878037   -0.2076008032    0.8362045129
 H    4.2029870526   -1.5880628384   -0.1156000113
 H    2.3693952550   -0.3563219051    2.7957104817
 H   -0.6224090309   -1.4610925844    2.7064691091
 H   -0.7844292211   -2.2827323220    1.1481617762
 H    0.6118502378   -2.6143367231    2.1824871030