14

 N    0.0294846858    1.3481337277   -0.1250980235
 C   -0.0432037115   -0.0022720531   -0.0395714248
 C   -1.1160383472   -0.8778568234    0.0178181128
 C   -2.5250944561   -0.6260498800   -0.0002121154
 O   -3.3846491839   -1.4962947254   -0.0058104255
 C   -0.4678551450   -2.1673929564    0.0332320987
 N   -1.1363726101   -3.3451115692    0.1385903870
 N    0.8426244963   -2.0832875977   -0.0228288109
 O    1.1030592852   -0.6605126981   -0.0620916082
 H    0.9302703522    1.7618782486    0.0589256506
 H   -0.7678633793    1.8821610866    0.1781727150
 H   -2.8235653944    0.4470803129   -0.0194055972
 H   -2.1278117109   -3.2910907066   -0.0471357008
 H   -0.6449913213   -4.1874304458   -0.1109177876