13

 O   -0.2298166851    0.0227780600    0.1270006313
 C   -0.0582573418    1.2109605001    0.0329239057
 C    1.2584417420    1.8694795890    0.0010126294
 C    1.4449309836    3.3595636495    0.3598154942
 C    1.7653715515    2.9133479921   -1.0157574967
 N    3.0321040398    2.1904506966   -1.0953466103
 C    2.6605401921    1.2583142132   -0.1055913385
 O    3.2643333271    0.3761005325    0.4244550787
 H   -0.9164447170    1.9195454096   -0.0456693228
 H    0.5135730802    3.9036687167    0.4974144917
 H    2.2385210352    3.6283286779    1.0499591943
 H    1.2555953655    3.2391254098   -1.9128741391
 H    3.9399557269    2.6403530629   -1.1292121379