20

 C   -0.0520875702    1.5722742401    0.0046109355
 C   -0.0125739280    0.0332440913    0.0189481245
 C    0.6201471387   -0.4899421836   -1.2798862026
 N    0.6000013496   -1.9347256544   -1.4182488462
 C    1.3398304155   -2.8254919217   -0.6930445543
 O    1.2387399007   -4.0272350310   -0.8473086343
 C    2.3094383941   -2.2047699639    0.3157080639
 C    1.6543423164   -1.3632167324    1.3904223797
 C    0.6805775465   -0.4600500842    1.2660257162
 H    0.9590966215    1.9898695368   -0.0537314953
 H   -0.6246441981    1.9457296311   -0.8509153772
 H   -0.5185350984    1.9600949859    0.9150779856
 H   -1.0534719420   -0.3252660483    0.0462381309
 H    0.0818871195   -0.0733710643   -2.1360466990
 H    1.6507572796   -0.1193279814   -1.3549454792
 H   -0.0659369451   -2.3582403161   -2.0463688127
 H    2.8350918084   -3.0448811852    0.7712527308
 H    3.0652723951   -1.6214877959   -0.2288179194
 H    2.0257767141   -1.5545818808    2.3942774594
 H    0.3268434721    0.0137193680    2.1811052436