17

 C   -0.0341282673    1.5507328478    0.0306195992
 C   -0.0261136310    0.0378429902    0.0539790470
 C    0.3115852046   -0.7533737732   -1.2678845822
 N   -0.8112122877   -1.7077732695   -1.0638665963
 C   -0.8645506289   -2.1093420517    0.4255521891
 C    0.3294466316   -1.9104225141    1.2825388779
 C    0.7817518999   -0.6599606636    1.1251384219
 C   -1.3533986779   -0.7888562353   -0.0179745499
 H    0.9821626713    1.9470544691   -0.0736944770
 H   -0.6274910103    1.9323030478   -0.8070721560
 H   -0.4556503578    1.9588963898    0.9556885551
 H    0.0728522868   -0.1631492545   -2.1570504571
 H    1.3104196671   -1.1923728419   -1.3623137850
 H   -1.5396593565   -2.9452496330    0.5603962872
 H    0.7775708887   -2.6948336014    1.8787880349
 H    1.6952004017   -0.2451564163    1.5363065360
 H   -2.3776810142   -0.4265598802   -0.0095602448