16

 N   -0.1037543551    1.2884801354   -0.1870917615
 C   -0.0036312655    0.0521729250    0.0427822102
 O    1.1945125381   -0.5810764173    0.2285733624
 C    1.2049481711   -1.8570283838    0.8953629354
 C   -0.1033367805   -2.6078062971    0.6953459747
 C   -0.4584380300   -2.8217038942   -0.7922489256
 O   -1.2229817121   -1.6602960318   -1.1222118787
 C   -1.2292827704   -0.8490961806    0.0407384486
 O   -1.1593802667   -1.7430495409    1.1311175928
 H    0.8170724321    1.7332114143   -0.1747068774
 H    2.0556596148   -2.4107946664    0.4870694556
 H    1.3716088580   -1.6888521457    1.9661071467
 H   -0.1251212446   -3.5213593459    1.2924578629
 H    0.4290949095   -2.8907847710   -1.4304794399
 H   -1.0782983795   -3.7118913229   -0.9389374886
 H   -2.1436815994   -0.2594411672    0.0828470423