17

 C   -0.2555631877    1.3391826310    0.0601444643
 N    0.0116727158   -0.0898827470    0.0527848303
 C    0.5993081150   -0.6338860633    1.0239457127
 O    1.0440359648   -0.0327531748    2.1597066089
 C    1.4820511574   -1.0439155927    3.0983298398
 C    0.8714770780   -2.3613218644    2.6037838314
 C    0.8504985836   -2.1293586368    1.0883657407
 O   -0.1169771839   -2.8590046475    0.3881188459
 H    0.4206555025    1.8425969675   -0.6411323336
 H   -1.2751377534    1.5137678942   -0.2977783622
 H   -0.1374713407    1.8031677381    1.0459174571
 H    2.5781762270   -1.0689949924    3.0933213376
 H    1.1437951458   -0.7409522657    4.0911808116
 H    1.4474630007   -3.2355998782    2.9112658721
 H   -0.1583627201   -2.4739875179    2.9560246413
 H    1.8581518340   -2.3242222629    0.6791623947
 H   -0.4971896688   -2.2268204472   -0.2422163324