16

 O    0.3764725559   -0.2579272936    0.2656953271
 C    0.4052900410    0.7076476998   -0.4500897082
 C    0.8416524223    2.0927483481    0.0130915461
 N    0.7668670037    3.0394926186   -1.0788075942
 C    1.0973376077    4.2436428419   -0.8599236454
 C    1.0930858958    5.3945842159   -1.8600745289
 N    1.5556490469    6.5850360919   -1.1308972992
 C    1.7827109747    6.1943111516    0.0605580977
 N    1.5452069570    4.8466737937    0.3163603385
 H    0.1127118284    0.6708768890   -1.5222565360
 H    0.1958055134    2.3688621004    0.8641249367
 H    1.8611144180    1.9916975092    0.4230891431
 H    1.7529655543    5.1852433284   -2.7086650932
 H    0.0908345462    5.5615053498   -2.2686929821
 H    2.1396046336    6.8346027057    0.8607873557
 H    1.6754976012    4.3855628297    1.2000472722