16

 C   -0.0025729943    1.3792023358    0.1991649095
 N    0.0116701823   -0.0013734573   -0.2552258002
 C    1.2654226759   -0.7193454133   -0.0884367556
 C   -1.1309128502   -0.7514235304   -0.0688431178
 C   -1.3513515618   -2.1175522512    0.0050364788
 N   -2.6893151498   -2.3379489749    0.1372159890
 N   -3.3234600004   -1.2104841204    0.1627412498
 N   -2.3803389188   -0.2299389849    0.0398675975
 H    0.9324825599    1.8588637091   -0.0986079922
 H   -0.8140358716    1.9340931858   -0.2831994747
 H   -0.1116410640    1.4781534111    1.2913156663
 H    1.4544421558   -1.0211507530    0.9539515950
 H    1.2595792234   -1.6172205668   -0.7116236215
 H    2.0878179434   -0.0823664212   -0.4225482828
 H   -0.6439093617   -2.9280284139   -0.0269803620
 H   -2.6726804481    0.7320189554    0.0394586108