14

 C   -0.0177254975    1.4620496297    0.1191294707
 C    1.2859481935    0.7259843258    0.0427255413
 O    2.0103683638    0.4161938863    1.2385491691
 C    1.1797438717   -0.4261954182    1.9090574859
 C    0.0598870101   -0.7698436315    1.2461333241
 O   -0.6648558231   -1.5859222985    2.0672315661
 C    0.1204072851   -1.6744887672    3.1814407203
 N    1.2318307161   -0.9908672785    3.1518410229
 C   -0.0503957561   -0.0581177224   -0.0314743411
 H   -0.3349801455    1.8861449115    1.0648608211
 H   -0.2693578907    2.0506010365   -0.7569476753
 H    1.9495514872    0.8566156216   -0.8016164455
 H   -0.2415237404   -2.3143242216    3.9697272932
 H   -0.4116107942   -0.5197053235   -0.9430107028