19

 C    0.4877055087    1.4907028910   -0.3101713381
 C    0.0282911721    0.0723658688   -0.0211987020
 C    0.4268980018   -1.0366673972   -1.0395587153
 C    1.0951205501   -1.7729338846    0.1338251304
 C    2.5774109284   -1.4358705223    0.4229407059
 C    2.0407711992   -0.5177315935    1.5621261645
 C    2.5987372150    0.8198104317    1.7199506323
 N    3.0855798045    1.8565728985    1.8796484751
 N    0.6154984318   -0.7292511547    1.1314200929
 H    1.5444559845    1.5496550537   -0.5827365583
 H   -0.0944498955    1.8754340867   -1.1551467568
 H    0.3204353052    2.1538530227    0.5428228034
 H   -1.0530585370    0.0930638163    0.1488434841
 H   -0.4147474353   -1.5628541320   -1.4945492867
 H    1.1106505843   -0.7185908747   -1.8322363858
 H    0.7933362492   -2.8058865241    0.3254605376
 H    3.2222651556   -2.2527000409    0.7518959285
 H    3.0715145168   -0.8952560780   -0.3874722638
 H    2.1494834104   -1.0061193377    2.5379562923