18

 C   -0.0204423090    1.4773149720    0.0468472661
 C   -0.0001357508   -0.0159268138   -0.0168541927
 C   -0.0329626717   -0.7893324305   -1.1228300014
 C    0.0042779468   -2.1945423653   -0.7427037180
 C    0.0043197939   -3.4773358977   -1.2359608504
 N    0.0613667583   -4.3174665951   -0.1413570918
 C    0.0978000144   -3.5914048399    1.0342704411
 C    0.0631373453   -2.2693438092    0.6833845998
 C    0.0643673306   -0.8756990633    1.2474605489
 H    0.8744407355    1.8732084363    0.5455499606
 H   -0.0696174047    1.9178944473   -0.9529892982
 H   -0.8815997300    1.8461403835    0.6200710818
 H   -0.0799271719   -0.4137482640   -2.1383519819
 H   -0.0298781868   -3.8763216815   -2.2367025877
 H    0.0748287997   -5.3205391448   -0.1920783047
 H    0.1440799097   -4.0943031895    1.9871341653
 H    0.9628957411   -0.6445239919    1.8365168244
 H   -0.7904123003   -0.6716805227    1.9073912188