19

 C    0.1158083219    1.4711514714    0.0257883367
 C   -0.0383813059   -0.0155888355   -0.0007906847
 C   -0.0732202196   -0.8012772551   -1.0939321391
 C   -0.1100169628   -2.2044206428   -0.6201880207
 C   -0.5622381865   -3.6732425647   -0.7802056348
 C    0.1834795011   -3.4991523017    0.5890447674
 O    1.2251416544   -2.7502805046   -0.1075193109
 C   -0.6173519135   -2.1830416575    0.8255712008
 C   -0.0924390390   -0.8233966973    1.3106767982
 H    1.0343659458    1.7586037520    0.5529737920
 H    0.1540408490    1.8952415615   -0.9808306884
 H   -0.7132670026    1.9421582235    0.5690690630
 H    0.0228469940   -0.4646438253   -2.1182714496
 H   -1.6376712031   -3.8716651007   -0.7757476766
 H   -0.0175006978   -4.2693631514   -1.5127020495
 H    0.4997665351   -4.2756858961    1.2875570104
 H   -1.6987189896   -2.2952949031    0.9465446524
 H    0.9190491880   -0.8917572913    1.7249386705
 H   -0.7297780689   -0.3496368314    2.0644592728