17

 O    0.0476646787    0.8295362728    1.4773147154
 C   -0.0339195675    1.3942713177    0.3924349160
 C   -1.3817700020    1.8175257185   -0.0620342726
 C   -1.8489213894    1.9689741221   -1.3051381678
 C   -1.0373827428    1.8262892310   -2.5684820777
 C   -0.2735750156    3.1011616351   -2.8032723219
 C    0.8880761875    3.3806477957   -2.1951213783
 C    1.6266434615    2.5129160004   -1.2929669908
 C    1.2450535741    1.6514205482   -0.3235630702
 H   -2.0733264098    1.8981949844    0.7721754788
 H   -2.8950399623    2.2404154524   -1.4281587569
 H   -0.3312475562    0.9955101605   -2.4619968468
 H   -1.6934799913    1.6081119538   -3.4149831454
 H   -0.6984724474    3.8279997607   -3.4900493351
 H    1.3998719322    4.3021147214   -2.4648157953
 H    2.7071235933    2.5950968502   -1.4173477024
 H    2.0436797872    1.1215982952    0.1906535811