15

 C   -0.0293798193    1.4928834555    0.0835278508
 N    0.1616478706    0.0556491905   -0.0426888508
 C    0.6664044974   -0.6867188235    0.9759019904
 C    0.7150753726   -2.0600964474    1.1536501178
 C    0.1953006331   -3.1660480831    0.2980419676
 N    1.3798584017   -2.2487609739    2.3284078490
 N    1.7348242943   -1.1897190110    2.8841698529
 O    1.2577668039   -0.0770292666    1.9834932897
 H    0.9026338777    1.9558000805    0.4135832024
 H   -0.2912201710    1.8976531533   -0.8960034988
 H   -0.8172711412    1.7578153460    0.8011017567
 H   -0.4690914664   -0.4350376237   -0.6559374681
 H    0.7001962689   -3.2167999502   -0.6746592698
 H    0.3564488507   -4.1192741654    0.8057538890
 H   -0.8812096931   -3.0721136710    0.1058535912