16

 C   -0.5516849289    1.1838821208    0.0940868951
 C    0.2983258252   -0.0702935027    0.0887957202
 O    0.9113247771   -0.4403302584    1.0657892064
 C    0.3347746853   -0.8250009182   -1.2198900846
 C    0.9367846322   -2.1820323825   -1.3902808240
 N    0.7662683196   -3.0331004781   -0.2067521701
 C   -0.6376332119   -2.8906347962   -0.2438903430
 O   -1.5025196700   -3.2927294332    0.4770599568
 C   -0.5692021347   -2.0470597043   -1.5149594759
 H   -0.1704412696    1.9022313768   -0.6410882099
 H   -1.5803193461    0.9446484443   -0.1969771685
 H   -0.5405919031    1.6348779654    1.0866106049
 H    0.4002981593   -0.1777876804   -2.0934104150
 H    1.6521824475   -2.4412005541   -2.1596688671
 H    1.2707596143   -2.8307753380    0.6496447400
 H   -1.2121569361   -2.0809875513   -2.3831456654