20

 O   -0.0216350523    1.3521065411    0.4194854920
 C   -0.0272617270    0.0425932167   -0.1244543298
 C   -1.3956686634   -0.5938757956   -0.0365021668
 C   -1.9030723435   -1.4424775085   -1.1447720469
 N   -2.4056228258   -0.0673122076   -0.9975317697
 C   -3.6944411288    0.0594664730   -0.2714475107
 C   -3.4665561589   -0.2712913850    1.2058755061
 C   -3.1208307459   -1.6802409815    1.6154143911
 C   -2.0173427298   -0.6889089559    1.3433311857
 H   -0.6907140210    1.8457188923   -0.0691590437
 H    0.3038001885    0.0417550518   -1.1733149214
 H    0.7011346249   -0.5334113032    0.4571860061
 H   -1.2872744738   -1.6060246826   -2.0269176102
 H   -2.5689852439   -2.2702766303   -0.9202392913
 H   -4.0261394433    1.0986751983   -0.3655183472
 H   -4.4590492422   -0.5669785791   -0.7455304620
 H   -3.9354469417    0.3726794302    1.9422090848
 H   -3.2936686262   -1.9424799687    2.6545678053
 H   -3.2957208224   -2.5026772948    0.9314181431
 H   -1.4068330237   -0.3374043205    2.1657459255