20

 N   -0.0796521739    1.3287054280   -0.4242983830
 C   -0.0135680995    0.1139442563   -0.0698624529
 C   -1.2870902653   -0.7024311299    0.0370362147
 C   -1.9383996831   -0.7011014819    1.4349017518
 C   -1.1608897420   -1.4257944998    2.5317962779
 O    0.0853104470   -0.7888270640    2.7838175270
 C    1.2380336262   -1.4834762502    2.3697636012
 C    1.3202014414   -1.6979803665    0.8582382125
 O    1.2046295634   -0.4747090284    0.1454039372
 H    0.8561559390    1.7399736368   -0.4322736690
 H   -1.9820522819   -0.2293001364   -0.6588833674
 H   -1.1332239006   -1.7295504920   -0.3116638942
 H   -2.0850659849    0.3389982764    1.7452839555
 H   -2.9327111801   -1.1583848780    1.3588153526
 H   -1.7363802340   -1.3942594401    3.4654594759
 H   -1.0160207848   -2.4865799526    2.2790739820
 H    2.0812199351   -0.8659338898    2.6941524926
 H    1.3214927878   -2.4656418752    2.8662919262
 H    2.3062143518   -2.1011738914    0.6062648660
 H    0.5748380883   -2.4256238113    0.5203424135