16

 C    1.1285002792    0.5755930549   -0.7226894738
 N   -0.3314752406    0.7334899076   -0.7933121553
 C    0.2922140166    0.3773474909    0.4903467066
 C   -0.0006629834   -0.9935167787    1.0218320696
 C    0.9221300431   -1.5513671385    2.1309751708
 C   -0.3800078191   -1.6919618451    2.9421411473
 O   -1.1397696441   -1.0157223309    1.9198501964
 H    1.5183850794   -0.2842860291   -1.2613150870
 H    1.7626128516    1.4572091151   -0.7635846229
 H   -0.5810216084    1.7185228385   -0.8003040132
 H    0.3472889798    1.1480751507    1.2581399406
 H   -0.1555083530   -1.6780560462    0.1768676726
 H    1.4604231767   -2.4709231838    1.8980531410
 H    1.6235656609   -0.8149505929    2.5297740580
 H   -0.7219394964   -2.7250110178    3.0888444349
 H   -0.4242621722   -1.1663068146    3.9030822546