14

 O    0.1087486141    1.3753848761   -0.2179881977
 C    0.0804180507   -0.0104511482    0.0761792250
 C   -1.3199954958   -0.5156141486    0.2257142571
 C   -2.3659479484   -0.1922359861    1.3076577791
 C   -2.9153925201   -1.6309825961    1.0621861456
 O   -3.7003382060   -2.3272584855    1.6299588280
 C   -1.8899307918   -1.8650350462   -0.0480743439
 O   -2.0768976761   -0.7640642885   -0.9636258461
 H   -0.3309687588    1.4990833813   -1.0664677622
 H    0.5942865585   -0.6064807441   -0.6918421893
 H    0.6218311023   -0.1321902453    1.0198020587
 H   -1.9712444915   -0.1027411909    2.3241316752
 H   -3.0259109089    0.6477397671    1.0864485457
 H   -1.4488741382   -2.7752453251   -0.4380495952