27

 C   -0.6490217632    1.3898844011    0.0957586772
 C   -0.3783218802   -0.1163539986    0.1753385196
 C    0.8253939101   -0.4513112059    1.0590551120
 C    0.5913796492   -0.3120385680    2.5931329688
 C    0.6494676577   -1.8649677922    2.7612794101
 C    1.6365656675   -2.3685592601    3.8135233044
 C   -0.7304058141   -2.4837100613    3.0014261457
 C    1.1712305982   -1.9628811656    1.2793944588
 C    0.6188761609   -3.0228463607    0.3334518937
 H    0.2092487924    1.9219856054   -0.3297640851
 H   -1.5199368987    1.6059924939   -0.5310846041
 H   -0.8400247114    1.8141285216    1.0873523495
 H   -1.2771575392   -0.6245715226    0.5465544236
 H   -0.2063373104   -0.5061622354   -0.8362424671
 H    1.6808465463    0.1284526114    0.6939049798
 H    1.4030655728    0.2044659082    3.1131566595
 H   -0.3526811683    0.1576657238    2.8886804078
 H    1.2959811578   -2.1253378823    4.8273253127
 H    1.7551232409   -3.4576681240    3.7581187980
 H    2.6261415247   -1.9187570219    3.6779574036
 H   -1.4740918519   -2.1381543413    2.2774659107
 H   -0.6955113096   -3.5777138179    2.9453906354
 H   -1.0963227500   -2.2147168071    3.9993019922
 H    2.2618186977   -2.0706400881    1.3081968098
 H   -0.4684495484   -2.9684245599    0.2303429737
 H    1.0502493657   -2.9144742926   -0.6680702333
 H    0.8676738733   -4.0299493196    0.6869277630