16

 O    0.3652373860    1.0577904102    0.6389788876
 C    0.0784817618   -0.0453392011   -0.1998128607
 C   -1.3719056418   -0.5082597515   -0.0971265894
 C   -2.3756748954    0.2026752192   -1.0069609736
 C   -2.2597425778    1.6589397209   -0.9149867971
 N   -2.1067170606    2.8022993256   -0.8321393553
 C   -1.6508088961   -1.9138457789    0.2996584885
 N   -1.8884356919   -0.8086742492    1.2395991075
 H   -0.1154943502    1.8282859292    0.3130023119
 H    0.3308418791    0.1639828133   -1.2511814528
 H    0.7398197059   -0.8499341194    0.1376470993
 H   -2.2174277502   -0.0880971815   -2.0523787897
 H   -3.3908396322   -0.0916948685   -0.7264630824
 H   -2.5491071963   -2.4147185800   -0.0526603988
 H   -0.8006065866   -2.5728379577    0.4551429040
 H   -1.1364910338   -0.7242599206    1.9199214410