21

 C    0.1248785520    1.4568347829   -0.3393890051
 C   -0.0794618844    0.0340122863    0.1352314566
 C   -1.2798022978   -0.6662710161   -0.4685861960
 O    1.1086941492   -0.7779281583    0.1943335987
 C    0.4442261068   -0.4539129201    1.4255305963
 C    1.2241431043    0.3597628160    2.4342458698
 C    2.2524746975   -0.4964599583    3.1391342020
 C    2.6006243390   -0.2997517240    4.5502485269
 O    1.7540405191   -1.3791611436    4.1507644419
 H    1.0362039713    1.8985462257    0.0657865969
 H    0.2014089314    1.4766393717   -1.4320641351
 H   -0.7258939963    2.0855556961   -0.0549360094
 H   -1.1970491171   -0.6927803772   -1.5607046289
 H   -1.3525416862   -1.6944584026   -0.1064540864
 H   -2.2067950071   -0.1399004442   -0.2160797810
 H   -0.0767670534   -1.3031526124    1.8735831936
 H    1.7312967474    1.1965114830    1.9447902198
 H    0.5336244428    0.7711194918    3.1803591546
 H    2.9973174646   -0.9518755201    2.4854565203
 H    3.5865723979   -0.5865534499    4.9132412784
 H    2.1118108589    0.4924660633    5.1169545661