20

 C    0.1281839383    1.4128104754    0.0646670982
 N    0.2215443751   -0.0378432776    0.0728199025
 C    0.5374475074   -0.6423753979   -0.9860104934
 O    0.8590217346   -0.0350719217   -2.1817357651
 C    0.7559097902   -0.9704562820   -3.2788449578
 C    1.8366158273   -0.6563350241   -4.3005695983
 C    0.8082164973   -2.3489876815   -2.6341538526
 C    1.9512795073   -2.6138243518   -1.7008062545
 C    0.6264764995   -2.1166921238   -1.1518695511
 H    1.0287286039    1.8441147242    0.5200015636
 H    0.0146692772    1.8463175782   -0.9361344160
 H   -0.7194872961    1.7176381201    0.6869346538
 H   -0.2328434598   -0.8325194556   -3.7392774561
 H    2.8330414829   -0.8022026238   -3.8750221674
 H    1.7308172178   -1.3127496389   -5.1700007279
 H    1.7522359504    0.3796118568   -4.6397955119
 H    0.3256465571   -3.1716660193   -3.1472178995
 H    2.1972116168   -3.6500536428   -1.4995195389
 H    2.7987037023   -1.9366125419   -1.6877679641
 H    0.0337867406   -2.7441884420   -0.5014889636