14

 O    0.7149657753    0.1590174676   -0.6590784349
 C   -0.1106126622    0.2956277654    0.4915968128
 C   -1.5141320351   -0.1624256652    0.2342932990
 C   -2.7393145379    0.2375387920    0.7343947276
 C   -3.6629288959   -0.6259959231    0.1046486722
 O   -4.9994209947   -0.6097007226    0.2874464340
 N   -3.0834194340   -1.4841209263   -0.7225797699
 N   -1.7631046366   -1.1852974011   -0.6163596476
 H    0.3686297813    0.7493831481   -1.3372555676
 H    0.3654785060   -0.3263278065    1.2586006398
 H   -0.1240072590    1.3250064165    0.8755282460
 H   -2.9427648140    1.0234137250    1.4421731751
 H   -5.3685851380   -1.3038268829   -0.2729240949
 H   -1.0866802954   -1.6688482270   -1.1814418816