19

 C   -0.3026936333    1.5673326661    0.0844308835
 C    0.0240636227    0.0785543198    0.0457389562
 C    1.1417802475   -0.4541128389   -0.9084640172
 C    1.7892382477   -1.2132640771    0.2677242127
 C    2.3062508053   -2.5359286354    0.2142678511
 C    2.7472829957   -3.6557111882    0.1582183836
 C    2.1733596403   -0.2252018756    1.3486294189
 O    2.6230850241    1.0661679544    1.0615961542
 C    0.7331000543   -0.5738111321    1.2427764378
 H    0.5943554337    2.1623704559    0.2625883854
 H   -0.7535171252    1.8866754554   -0.8621336582
 H   -1.0221702228    1.7861503037    0.8815981570
 H   -0.8914484871   -0.4879060617   -0.1531705073
 H    0.7667322344   -1.1183695122   -1.6876430525
 H    1.7846562057    0.3058136014   -1.3608365004
 H    3.1328738629   -4.6434089399    0.1093516034
 H    2.6739563374   -0.6984006047    2.1937672689
 H    3.5340268521    1.0018208440    0.7540633388
 H    0.2231570148   -1.0555568849    2.0697934440