15

 O   -0.2040996779    1.0317887129    0.9608384003
 C   -0.0705736439   -0.2101689650    0.4548046803
 C   -0.2178366854   -0.5320386381   -0.8789291339
 N    0.0327607429   -1.8780273586   -1.0307679600
 C    0.3234397459   -2.4420698149    0.1746921962
 C    0.2681753939   -1.4370556998    1.1168858630
 O    0.5972384326   -1.7331290274    2.4392221622
 C    0.1904007800   -1.0309980128    3.4885101838
 N   -0.4739750330    0.0514676549    3.4468510739
 H   -0.3903112726    0.9139048710    1.9220476298
 H   -0.4704350126    0.1021783955   -1.7110164876
 H   -0.0046674695   -2.3740835309   -1.9019840996
 H    0.5551766362   -3.4869448042    0.2908085894
 H    0.5256761499   -1.5341026090    4.3983355224
 H   -0.6639978665    0.4031244363    4.3802968298