21

 C   -0.1855542538    1.6053119570    0.0459647855
 C   -0.0091841619    0.0929582585    0.0091844968
 C   -1.3591000993   -0.6104975615    0.1775356879
 C    0.8212008296   -0.5813945271   -1.1266821675
 C    2.0748722159    0.2112306199   -1.5326707182
 C    2.8573490498    0.5729850831   -0.2863216368
 C    2.3774098200    0.1954279311    0.8988622662
 C    1.0976396084   -0.6107088714    0.8705245342
 O    1.2303298922   -1.6132014405   -0.1858611428
 H    0.7599791047    2.1446984229   -0.0291649166
 H   -0.8339525021    1.9313284521   -0.7757995682
 H   -0.6718482610    1.9116756103    0.9795272293
 H   -2.0522593945   -0.3148167990   -0.6185668159
 H   -1.2410992710   -1.6957930400    0.1462997753
 H   -1.8212933371   -0.3389895607    1.1334493749
 H    0.2807610999   -0.9928482979   -1.9857099945
 H    2.6903520609   -0.3954169629   -2.2098219758
 H    1.7967389206    1.1133655705   -2.0948816882
 H    3.7853338360    1.1275439417   -0.3914517168
 H    2.8616359855    0.4331017809    1.8399843113
 H    0.8173069272   -1.0542367970    1.8295140199