17

 O   -0.8578730105    1.0101358799   -0.1151933599
 C   -0.2625749703   -0.2005184793   -0.1237326998
 C    0.2774325604   -0.9670206903   -1.1422220408
 C    0.7317933773   -2.1254311841   -0.4599297558
 N    0.4939691457   -2.0882393287    0.8437427391
 N   -0.1220321372   -0.8882705125    1.0281016632
 C    0.3612089348   -0.5956225264   -2.5734018756
 C   -0.3020237754   -1.4446038815   -3.6312810447
 C   -0.8746240209   -0.0905382281   -3.3061937915
 H   -0.8687612946    1.3310397578   -1.0247394726
 H    1.2226181142   -2.9882176351   -0.8882864536
 H   -0.4206301361   -0.6079046991    1.9463736639
 H    1.2927503437   -0.1286041597   -2.8879867804
 H    0.2090635019   -1.5691015861   -4.5791778738
 H   -0.8541273297   -2.3152714953   -3.2968998659
 H   -1.8155909206   -0.0685854039   -2.7658138803
 H   -0.7534452628    0.7065199124   -4.0315830114