20

 C   -0.1087879316    1.5874091265   -0.0186254524
 C   -0.0217927880    0.0566918243   -0.0108626523
 O    0.4811614628   -0.4451221319   -1.2362147469
 C    0.7746396089   -0.4926977073    1.2000518612
 C    0.7241756468   -2.0349243116    1.2389470268
 C    2.2377812321   -0.0533647765    1.1736456659
 C    2.9109890110    0.1869768918    2.5088682719
 O    2.8482811919    0.0848374607    0.1300460103
 H    0.8847638868    2.0402649591   -0.0994327864
 H   -0.6976221706    1.9153531385   -0.8790979187
 H   -0.5881659710    1.9650730292    0.8917234810
 H   -1.0406685415   -0.3446462595    0.0719064050
 H    1.4265320103   -0.2316833925   -1.2355883643
 H    0.3200054078   -0.1064882288    2.1213131720
 H    1.3221047429   -2.4466515037    2.0579047618
 H   -0.3085540166   -2.3695160998    1.3757925778
 H    1.0908046199   -2.4397550749    0.2934908108
 H    2.7131701637   -0.6367634122    3.2024988171
 H    3.9851723284    0.3175649517    2.3729516064
 H    2.4900993961    1.0913095969    2.9650750731