19

 O    0.4351836919   -0.0072082270   -0.0046064167
 C    0.2192753371    1.1822386255    0.0062472941
 C   -1.1647949874    1.8535667198    0.0308084260
 C   -0.9059978365    3.3682027607    0.0368133930
 C   -1.5934611165    4.2894509924   -1.0305537787
 C   -1.8107157729    5.3660573058    0.0629152185
 C   -1.5618513838    4.2754641226    1.1355885634
 C    0.5974949127    3.4634248733    0.0154829071
 C    1.2169594306    2.2773992344   -0.0012337699
 H   -1.7399924177    1.5275948633   -0.8417307925
 H   -1.7143095467    1.5162438130    0.9155018034
 H   -1.0029210079    4.5593695082   -1.9098991856
 H   -2.5378915142    3.8517817374   -1.3661623258
 H   -1.0241624336    6.1255356542    0.0563411961
 H   -2.7761435487    5.8755280711    0.0802930038
 H   -2.4961704435    3.8333208891    1.4929309481
 H   -0.9458550999    4.5341180553    2.0007410345
 H    1.0972215225    4.4280561411    0.0144268468
 H    2.2839860944    2.0956229497   -0.0179893156