22

 C   -0.1732497517    1.3880409139   -0.5913395620
 C   -0.0949714809    0.0205374761    0.0926356888
 C   -1.4315227914   -0.7281307994    0.0891048481
 C   -1.3423002635   -2.0979183610    0.7731616747
 N   -2.6031317124   -2.8234369994    0.7832200000
 C   -2.9261647391   -3.7292326925   -0.1867526782
 O   -2.1821167741   -4.0310702527   -1.0973561288
 C   -4.2911432989   -4.4008966635    0.0180811102
 O   -4.8777527750   -4.6179148976   -1.2426727611
 H    0.7949535437    1.8979994688   -0.5758467771
 H   -0.4812863195    1.2885880425   -1.6378115733
 H   -0.9007205564    2.0390628883   -0.0936507829
 H    0.6642524788   -0.5959573622   -0.4058804774
 H    0.2494439233    0.1475742220    1.1280075662
 H   -2.1971490155   -0.1187775246    0.5895833653
 H   -1.7746849292   -0.8777763446   -0.9415021930
 H   -0.6252102336   -2.7310714626    0.2446109564
 H   -0.9951800163   -1.9846051947    1.8073976568
 H   -3.3211591061   -2.5240364000    1.4226464738
 H   -4.1004403957   -5.3438851630    0.5544764865
 H   -4.9325144080   -3.7814010304    0.6678142185
 H   -5.5482232285   -5.2997073632   -1.1486089515