20

 C   -0.1622288662    1.3064822008    0.1653292065
 O   -0.0592367818   -0.0902683103    0.0050924571
 C    0.6254843277   -0.4973478692   -1.1506835044
 C    2.1548524846   -0.3745758431   -1.0094829973
 C    0.2428861806   -1.9495804510   -1.4453430390
 O   -0.3928466226   -2.6331646771   -0.6754529852
 C    0.7097144523   -2.5037507738   -2.7596875920
 C    1.3856999806   -3.8419016358   -2.7139002168
 N    0.0353921571   -3.7176569167   -3.2415052996
 H    0.8115639449    1.7887699717    0.3340220472
 H   -0.6369667559    1.7816021555   -0.7076453745
 H   -0.7895426806    1.4782913407    1.0429132604
 H    0.3002858834    0.1025851825   -2.0206393060
 H    2.4930085303   -0.9567698548   -0.1476958105
 H    2.6682115353   -0.7393614736   -1.9033737910
 H    2.4458050286    0.6683396540   -0.8605223506
 H    0.9981075393   -1.7933555986   -3.5289226621
 H    2.1578959496   -4.0633915156   -3.4450904355
 H    1.5223919680   -4.2858184480   -1.7316187555
 H   -0.6221153653   -3.9888170374   -2.5081455613