17

 C    0.0711100221    1.5413402836    0.0541088309
 C    0.0085521513    0.0430051769   -0.0236967126
 C    0.6272908762   -0.8250283643   -1.1727826751
 C    0.6121931330   -1.8100349914    0.0259022468
 O    0.9075403425   -0.6821085419    0.8970259925
 C   -0.9178596069   -1.9879868315    0.2560037200
 C   -1.3172691692   -0.7058158728    0.2218828734
 C   -1.6048708878   -3.1983517843    0.4277850262
 C   -2.1477089127   -4.2662128220    0.5693091222
 H    1.0887031547    1.8960431745   -0.1276999750
 H   -0.5928232027    1.9886868263   -0.6925049303
 H   -0.2437169505    1.8866443250    1.0437835161
 H    0.0202146427   -1.0493595865   -2.0521367247
 H    1.6370713670   -0.5009340725   -1.4368830265
 H    1.2703262693   -2.6694441748    0.1372155279
 H   -2.3036590543   -0.2785750896    0.3266340124
 H   -2.6402864648   -5.1977994148    0.6984179959