20

 C   -0.0565704656    1.6054464331    0.0226931913
 C    0.1033276111    0.0916220475    0.0296993654
 O   -1.0851281777   -0.5417320443   -0.4161689965
 C    1.2716428079   -0.8407834264   -0.3349466102
 N    2.6942671146   -0.5741534909    0.0857170708
 C    2.8113482357    0.7637381627    0.6815493534
 C    2.1595426244   -0.3129870558    1.4723208110
 C    0.7320042006   -0.7717698689    1.0866996099
 C    0.0042820876   -1.7783082730    1.9294736514
 H    0.2661954690    2.0562196345   -0.9232020901
 H   -1.1218697289    1.8189519802    0.1520541179
 H    0.4774560085    2.0932285150    0.8385878287
 H   -1.1639509592   -0.3758655342   -1.3622985852
 H    1.1157083428   -1.5904055579   -1.1022911573
 H    3.8380440389    0.9846763541    0.9657020716
 H    2.2866460979    1.6050215532    0.2549877443
 H    2.6560399293   -0.7472082393    2.3359087868
 H   -0.2959064747   -1.3412942310    2.8902166176
 H   -0.8943063964   -2.1249972287    1.4168375933
 H    0.6400052142   -2.6447830696    2.1442940360