21

 O   -0.1484703748    1.5012684037   -0.1574381444
 C    0.0331753607    0.1019279352    0.0255742455
 C   -1.3405254416   -0.5450515687   -0.0318336450
 C   -2.0784824478   -0.3616874673   -1.3692771893
 O   -3.1069279154   -1.3460665379   -1.3701117460
 C   -2.6288419616   -2.4979514879   -0.6975681955
 C   -1.7263917303   -3.4480152794   -1.5365726775
 C   -0.4789914832   -2.9669694342   -0.7428428926
 C   -1.3907193296   -2.0694611116    0.1557036018
 H    0.7169427733    1.9204055263   -0.1588874326
 H    0.6847557173   -0.3132122774   -0.7585726119
 H    0.5082457796   -0.1147845327    0.9957219153
 H   -1.9543999405   -0.0883737199    0.7540563528
 H   -2.5465612737    0.6178013950   -1.4801823159
 H   -1.3868557362   -0.5062733998   -2.2167365580
 H   -3.4809845784   -2.9649787774   -0.1977244630
 H   -1.9616423665   -4.5071628045   -1.4048783757
 H   -1.7309285542   -3.2228243580   -2.6057846201
 H    0.0485948983   -3.7516575797   -0.1962259558
 H    0.2572157804   -2.4258016144   -1.3421990283
 H   -1.4023624456   -2.3601125394    1.2076638262