23

 C   -0.1914337847    1.6364965364    0.7157557742
 C   -0.0423110605    0.1792249710    0.3007205605
 C    0.9672934034   -0.2736577804   -0.8050817958
 C    2.3178511923    0.2361573404   -0.2594304937
 C    2.1625434650   -0.2081535456    1.2363357852
 C    0.7629687812   -0.8521988166    1.1552967063
 C    0.9127799577   -1.6925005891   -0.1538522349
 C   -0.2183002100   -2.6238252121   -0.5467288380
 O   -0.2138628607   -3.7060687469    0.3792013136
 H    0.7603782165    2.1174297365    0.9551548465
 H   -0.6623356752    2.2198451528   -0.0838856997
 H   -0.8325400321    1.7198584028    1.6007959135
 H   -1.0358473715   -0.2174955479    0.0813609858
 H    0.7658794900   -0.1163951462   -1.8670328248
 H    3.1653100696   -0.2461421449   -0.7547556902
 H    2.4400784349    1.3165676321   -0.3733630468
 H    2.9248157639   -0.9316408750    1.5388686268
 H    2.2073620334    0.6303506039    1.9365253524
 H    0.3540051959   -1.2901369888    2.0660157198
 H    1.8452121787   -2.2656650844   -0.2169997602
 H   -1.1931321726   -2.1159608679   -0.5479802841
 H   -0.0419617852   -2.9841091472   -1.5738594473
 H   -0.9026140900   -4.3248313130    0.1194025307