22

 C    0.4739151652    1.1712620772   -1.0755329166
 C    0.4759909267   -0.3188978538   -0.7288072304
 C    1.3851780677   -0.6480002323    0.4610191653
 O    1.0084666964    0.0792249873    1.6412941267
 C    0.2341535682   -0.7510744978    2.5042513542
 C    0.5745697654   -2.1838113055    2.1436031010
 C    1.3131886613   -2.1174250442    0.8461212793
 N    1.9710045878   -2.5805673720    2.0583908658
 C    3.0374097974   -1.8247825893    2.7080036553
 H    1.4726166134    1.5084434035   -1.3752750374
 H   -0.2124011205    1.3851373925   -1.9001939924
 H    0.1689878966    1.7645366113   -0.2094878850
 H   -0.5437335489   -0.6544990781   -0.4998344631
 H    0.8106469570   -0.9087851609   -1.5920250979
 H    2.4105528385   -0.3270377359    0.2289590339
 H    0.4892328105   -0.4780522124    3.5351519428
 H   -0.8457876065   -0.5837213543    2.3682475250
 H   -0.1395618051   -2.9647238959    2.3920753478
 H    1.1962789458   -2.8498942184    0.0513131521
 H    2.9085258783   -0.7355160645    2.6999881191
 H    3.1124869011   -2.1616429201    3.7468646219
 H    3.9829470838   -2.0696709064    2.2137171624