19

 C    0.0263820022    1.5986164539   -0.1654888090
 C    0.0764621048    0.0762657616   -0.0485671612
 O    0.9658407915   -0.5075956834   -1.0327153545
 C    1.8807425960   -1.2637618044   -0.2120589469
 C    0.9564279182   -1.9755008359    0.8044460078
 C    0.7208577895   -0.4908710567    1.2423785884
 C    2.2365467670   -0.2784602900    0.9252167299
 C   -1.3345367169   -0.4758380040   -0.2638313824
 O   -2.2732063255   -0.1914814797    0.4341964314
 H    0.9855110961    2.0525218142    0.0908501565
 H   -0.2219247298    1.8882350022   -1.1910827630
 H   -0.7474442384    1.9890669476    0.5008917937
 H    2.6075285919   -1.7672304320   -0.8468685061
 H    0.1186733262   -2.5556100197    0.4115684859
 H    1.5010818557   -2.5492936454    1.5553015583
 H    0.2539493927   -0.2138628742    2.1852927677
 H    2.8797899458   -0.7164212854    1.6903373137
 H    2.5934604832    0.7127251058    0.6423556208
 H   -1.4250609801   -1.1631592045   -1.1338894112