20

 C   -0.4441047127    1.3365037687   -0.0976576469
 C    0.2598116170   -0.0014773357   -0.0726322542
 O    1.5961718502    0.0472784407   -0.6423986402
 C    2.1296733739   -0.7540727034    0.4210611828
 C    0.8243000258   -0.6060163402    1.2466528191
 C    0.9504425230    0.3589206184    2.4299380847
 C    0.0968384777   -1.8675297945    1.6961364754
 N    0.8748141619   -2.8120026138    2.3021753606
 O   -1.1044495658   -2.0025001677    1.5580057921
 H    0.1216672218    2.1100080698    0.4276959096
 H   -0.5766649613    1.6596755880   -1.1350569148
 H   -1.4345213912    1.2443320218    0.3592032108
 H   -0.3520060759   -0.7459294833   -0.5980943914
 H    2.3502134681   -1.7807362391    0.0933601297
 H    3.0359846411   -0.3142904198    0.8561862341
 H    1.4686570164    1.2744614797    2.1317411809
 H   -0.0346650050    0.6288558491    2.8215530649
 H    1.5211294144   -0.1011880770    3.2435706157
 H    1.8753053509   -2.7380984588    2.3545251054
 H    0.4369906697   -3.6655806429    2.6085534118