16

 C   -0.0354020813    1.5221913421   -0.0014894849
 C   -0.0004662810    0.0229055334   -0.0222483813
 C   -0.0566992898   -0.7299601570   -1.1587424158
 N   -0.0379533394   -2.0957571841   -1.2280991633
 C    0.0659832902   -2.7236533097   -0.0893287808
 N    0.1613959746   -4.0949607588   -0.0698725341
 N    0.1382176547   -2.0750023720    1.1054977665
 C    0.1079834195   -0.6669607545    1.2478506599
 O    0.1782880350   -0.1730132891    2.3595829192
 H    0.8664101309    1.9308173745    0.4674362118
 H   -0.1158409543    1.9272639955   -1.0137787129
 H   -0.8818396925    1.8885576578    0.5897070431
 H   -0.1324001751   -0.2330705568   -2.1238601325
 H   -0.0755254557   -4.5116001567   -0.9582733127
 H   -0.2188850249   -4.5795844462    0.7289139442
 H    0.2653866891   -2.5815925483    1.9718472336