20

 C    0.0852904672    1.5049689788    0.0914761153
 C    0.0365034883    0.0513469839    0.0271092209
 C   -0.0040121243   -1.1509785093   -0.0175168241
 C   -0.0268703380   -2.6102331080   -0.0775444587
 N   -1.3847768150   -3.1618861760   -0.1404075988
 C   -2.0948792067   -2.7495168940   -1.3457573395
 C   -1.3940212362   -4.6043385927    0.0190360689
 C   -2.7751120552   -5.1060721929    0.4143836607
 O   -3.2077018197   -6.1946999528    0.1431286542
 H    0.8823629499    1.8439437149    0.7622837875
 H    0.2713501615    1.9449322057   -0.8943616032
 H   -0.8583288175    1.9157443670    0.4668048281
 H    0.5902385329   -2.9453887794   -0.9353571919
 H    0.4539149202   -3.0150950691    0.8217961748
 H   -1.6239209771   -3.1326636594   -2.2707189563
 H   -3.1245880292   -3.1191089298   -1.3155454695
 H   -2.1231552937   -1.6592731003   -1.3980395559
 H   -1.0485222323   -5.1695837059   -0.8655891842
 H   -0.7274690992   -4.8720749704    0.8519170732
 H   -3.3535828260   -4.3694913903    1.0171083486