15

 C   -0.0195858571    1.3864253837   -0.0627514932
 N    0.0023156268   -0.0579666778    0.0181566415
 N    0.0318168557   -0.8337926207   -1.0920690964
 C    0.0187091741   -2.0615762950   -0.5853817274
 C    0.0304862086   -3.2172080243   -1.4987501486
 O    0.0171344835   -4.3727375182   -1.1527815852
 N    0.0001990834   -2.1260372157    0.7795649953
 C   -0.0062483407   -0.8547614922    1.1232801109
 N   -0.0973934799   -0.3547216727    2.4059343482
 H    0.9832857478    1.8123190733    0.0543835782
 H   -0.4093393056    1.6632541893   -1.0419001761
 H   -0.6754283777    1.7829250214    0.7168616651
 H    0.0538983908   -2.9148647088   -2.5670149633
 H   -0.0038766516   -1.0927288082    3.0909404415
 H    0.5129741920    0.4239879959    2.6133365494