17

 O   -0.7343625203    0.8756282626   -0.5383332773
 C    0.1187393348    1.0527797815    0.2944193964
 C    1.2738114404    2.0174803970    0.2056990934
 C    1.3473207761    3.0112881919   -0.9670223805
 C    0.0542857210    3.8540230217   -0.7860344613
 C    0.7416350266    4.3609282989    0.4906204735
 C    2.1237450378    4.1765756041   -0.1641934942
 O    2.7076219180    3.6350264231    1.0284144937
 C    1.3627698607    3.1413873086    1.2842222302
 H    0.1252065587    0.4493041515    1.2332159018
 H    2.1833683289    1.4132807893    0.3185636722
 H    1.6687163683    2.6443257527   -1.9388154621
 H   -0.0093338037    4.6609797467   -1.5219154308
 H   -0.8969432842    3.3275290307   -0.7328041770
 H    0.4528871356    5.2409295253    1.0619410810
 H    2.7170258103    4.9192792299   -0.6943294117
 H    1.1597068212    2.9161429945    2.3304320929