19

 O   -0.0949881167    1.4367149574    0.0811907146
 C    0.0286316467    0.0244398663    0.0173967452
 C    0.7442568680   -0.5313248868    1.2584847615
 O    0.7905824491   -1.9468789675    1.2427151490
 C   -0.5070333920   -2.5210237242    1.2727563114
 C   -1.3280151250   -2.0673004161    0.0783286851
 C   -1.4961726244   -2.9556411241   -1.0792202149
 O   -2.5498245556   -2.7777473705   -0.1231258043
 C   -1.3832779250   -0.5596966723   -0.0631257378
 H    0.7851368871    1.8205923372    0.0129022137
 H    0.5972497467   -0.2829301842   -0.8745241131
 H    1.7839538726   -0.1888559158    1.2956766666
 H    0.2269579323   -0.1595561302    2.1590951522
 H   -0.3779031540   -3.6057585156    1.2711708934
 H   -1.0318338176   -2.2366831046    2.2008835308
 H   -1.6875031930   -2.5297696703   -2.0632830226
 H   -1.0287939138   -3.9394243126   -1.0818044781
 H   -1.9725762900   -0.1409593925    0.7632869645
 H   -1.8735054853   -0.2673678034   -0.9956051971