18

 O   -0.0207376147    1.2547783755    0.0251763737
 N    0.0193099897   -0.1434132256   -0.0983648955
 C   -1.1409186947   -0.6668205435   -0.0518582148
 C   -2.4901154637   -0.0295468689    0.1760492532
 C   -3.3141311673   -1.1325769521    0.8971728753
 C   -2.6256810033   -2.4505895805    0.5587140211
 C   -2.3644377600   -2.7301786183   -0.9036697264
 C   -1.2613545120   -2.1447098935   -0.0551359467
 O   -0.1177567054   -2.8991525932    0.1517853225
 H    0.9130310066    1.4897480137    0.0044718524
 H   -2.3937594860    0.8885853809    0.7581119171
 H   -2.9379220442    0.2534180878   -0.7837180779
 H   -3.2808331879   -0.9709646118    1.9797634441
 H   -4.3678321783   -1.1166968342    0.5991303869
 H   -2.7369709215   -3.2980398199    1.2249456434
 H   -2.2044553703   -3.7687978048   -1.1715423016
 H   -2.8475467433   -2.1328528679   -1.6711845170
 H    0.5845852462   -2.2667481737    0.3534727102