17

 N   -0.2450122622    1.4089290703   -0.2763806344
 C   -0.1299567603    0.0433649551   -0.5181107321
 O    0.6471384246   -0.4174522127   -1.3282939692
 N   -1.0273266718   -0.7194135415    0.2092859623
 C   -1.0884198022   -2.1251069587    0.1321443841
 C   -1.1847494672   -2.8822594088   -1.1720460358
 C   -2.2444539390   -3.0766897251   -0.1368244581
 O   -1.8109323622   -3.9923232303    0.8710547380
 C   -0.7230550059   -3.1056139892    1.2489383666
 H    0.5333203374    1.9275106548   -0.6544259196
 H   -0.5236413763    1.7088076217    0.6460144600
 H   -1.6850168560   -0.2485658784    0.8104217684
 H   -1.4559109342   -2.2569082876   -2.0150487611
 H   -0.4846871797   -3.6826204737   -1.3923141330
 H   -3.3097363707   -2.9283290841   -0.2720786171
 H    0.2570663856   -3.5938843201    1.2005787103
 H   -0.8896989699   -2.7000935616    2.2547968007