16

 O   -0.0317432486   -0.1106923488   -0.0608913230
 C    0.0493958475    1.0821458707   -0.2151211254
 C    1.3005005277    1.8553417825   -0.1238670111
 C    1.3046692702    3.3088815309    0.3053967294
 C    1.8156586884    2.9994472127   -1.0716677761
 C    3.1885301314    2.3120118327   -0.9598776001
 N    2.6161061293    1.2396536590   -0.1001855903
 C    1.2432032399    3.5176617258   -2.2632280712
 C    0.7908588914    3.9669024636   -3.2840301384
 H   -0.8439272663    1.7105241544   -0.4348085272
 H    0.3358027845    3.7971487064    0.3315116215
 H    1.9976436942    3.6160847362    1.0853851861
 H    3.5448354739    1.9123121256   -1.9126177010
 H    3.9737671585    2.9275249318   -0.5059104425
 H    3.0249574341    1.1637157096    0.8267616329
 H    0.3857000240    4.3576078271   -4.1844841336