15

 O   -0.1907204874    1.3986820139   -0.1426162375
 C   -0.0225473707    0.0140954795   -0.0404267590
 C    1.1040652513   -0.5321155231   -0.9134117851
 C    2.3851271476    0.0813424048   -0.5715390081
 C    3.4063681787    0.6355336423   -0.2609780643
 C   -0.3288214522   -0.6414852700    1.2820382995
 C   -1.2896419038   -0.7625992543    0.1100281423
 H    0.6391210183    1.8056184144    0.1376066511
 H    1.1665523569   -1.6209173717   -0.8040347516
 H    0.8701398604   -0.3277320891   -1.9659398371
 H    4.3253265642    1.0996330780   -0.0003828053
 H    0.2388618506   -1.5162520537    1.5811449338
 H   -0.6204913272    0.0152749251    2.0933463242
 H   -2.2052969775   -0.1845588700    0.1535416960
 H   -1.3777416292   -1.7195710861   -0.3931725289