19

 C    0.0453350052    1.4677591332    0.0205529493
 N   -0.0046211329    0.0206863745   -0.0089393617
 C    0.0133173866   -0.7648226612   -1.1473319620
 C    0.0187410830   -2.0574943719   -0.7033609194
 C    0.0244649092   -3.3129421411   -1.5125219907
 O    0.0508925108   -2.9597075312   -2.8882932226
 N    0.0098046136   -2.0912884440    0.6719656664
 C    0.0001560547   -0.8322337512    1.0627090767
 C   -0.0070259570   -0.3757988899    2.4837769325
 H    1.0766290902    1.8395689718    0.0360034456
 H   -0.4552833330    1.8684478303   -0.8636852645
 H   -0.4716456788    1.8423778198    0.9064979852
 H    0.0154370752   -0.3397725659   -2.1360058069
 H    0.8994289702   -3.9235572335   -1.2357151219
 H   -0.8673822640   -3.9128513604   -1.2678695480
 H    0.0451863490   -3.7714450911   -3.4022208900
 H    0.8740915471    0.2276535629    2.7324878763
 H   -0.8932424942    0.2241909728    2.7241324172
 H   -0.0096689650   -1.2588702337    3.1237548088