12

 N   -0.1018263909    1.2911613795    0.0099092773
 C   -0.0044655403    0.0363337007    0.0020596191
 O   -1.1596784130   -0.6940965910    0.0071949323
 C   -1.0892865055   -2.0443051056   -0.0003832348
 C   -2.1490768376   -2.8911532593    0.0024418195
 O   -1.6350632237   -4.1646107745   -0.0075926732
 C   -0.3034933462   -3.9974586235   -0.0159552651
 N    0.0895509882   -2.7620644771   -0.0121216041
 H    0.8280510432    1.7062161997    0.0050473169
 H    0.8945581065   -0.5804919085   -0.0082257376
 H   -3.2171140722   -2.7810211789    0.0103121021
 H    0.3057046417   -4.8871357114   -0.0247274424