25

 C   -0.2712281751    1.5736213432   -0.0172038910
 C   -0.0420623233    0.0634155279    0.0100377371
 C    1.1283376876   -0.4694563743   -0.8842847881
 C    1.6071459178    0.3103909843   -2.1000822580
 C    2.0340279142   -0.5456660389    0.3801733555
 C    2.9562794817   -1.7458275797    0.5398908967
 O    2.7811786904    0.6678356074    0.4569923137
 C    0.7338001986   -0.4934278359    1.2513061062
 C    0.7561744646    0.2704395414    2.5671873575
 H    0.6548343569    2.1286763058    0.1495964811
 H   -0.6812839258    1.8855631124   -0.9838838610
 H   -0.9902270428    1.8723051950    0.7536608922
 H   -0.9977681010   -0.4398849018   -0.1710905519
 H    0.8916221169   -1.4964190530   -1.1855424795
 H    1.9090442565    1.3252431885   -1.8347829007
 H    2.4705279554   -0.1801567880   -2.5628539375
 H    0.8178578383    0.3711332790   -2.8576051860
 H    3.7509833260   -1.7238756943   -0.2129817612
 H    3.4317154992   -1.7467319339    1.5297908214
 H    2.4060098467   -2.6863355716    0.4382562425
 H    3.2374398184    0.6792448746    1.3051922415
 H    0.4047090931   -1.5223203361    1.4382609474
 H    1.1226152735    1.2920884337    2.4348928395
 H   -0.2454924260    0.3299321754    3.0062357055
 H    1.4009329383   -0.2274000811    3.3018731072