18

 O    0.0122699197    1.3313847757    0.1113763709
 C    0.0571766351   -0.0544841224    0.0007855579
 C   -0.1788514294   -0.7219739771   -1.3459692154
 C   -0.0967085344   -2.2138110881   -0.9992911167
 C   -1.3230368283   -2.6005571441   -0.1404211311
 N   -0.5840998239   -2.2335499799    1.1136759535
 C   -0.3792870965   -0.7736349725    1.2675079847
 C    1.0696104438   -0.8418195447    0.8055034803
 C    0.7313698944   -2.2655433877    0.3532294035
 H    0.7610007799    1.6965474179   -0.3743792075
 H   -1.1432886520   -0.4557324657   -1.7910093839
 H    0.6108939532   -0.4173579418   -2.0472365711
 H    0.1866005220   -2.8598351592   -1.8315883677
 H   -2.2528154291   -2.0495060324   -0.3151020967
 H   -1.5369013889   -3.6737348455   -0.1301279949
 H   -0.8291664239   -0.2170145558    2.0821168121
 H    1.9760801037   -0.4510104445    1.2474800749
 H    1.4015622148   -3.1038248621    0.5452162569