15

 O   -0.1501352082    1.4709996753    0.3380260510
 C    0.0515183528    0.1122218520   -0.0346051383
 C    0.9717743151   -0.5744575590    0.9439327961
 C    0.7723463957   -1.7901782459    1.4634219398
 C   -0.3911682211   -2.6247392309    1.1003753577
 O   -0.4554645019   -3.8123171883    1.3430665382
 C   -1.5163996277   -1.9226757029    0.3832362775
 O   -2.0137179109   -0.7318868984    1.0194170012
 C   -1.2840289018   -0.5875206053   -0.1971797781
 H   -0.6829725372    1.4571626600    1.1433162519
 H    0.5477612766    0.1559221442   -1.0132930553
 H    1.8463881688    0.0101212243    1.2184657404
 H    1.4838273903   -2.2459406837    2.1446580116
 H   -2.2785187051   -2.5820747384   -0.0254686298
 H   -1.8843078152   -0.2694056330   -1.0480623639