21

 O   -0.1088620281    1.5030189749    0.3084402966
 C   -0.0493048720    0.1163982356    0.0709227860
 C    0.3890410016   -0.8311823269    1.2226094592
 C   -0.8139853572   -1.7647662232    0.9031752865
 C   -1.3714014959   -0.6996906695   -0.1044439693
 C   -2.6361035425   -0.1176435274    0.5541200462
 C   -2.5617555322   -0.5374770798    2.0387580358
 C   -1.8588452169   -1.9091004200    2.0088155408
 O   -2.7486737022   -2.9418229840    1.5908227680
 H   -0.5938547302    1.6503746015    1.1268620286
 H    0.5940189926    0.0078934546   -0.8065609678
 H    1.3854526376   -1.2699520200    1.1324871762
 H    0.3219099776   -0.3564574257    2.2081893002
 H   -0.5416495432   -2.7370322815    0.4923669015
 H   -1.5615939172   -1.0228908391   -1.1292520814
 H   -2.7149280131    0.9656637768    0.4188721594
 H   -3.5196185122   -0.5664432012    0.0927373266
 H   -1.9629940517    0.1697558840    2.6264097840
 H   -3.5429434306   -0.5878205591    2.5231436585
 H   -1.4015127718   -2.1628716308    2.9777150329
 H   -3.4797930126   -2.9744968991    2.2159863816