12

 O   -0.0593283048    1.3735816301   -0.0731346810
 C    0.0015377584   -0.0277256881   -0.0178912088
 C   -0.4671974108   -0.7005480860    1.2632813336
 C   -1.3470249270   -0.6959570912    0.0390329751
 C    1.0726919798   -0.6300353868   -0.7698263175
 C    1.9952960848   -1.1021755736   -1.3806290930
 H    0.7676683685    1.7151743248    0.2856896224
 H    0.0108892289   -1.6267253852    1.5596404454
 H   -0.7319322030   -0.0289134727    2.0719810531
 H   -2.1946965997   -0.0206674288    0.0313177995
 H   -1.4799237904   -1.6180075771   -0.5132617483
 H    2.7991072152   -1.5234993553   -1.9318914504