18

 C   -0.0289247969    1.4211348845   -0.1324418797
 C   -0.2883868718   -0.0807333597   -0.0580938644
 O    0.7646456364   -0.7729821285    0.6139622435
 C   -1.6362522715   -0.4076748931    0.6122108736
 N   -1.9111981969   -1.8314018693    0.7810723388
 C   -2.2837156726   -2.5142924891   -0.4538911880
 C   -2.6032403202   -3.9221164838   -0.1946022955
 N   -2.8371113229   -5.0367807215   -0.0031792297
 H    0.9475505163    1.6190680274   -0.5820874111
 H   -0.7946245203    1.9262782395   -0.7300373386
 H   -0.0428629496    1.8685345707    0.8697671216
 H   -0.2763517372   -0.4959284844   -1.0735589400
 H    0.9150236460   -0.3316670525    1.4582536011
 H   -1.6452899288    0.0543587588    1.6097278030
 H   -2.4593763353    0.0488226070    0.0486514706
 H   -1.0778264098   -2.2682604549    1.1654446216
 H   -3.1802474407   -2.0320622336   -0.8633857812
 H   -1.5224286643   -2.4915232376   -1.2530580154