20

 C    0.1567306817    1.6374260055    0.0550183159
 C    0.1016632074    0.1163405948   -0.0102041905
 C    0.8133018160   -0.5840172999   -1.2121392695
 N    1.6542129887   -1.2838631302   -0.2283649774
 C    2.9341973785   -1.9455828011   -0.3297292304
 C    4.0984010037   -0.9630476216   -0.5394882522
 O    4.0333703255    0.1524749472    0.3247511645
 C    1.1578465204   -0.6054840731    0.8551369235
 O    1.5210652865   -0.5750665219    2.0083648174
 H    1.1780147002    1.9946604687   -0.1118672766
 H   -0.4971281363    2.0919520067   -0.6958438849
 H   -0.1619826537    1.9851860417    1.0418949558
 H   -0.9126275603   -0.2551628888    0.1601139457
 H    0.2026221099   -1.2516102011   -1.8279469902
 H    1.3663153141    0.1095593559   -1.8552707832
 H    3.0780354095   -2.4835348106    0.6145885133
 H    2.9149299726   -2.6910814425   -1.1325717791
 H    5.0429612070   -1.5204884718   -0.4281523154
 H    4.0812377994   -0.5604937866   -1.5594298914
 H    3.7191277591   -0.1391221412    1.1904463449