22

 C   -0.1187264806    1.8215814268    0.7720709473
 N   -0.1650569855    0.3680871826    0.7562369988
 C    0.8523648731   -0.3155958129   -0.0297354081
 C    0.8526424747   -0.4214180704    1.4579832358
 C    2.0065528521    0.1383960286    2.2665087439
 O    1.7876658397    0.1159816758    3.6692854947
 C    0.9372009339    1.1099959442    4.1538135375
 C   -0.5355946434    0.8302279767    4.3289407137
 C    0.3920272858    0.8905536326    5.5267257010
 H    0.8918828473    2.2524684475    0.6839868025
 H   -0.7092762608    2.1931971714   -0.0715704627
 H   -0.5714762097    2.1914579993    1.6961607622
 H    0.5191458090   -1.1456229873   -0.6476419576
 H    1.6358070325    0.2958135279   -0.4804554720
 H    0.4478216298   -1.3305635935    1.9008222483
 H    2.8821750620   -0.5014494236    2.1110008629
 H    2.2775243690    1.1505213199    1.9328229254
 H    1.2339520903    2.1216022172    3.8730588171
 H   -1.2432283876    1.6377778250    4.1747293335
 H   -0.8901459100   -0.1474399885    4.0256595151
 H    0.6506481319   -0.0505718340    5.9986689688
 H    0.3278292566    1.7362662847    6.2018433018