15

 C    0.0189602679    1.4476116522   -0.0161397251
 C   -0.0552467159   -0.0361590492    0.0156022686
 N   -1.0950820381   -0.7946418421   -0.1426776927
 C   -0.6084958280   -2.0927068995   -0.0188921277
 C   -1.5028024419   -3.2796566062   -0.1389400250
 O   -0.7140743827   -4.4451202206    0.0334696689
 C    0.7224848097   -2.0428795096    0.2114134695
 O    1.0938517478   -0.7221820784    0.2363612098
 H    0.6954233665    1.7918170050   -0.8053388267
 H   -0.9778593344    1.8479516618   -0.2016301213
 H    0.3928769106    1.8441736012    0.9335159953
 H   -2.3013938840   -3.2104287782    0.6174081049
 H   -1.9982577555   -3.2627776713   -1.1232378326
 H   -1.2902523267   -5.2101604799   -0.0438590629
 H    1.4941722148   -2.7739292951    0.3678033871