14

 O    0.0961992428    1.3892451299   -0.0045633191
 C    0.0722898546    0.0331501246   -0.0056058277
 C    0.0337074240   -0.7700495863   -1.1182991902
 N    0.0090046184   -0.4576413238   -2.4783136805
 C   -0.0256905121   -1.3660326861   -3.4876299180
 O   -0.0401989289   -2.5767465489   -3.3341303317
 N    0.0217239338   -2.0607610009   -0.6327195307
 C    0.0529106690   -1.9728967057    0.7212051203
 N    0.0840512319   -0.7157500446    1.1291092696
 H    0.1161034569    1.6607105062    0.9209059096
 H    0.0182592355    0.5247545506   -2.7061186281
 H   -0.0397219131   -0.8834373368   -4.4799245453
 H   -0.0032317752   -2.8640480867   -1.2454071679
 H    0.0515905824   -2.8424081913    1.3586275397