17

 C    0.1075689178    1.5633819459    0.1141991217
 N    1.1451745554    0.5770505487   -0.2218493490
 C   -0.2371317053    0.1271506341   -0.0078030606
 C   -0.4645805772   -0.7178438848    1.2128535278
 O   -1.7938005405   -0.5462870803    1.6935169246
 C   -2.2983994334   -1.8229932662    2.0739908535
 C   -1.1044068534   -2.7683959432    1.8610644872
 O   -0.3292615735   -2.0824213088    0.8918611936
 H    0.2094731984    2.0146723174    1.0972930902
 H   -0.2578094775    2.2360283811   -0.6567269634
 H    1.3525960355    0.6018043200   -1.2159139187
 H   -0.8281767422   -0.1835642605   -0.8661217706
 H    0.2541315566   -0.4363362304    2.0036180851
 H   -2.6381697662   -1.8007572314    3.1156124299
 H   -3.1486614213   -2.0848180189    1.4319199581
 H   -0.5347710456   -2.9069805966    2.7925690756
 H   -1.3771089677   -3.7473113262    1.4615482151