22

 C   -0.0299971020    1.5189294577    0.0069254192
 C   -0.0136078522    0.0123732265    0.0604713402
 C   -1.2596832692   -0.7520037792   -0.3768215719
 C   -1.0986328040   -2.1937166307    0.1599981135
 C   -2.4236182734   -2.8809173067    0.4859671976
 O   -0.4323945372   -2.9214642837   -0.8913847204
 C   -0.1593857824   -2.0435443271    1.3892816447
 C    0.6575846733   -0.7921194172    1.1229298043
 N    1.2797789370   -0.6402974307   -0.2021599935
 H    0.9145228741    1.9230938100    0.3792308835
 H   -0.1611756565    1.8728146832   -1.0224436449
 H   -0.8493989966    1.9294506899    0.6083034899
 H   -2.1491268430   -0.2833289835    0.0610780812
 H   -1.3972854673   -0.7687040102   -1.4631377976
 H   -3.0402674448   -2.9627736897   -0.4138676545
 H   -2.2518209755   -3.8931168137    0.8721858685
 H   -2.9837283153   -2.3264928145    1.2451238569
 H   -0.2400969651   -3.8057169631   -0.5596823668
 H   -0.7465971801   -1.9121378336    2.3066660910
 H    0.4525178892   -2.9441839667    1.5277149120
 H    1.2017350536   -0.3365641991    1.9465368115
 H    1.1447362572   -1.4871588278   -0.7512042543