13

 C    0.9930837121    1.1023874811    0.0769843366
 N    0.3633798147    0.1280153400   -0.8165243755
 C   -0.3806322105    0.5931201517    0.3666032204
 C   -0.6232499964   -0.4246676078    1.4048041237
 N   -1.5282407518   -0.2819916468    2.3372544894
 O   -1.4547443622   -1.4114573952    3.1055135178
 N   -0.4965387539   -2.2673067747    2.6415088244
 C    0.0220914634   -1.6812955144    1.6002151347
 H    1.8360758091    0.7240679054    0.6479048524
 H    1.0837603009    2.1376107067   -0.2405363307
 H    0.0086125265    0.5791544446   -1.6547916918
 H   -1.1985640306    1.2946525454    0.2327407237
 H    0.8023903887   -2.1431489259    1.0173599848