20

 C    0.1869521079    1.6189680597   -0.0615098397
 C    0.1069743817    0.1044997281    0.1197668785
 C    0.7854465783   -0.7487831159   -1.0193160075
 N    1.7576410027   -1.6071108645   -0.2748613008
 C    0.8897525195   -1.9908688830    0.9167828747
 C    0.9258946435   -0.4874372566    1.2894076402
 C    2.3383066408   -0.5595198086    0.6634561122
 C    3.4718982666   -1.1092635405    1.4972876207
 O    3.5244404807   -1.0664550729    2.7001925234
 H    1.2211749977    1.9679298818   -0.1554467112
 H   -0.3458354814    1.9322037954   -0.9658746113
 H   -0.2647342405    2.1442168079    0.7865686704
 H   -0.9459158465   -0.1775998098    0.2331534902
 H    0.0816382731   -1.3840535875   -1.5625449743
 H    1.3223317150   -0.1301044999   -1.7444585307
 H   -0.0700175985   -2.4444596301    0.6534304938
 H    1.4402294850   -2.6403376325    1.5988084544
 H    0.7437902318   -0.1118163898    2.2961101665
 H    2.7284851572    0.3220099624    0.1355041504
 H    4.2959661855   -1.5500536936    0.8924902399