18

 C    0.0391915409    1.5897847183   -0.0081588949
 C    0.1184103272    0.0801676121   -0.0164777668
 C    0.7048782062   -0.7502362550   -1.1205254989
 C    0.0693267360   -1.7967196592   -1.9691588785
 O    1.8373174612   -0.0165184792   -1.6960801709
 C    2.5350767426   -0.1202250637   -0.4930589904
 N    3.7143330875    0.1857039486   -0.2029026614
 C    1.3884337501   -0.7598745897    0.2300244795
 O    1.4689123133   -1.7691358591    1.1576210861
 H    0.8770111517    2.0317810355   -0.5512432072
 H   -0.8860840968    1.9287893918   -0.4861208654
 H    0.0484358066    1.9786263434    1.0151346555
 H   -0.7245390958   -0.4311188005    0.4485673326
 H   -0.4670294641   -1.3452955346   -2.8106025894
 H    0.8231682480   -2.4819035486   -2.3676192445
 H   -0.6471161276   -2.3720687884   -1.3764759520
 H    4.2058123369    0.5769034357   -1.0084876861
 H    1.6049321961   -1.3758891274    2.0271433325