16

 C   -0.3274660144    1.4594598198    0.1128290551
 C    0.1661204278    0.0400344364   -0.0574135738
 O    1.3906649542   -0.0489324399   -0.8215544337
 C    2.0576468253   -0.7941528673    0.2082535446
 C    0.8409122948   -0.6580080713    1.1704840112
 O    1.0351633507    0.2540633311    2.2354650898
 C    0.2369857198   -1.8983587120    1.6314102573
 C   -0.2409053404   -2.9237366230    2.0394018867
 H    0.4208984707    2.0774161614    0.6112865406
 H   -0.5434335373    1.8850406093   -0.8721085275
 H   -1.2472495383    1.4753968319    0.7057243718
 H   -0.6108578050   -0.5927260321   -0.5050386308
 H    2.2966686755   -1.8181997729   -0.1015328703
 H    2.9574957665   -0.2887626553    0.5770816461
 H    1.2939680991   -0.2497022127    3.0141173059
 H   -0.6719096790   -3.8286975435    2.3913482171