21

 C    0.0456597472    1.4207817640    0.2588956042
 C    1.3671041318    0.7187407057    0.1486875915
 C    0.0319456362   -0.0761046540    0.1570840251
 C    0.3796560333   -0.6665953021   -1.2316850192
 C    0.0094901996   -0.0872754018   -2.6462702464
 C   -0.7780692245    1.2402158030   -2.8296576876
 C    0.5682847229    2.0417461042   -2.8380874992
 C    1.3615872215    0.7176706291   -2.6547683781
 C    1.7075616231    0.1239377271   -1.2400385600
 H   -0.1595324315    1.7761034053    1.2656904172
 H   -0.3486936757    2.0751743972   -0.5008373191
 H    2.0975389931    0.8084208074    0.9448139981
 H   -0.3876349031   -0.6710552119    0.9604398244
 H    0.4231460020   -1.7568805087   -1.2091576575
 H   -0.2007540548   -0.8619310049   -3.3866113729
 H   -1.2931479864    1.2827458686   -3.7929573000
 H   -1.5101094130    1.4854363215   -2.0585014552
 H    0.7674662837    2.5095375861   -3.8058468778
 H    0.7087512273    2.8063655362   -2.0723695451
 H    2.1358911106    0.5291558656   -3.4013035022
 H    2.6454728469   -0.4338774977   -1.2231346502