17

 C   -0.1275405544    1.5306210769    0.0699007657
 C   -0.0749398209    0.0016992332    0.0596603025
 C    0.8445051150   -0.5602746235    1.1616976378
 C    0.9020002857   -2.0478341927    1.1800157697
 N    1.9013113317   -2.8255572552    0.9001288879
 C    1.4014309584   -4.1133215519    1.0583876358
 C    0.1042256775   -4.0418178639    1.4304526216
 O   -0.2346996630   -2.7194649698    1.5136200159
 H    0.8663519189    1.9632602149   -0.0888683138
 H   -0.7850799009    1.9080348512   -0.7189239270
 H   -0.5039564861    1.9082800410    1.0271148861
 H   -1.0820917532   -0.4090524828    0.1928214188
 H    0.2801858918   -0.3546776312   -0.9143942704
 H    1.8679815487   -0.2014112752    1.0236942868
 H    0.4988608094   -0.1994054922    2.1389152619
 H    2.0134603069   -4.9857142594    0.8935965752
 H   -0.6686165254   -4.7537988093    1.6626667555