13

 N    0.1383685476    1.3632442764    0.1656488469
 C   -0.0365377598    0.0209962841    0.0585482504
 C   -1.1442993293   -0.7830581458    0.0246647719
 N   -0.6314860639   -2.0986704726   -0.0130576497
 C    0.7218573328   -2.1066540413   -0.0116874730
 O    1.5357993434   -2.9798981612   -0.0428477863
 O    1.0878884006   -0.7237420853    0.0368856594
 C   -2.5445520142   -0.5043499061    0.0152593450
 O   -3.4061746343   -1.3678808858   -0.0225847906
 H    1.0360162787    1.7112675541   -0.1363009304
 H   -0.6473110045    1.9502958925   -0.0643948973
 H   -1.2085678678   -2.9217143538   -0.0467656635
 H   -2.8064024493    0.5765875549    0.0445338674