17

 C    0.1665908644    1.4981311712   -0.3036302630
 C   -0.1034690479    0.0844467332    0.1587968513
 O    0.4322866713   -0.9103637149   -0.7903312883
 C    1.2436938817   -1.4641163592    0.1604678204
 O    2.0325183304   -2.3455781573    0.0282566890
 C    0.7586909911   -0.5460350341    1.2870859281
 C    1.8212764919    0.2762590588    2.0222077667
 C    2.6967731353   -0.6029947462    2.9026413906
 O    2.9118018346   -0.3791672237    4.0653522066
 H    1.2320814502    1.6682770953   -0.4788707952
 H   -0.3663849412    1.6931198979   -1.2383414239
 H   -0.1845508119    2.2153930166    0.4451024444
 H   -1.1747756114   -0.0929530551    0.2850812103
 H    0.1478809947   -1.1001459702    2.0064270401
 H    2.4818546737    0.7702034243    1.2975646590
 H    1.3660578730    1.0472901713    2.6502229013
 H    3.1354982001   -1.4825694481    2.3859228126