18

 N   -1.0266520305    1.0204285236    0.2943777085
 C   -0.7085821425   -0.1666771821    0.0069573274
 O   -0.9140328282   -1.1508127885    0.9092421139
 C   -0.8906379882   -2.4830845343    0.4217175941
 C   -2.2694200113   -2.9074891185   -0.0921176733
 O   -3.2564799881   -2.8571402976    0.9098197947
 C   -4.0085616498   -1.6603126888    0.7083816960
 C   -3.9347134900   -1.4812534669   -0.8070923114
 O   -2.6587971759   -2.0323300052   -1.1360475127
 H   -0.7569891422    1.6428260679   -0.4647439698
 H   -0.2390729262   -0.5158862529   -0.9212000854
 H   -0.1509470222   -2.5990686035   -0.3825524350
 H   -0.6045186826   -3.1216334429    1.2610087352
 H   -2.2132373388   -3.9456469038   -0.4566735525
 H   -5.0213196464   -1.8287916020    1.0814655821
 H   -3.5514943146   -0.8160930580    1.2364272258
 H   -4.7302696996   -2.0348580511   -1.3235611165
 H   -3.9524318631   -0.4354688054   -1.1226723810