20

 C    0.0832789826    1.5024767235    0.1246027495
 N   -0.0177522112    0.0614948060    0.1567358806
 C   -1.2986467943   -0.5509459534    0.5511910069
 C   -0.5052485826   -1.6743329931    1.2514418020
 C    0.7001529873   -0.6785489851    1.2080147879
 N   -1.0483766971   -2.1745784909    2.4919072392
 C   -0.1963027067   -3.1639039507    3.1426881927
 C   -0.8064302404   -3.6502581264    4.3835823411
 N   -1.2734285300   -4.0169062249    5.3741551542
 H    1.1119129653    1.7978466430   -0.1074128681
 H   -0.5656937393    1.9029980674   -0.6613816493
 H   -0.2029450718    1.9801207042    1.0817805275
 H   -1.8621788374    0.0503846143    1.2879069037
 H   -1.9694385099   -0.8169043569   -0.2715844359
 H   -0.3348712287   -2.5216040830    0.5804160117
 H    1.6932201235   -1.0432425593    0.9236978300
 H    0.7816773489   -0.1200426224    2.1594014001
 H   -1.2375674324   -1.4094027864    3.1317313324
 H   -0.0686485623   -4.0164089044    2.4639382377
 H    0.8193111263   -2.8037868316    3.3861429660