16

 C    0.0880501553    1.1691706095   -0.3060369265
 O   -0.2114737840    0.1308836293    0.6368033827
 C   -1.2768652045   -0.6277589572    0.3263671635
 C   -1.3897984254   -1.9346248902   -0.0133800967
 O   -0.3986207034   -2.8464578606   -0.2062120632
 C   -2.7935933495   -2.2216603464   -0.1394979540
 C   -3.4266925367   -1.0477434971    0.1391116244
 N   -4.7648675950   -0.6915568313    0.2556053546
 O   -2.5420454717   -0.0646042368    0.4336412602
 H    1.0087144731    1.6451774237    0.0370373317
 H    0.2330853353    0.7527949501   -1.3100057726
 H   -0.7173413041    1.9106234061   -0.3348941715
 H    0.4358794228   -2.4234819934    0.0265566591
 H   -3.2411489493   -3.1669416816   -0.3976609002
 H   -5.3730654377   -1.2919089633   -0.2844606851
 H   -4.9259579454    0.2799857592    0.0203526836