17

 N    0.2406400955    1.4962655357    0.5852662868
 C    0.1580128867    0.1438164270    0.1534453822
 C   -1.0103032808   -0.4635579471   -0.2605457627
 C   -2.4022410979    0.0959732347   -0.3263857548
 C   -3.2385142917   -0.5521363299   -1.3340960646
 C   -3.9119551381   -1.1278984458   -2.1470486115
 N   -0.7005304107   -1.7553330136   -0.6133359939
 C    0.6432969571   -1.9723493664   -0.4687226838
 C    1.2057300347   -0.8153384966    0.0206668339
 H   -0.0929528785    1.6122838353    1.5371529790
 H    1.2007164151    1.8201235417    0.5674345853
 H   -2.9131698657    0.0197329908    0.6463248707
 H   -2.3193885760    1.1709589345   -0.5318443429
 H   -4.5200253703   -1.6042663922   -2.8756534109
 H   -1.3642090783   -2.3918692579   -1.0211105231
 H    1.0846807328   -2.9220699438   -0.7239608837
 H    2.2480310960   -0.6650710364    0.2605643137