19

 C   -0.0741368175    1.6306322134    0.1402723508
 C   -0.0334285444    0.1209092062    0.0771244863
 C   -1.2895464553   -0.5508271943   -0.4530151518
 O   -1.5241538981   -0.3065781764   -1.8313818536
 C    1.2572704514   -0.6083994152   -0.2547302929
 O    2.4530614319    0.1363415110   -0.1624834099
 C    2.8215773652    0.0810004690    1.2035554831
 O    1.6182785900    0.0275448302    1.9523635315
 C    0.7098227862   -0.6810409218    1.1388256082
 H    0.8315569566    2.0370975628    0.5895909912
 H   -0.1655092027    2.0628174648   -0.8629140956
 H   -0.9287810714    1.9675912377    0.7380189463
 H   -1.2032790104   -1.6395132851   -0.3635068894
 H   -2.1515519280   -0.2437416981    0.1609083433
 H   -1.6807896878    0.6360039209   -1.9434829155
 H    1.2775624825   -1.4281389132   -0.9651760420
 H    3.4353054444   -0.8145680300    1.4012038001
 H    3.3687780863    0.9900983727    1.4673465829
 H    0.2787744011   -1.5661897846    1.5965010070