17

 O    0.1074375103    1.5229580034    0.1505707137
 C    0.0453602595    0.1106915717    0.0664233576
 C    0.1531910529   -0.6361398508    1.4262320679
 C   -0.9989970405    0.0052418260    2.2405320285
 C   -2.1243762556    0.0651096849    1.1413032478
 O   -2.6125255900    1.3558268046    0.8712988838
 C   -1.3588528293   -0.5894669427   -0.0477407065
 C   -0.6437220035   -1.7325684142    0.6919263887
 O   -0.6465137000   -2.9265450266    0.6549490594
 H    0.1465567248    1.8750124208   -0.7445537734
 H    0.7613236776   -0.2703819120   -0.6689234474
 H    1.1055722370   -0.8189026316    1.9186948410
 H   -1.2797570452   -0.5995254920    3.1058343289
 H   -0.7492574367    1.0109726136    2.5854197675
 H   -2.9961170142   -0.5320967446    1.4188894490
 H   -1.8351340241    1.8944430603    0.6720897798
 H   -1.8940429130   -0.7222135310   -0.9850363362