19

 O   -0.0901541161    1.3018118548   -0.7733738367
 C    0.0111678447    0.0314647111   -0.1518564487
 C   -1.3824246970   -0.5823159744   -0.1217036429
 C   -1.3903532037   -1.9752569132    0.5360289634
 C   -2.7162208353   -2.5815852156    0.5758888710
 C   -3.8242043258   -3.0521879689    0.6129276240
 C   -5.1405885083   -3.6737678334    0.6166909421
 C   -5.2726157893   -4.7583710601   -0.4546725165
 O   -5.8710710475   -5.7865983272   -0.2931599861
 H    0.7857631824    1.6977370648   -0.7965632404
 H    0.6980554761   -0.6314238429   -0.7044158663
 H    0.4020376131    0.1180721415    0.8758827555
 H   -2.0561806558    0.0880532822    0.4215469274
 H   -1.7630472975   -0.6534430617   -1.1457445035
 H   -0.7026863794   -2.6408236967   -0.0033036934
 H   -0.9956973192   -1.9018325585    1.5585691160
 H   -5.3934799003   -4.1181436737    1.5849937824
 H   -5.9160896210   -2.9225827224    0.3992989099
 H   -4.7735061400   -4.5104230258   -1.4167502273