20

 C   -0.1584194504    1.5389005268    0.0214727540
 C    0.0050074971    0.0318812944   -0.0725285108
 C    0.7840421602   -0.5741779868   -1.2901748146
 C    2.0319233856   -0.2688807736   -0.4160534483
 N    1.1395525469   -0.5421191379    0.7807255261
 C    0.9203826183   -2.0133970824    0.5877456953
 C   -0.1322050027   -2.6435116643    1.4895669045
 C    0.6009075954   -2.0445496565   -0.9338905875
 O    0.2724036182   -2.9765154625   -1.6170200397
 H    0.7443351707    2.0930046633   -0.2445263882
 H   -0.9624280333    1.8673741821   -0.6447987246
 H   -0.4310487186    1.8125880927    1.0454713539
 H   -0.9609627717   -0.4340451859    0.1437739156
 H    0.6473292191   -0.2839000282   -2.3309411488
 H    2.9033582153   -0.9244607187   -0.4987419364
 H    2.3554773020    0.7708935633   -0.4388467507
 H    1.8771411075   -2.5218008676    0.7581932280
 H   -1.1023156778   -2.1444427787    1.4127203409
 H   -0.2742650046   -3.6891437386    1.2021704806
 H    0.1882510927   -2.6046097408    2.5339618608