21

 C   -0.6688035479    1.4178296228   -0.4281066862
 N   -0.4502279377    0.0084786451   -0.1236287389
 C   -1.2421177470   -0.5908476903    0.9875040921
 C   -0.1409198849   -1.6594683615    1.2403632184
 N   -0.0150311895   -1.4344073059    2.7100679306
 C   -0.3259605986   -0.0635600394    2.1719138353
 C   -0.4433242786    1.1018836803    3.1142663641
 C    0.5931854779   -0.3307601770    0.8976371354
 C    2.0612127073   -0.0865101208    0.7312515214
 H    0.1399820421    1.7750629796   -1.0743285094
 H   -1.6046785011    1.5194866816   -0.9880460049
 H   -0.7238043163    2.0855892507    0.4458843807
 H   -2.3275038568   -0.7165589994    0.9541199873
 H   -0.0198172989   -2.6265915376    0.7531958863
 H   -0.8339638977   -1.8125955763    3.1953079822
 H    0.4716328194    1.1924874490    3.7093869061
 H   -0.6108048330    2.0456907136    2.5911261142
 H   -1.2784734824    0.9508809145    3.8087935049
 H    2.6008773113   -0.5080218298    1.5846226021
 H    2.4303724537   -0.5583792931   -0.1850476621
 H    2.2861442288    0.9843331439    0.6779214503