16

 C   -0.0172530530    1.4355179683    0.0179767924
 N    0.0547809531   -0.0062186144   -0.0312912492
 C    0.1861735473   -0.8075644218   -1.1616791306
 C    0.2133285050   -2.0926911138   -0.7526086366
 N    0.0987447519   -2.0978898107    0.6344888040
 C    0.0811325097   -3.2475954931    1.5086096351
 C   -0.0024019908   -0.7959421037    1.1114498854
 O   -0.1157394614   -0.4293531900    2.2706407711
 H    0.8898685182    1.8937795204   -0.3909140634
 H   -0.8839702777    1.8101459475   -0.5374604906
 H   -0.1171343766    1.7136787188    1.0685975553
 H    0.2479100486   -0.3880783584   -2.1510962538
 H    0.3031659639   -3.0040195357   -1.3184141095
 H   -0.7638227103   -3.9070435064    1.2822580834
 H    1.0099936193   -3.8228380175    1.4287500481
 H   -0.0208912672   -2.8711345795    2.5279337889