23

 C   -0.2299650346    1.4881294417    0.0690902112
 C   -0.0715349822   -0.0182938941   -0.1215056842
 C    0.7884693314   -0.3956740581   -1.3229724964
 O    1.3396409718    0.4420333557   -2.0014662799
 C    0.9112627391   -1.8846533014   -1.6229454080
 C    1.8893383394   -2.2113407850   -2.7539329884
 C    1.9477299071   -3.6906141711   -3.0686042027
 C    0.9409636272   -4.3113160574   -4.0070608643
 C    2.3830257248   -4.1649842043   -4.4304179985
 H    0.7438904342    1.9688786732    0.1892860052
 H   -0.7098483621    1.9438670751   -0.8009880774
 H   -0.8371963920    1.7053867431    0.9523145871
 H    0.3808273968   -0.4823804925    0.7663936109
 H   -1.0465856735   -0.5124273777   -0.2310215886
 H    1.1913799250   -2.4037948373   -0.6955870657
 H   -0.0934641272   -2.2615149950   -1.8633474949
 H    1.5980863574   -1.6511235052   -3.6493060417
 H    2.8860779112   -1.8412468027   -2.4857939420
 H    2.2559771879   -4.3163199468   -2.2334504443
 H    0.5658533194   -5.3050310413   -3.7881832842
 H    0.2113481913   -3.6550292097   -4.4713740554
 H    2.6167422279   -3.4117521859   -5.1758274107
 H    2.9932204197   -5.0589243133   -4.4976881270