20

 C   -0.1033733417    1.3253422097    0.1550682184
 O   -0.1067387874   -0.0188975578   -0.2715922469
 C   -1.3467405982   -0.6623119785   -0.0872925310
 C   -1.2059516062   -2.1135491190   -0.5329492766
 C   -0.8150781209   -2.5398999842    0.8306047585
 C   -1.5441534334   -1.2402817365    1.3466934496
 C   -2.8340864751   -2.0785479323    1.2280552443
 C   -4.1605709238   -1.4965922942    0.7706253482
 N   -2.1133268320   -3.0019546259    0.2735213553
 H    0.8851546091    1.7320977500   -0.0707863055
 H   -0.8621508733    1.9218778734   -0.3751558361
 H   -0.2855781778    1.4213615688    1.2357939313
 H   -2.1526732413   -0.0415450669   -0.5046283955
 H   -0.8849110942   -2.4860798918   -1.4963005435
 H   -0.0421657309   -3.1914646182    1.2136460047
 H   -1.3077194267   -0.6383816930    2.2226918473
 H   -2.9868946737   -2.6609432764    2.1436069799
 H   -4.0814051168   -0.9650891999   -0.1806686869
 H   -4.8928678288   -2.2999626619    0.6421367845
 H   -4.5519008871   -0.7999549851    1.5204615199