17

 O   -0.5804408090   -0.0380933327    1.4226361598
 C   -0.2139390123    0.9445378958    0.8064952182
 C    1.2355970829    1.4697522479    0.9415317392
 C    1.9140342538    1.7045031105   -0.3276425279
 N    2.4315528850    1.8915332251   -1.3442574368
 N   -1.0277276634    1.6567399922    0.0021296198
 C   -0.9480429209    2.9241250590   -0.7429477508
 C   -2.4660529117    2.7791809434   -1.0517997459
 C   -2.4608169318    1.4587415472   -0.2275491619
 H    1.2293911331    2.4027509745    1.5179776211
 H    1.7792993056    0.7232457755    1.5240628199
 H   -0.6781182923    3.7859419928   -0.1219407969
 H   -0.2792559894    2.8876809038   -1.6066010114
 H   -3.0917476441    3.5712907247   -0.6408993057
 H   -2.6970745850    2.6524840888   -2.1092279394
 H   -2.6904599306    0.5444473558   -0.7826685802
 H   -3.0500453000    1.4662863857    0.6946258889