17

 O   -0.5151864514    0.0056049709    0.2346120463
 C    0.2632439132    0.6682210042   -0.3942431072
 C    0.8841257512    1.9673756305    0.1270490606
 C    1.0167170004    2.9753531775   -0.9131768821
 C    1.1084631674    3.7744383961   -1.8102773451
 C    1.2182328363    4.7547377354   -2.8764583076
 C    0.7328716819    6.2018901769   -2.5815746889
 C    2.1774553963    6.6050061897   -2.9318600696
 O    2.5731688480    5.2260770137   -3.1013487433
 H    0.6055474069    0.3750103762   -1.4101476452
 H    0.2884373553    2.3158199632    0.9770763818
 H    1.8789564148    1.7058952512    0.5199075200
 H    0.8014397485    4.3377168536   -3.8034492571
 H   -0.0501679055    6.5730593568   -3.2432400258
 H    0.4461912404    6.3682467373   -1.5434812561
 H    2.2923533439    7.1772098032   -3.8605514262
 H    2.7487827423    7.0976016334   -2.1371453843