19

 C   -0.3270352764    1.3785817681   -0.1497661736
 C    0.2296493823   -0.0311729347    0.0830874304
 C    0.7546444994   -0.6607324276   -1.1946652996
 C    0.9338413087   -2.1215888867   -1.4701201791
 C   -0.1913061665   -2.9491258699   -0.8370340905
 C   -1.1877863918   -2.1508132057   -1.7254738911
 O   -2.3387064055   -2.3170673195   -2.0136997117
 C   -0.0943518540   -1.2858651463   -2.2982592919
 O   -0.0182366877   -0.8764284615   -3.6094900143
 H    0.4342455816    2.0415094907   -0.5760326760
 H   -1.1773720689    1.3567292479   -0.8399248377
 H   -0.6709066381    1.8271692792    0.7867872262
 H    1.0473662010    0.0116861486    0.8140898206
 H   -0.5483442544   -0.6565858036    0.5314062278
 H    1.5411179708   -0.0701410096   -1.6668978189
 H    1.8638413359   -2.5297075658   -1.8432408694
 H   -0.1875248664   -3.9987654735   -1.1454810881
 H   -0.3170569712   -2.8967792488    0.2469075758
 H   -0.2796779689    0.0487871288   -3.6643814390