21

 C    1.0602942011    1.5029582577   -0.6147453437
 C    0.2436461497    0.3324267806   -0.0664879094
 O    0.2882507289   -0.8314547727   -0.8798609474
 C   -0.4927466846   -0.7778488949   -2.0355692635
 C    0.1255042997   -0.3767218787   -3.3512710797
 C   -0.2201069517   -1.8251976636   -3.0646616475
 C    0.6981357219   -0.0548476230    1.3532447367
 C    0.6996084765   -1.5244412895    1.7101431605
 O    1.0068554478    0.8087715400    2.1414807575
 H    2.0891966009    1.1856160609   -0.8098468899
 H    0.6291106961    1.8820481843   -1.5435314837
 H    1.0792016790    2.3032821516    0.1273257358
 H   -0.8085953495    0.6520048369    0.0469739568
 H   -1.5294163738   -0.4921187760   -1.8515774926
 H   -0.4772945838    0.1764484141   -4.0634753369
 H    1.1763832925   -0.1127953546   -3.3391397806
 H    0.6055840905   -2.4968844019   -2.8591653236
 H   -1.0598623451   -2.2796898170   -3.5777111631
 H   -0.2822183977   -1.9676392986    1.5155388039
 H    1.4056102614   -2.0625198148    1.0704179681
 H    0.9705272501   -1.6405255807    2.7600210424