23

 C   -0.2224769999    1.4398476763    0.1397507239
 C    0.0413918791   -0.0564850994   -0.0888857223
 C    0.7766007235   -0.3382697538   -1.4134423685
 C    0.0027871457    0.0626284309   -2.6705477202
 O    0.6918365478   -0.2765889860   -3.8653169518
 C    0.8261454267   -0.6395211943    1.0751902128
 C    0.1166090060   -1.0725511120    2.3444584150
 C    0.7285416870   -2.0967377872    1.4196159136
 O   -0.1016929874   -2.8813496786    0.6085248469
 H    0.7156068448    2.0080131682    0.1395197337
 H   -0.8680088767    1.8643088144   -0.6347597160
 H   -0.7097494148    1.6047234119    1.1058744778
 H   -0.9224338901   -0.5782743027   -0.1292533709
 H    1.7500843420    0.1699841490   -1.4210362146
 H    0.9806875039   -1.4158538229   -1.4646150209
 H   -1.0028159758   -0.3904175267   -2.6479189859
 H   -0.1350376366    1.1472916911   -2.7175066472
 H    0.8347865931   -1.2285409348   -3.8554790369
 H    1.8112268399   -0.1967896805    1.2093871312
 H    0.5796230864   -0.8881350962    3.3079178494
 H   -0.9672438487   -1.0062690851    2.3402881105
 H    1.6366205223   -2.5994676788    1.7527186963
 H   -0.5522135479   -3.5185377027    1.1721047741