15

 C   -0.0942777583    1.5042779777    0.0579510026
 C    0.0766725208    0.0195932552    0.0537113532
 N    0.8101928627   -0.5577049953   -0.8683032711
 O    0.7641062721   -1.9273014189   -0.5914190326
 C   -0.0007490732   -2.1229875855    0.4941379386
 C   -0.1524943022   -3.5508025736    0.9255700333
 C   -0.9960838456   -3.6862155769    2.1103052825
 N   -1.6633127133   -3.7897282169    3.0468091983
 C   -0.4714337189   -0.9402481312    0.9592883969
 H    0.2675107278    1.9353080817    0.9968846844
 H    0.4619827483    1.9479932900   -0.7695551244
 H   -1.1502059906    1.7750289815   -0.0424778497
 H   -0.5825808360   -4.1449239225    0.1097308579
 H    0.8327378417   -3.9852276076    1.1356580355
 H   -1.1082490852   -0.7717938278    1.8116289548