18

 C    0.0420256712    1.4889802866   -0.2502147771
 O    1.4629291750    1.5286985403    0.1298674435
 C    1.2264607395    0.3608975720    0.9294327762
 C    1.8385832447   -1.0080016916    1.2932250267
 C    0.4934533022   -1.0496550379    2.1468603654
 C    0.7349019690    0.4619709510    2.3949327756
 C   -0.7025534621   -0.9604909979    1.1346784093
 C   -0.0001432497   -0.0185154308    0.1245008270
 H   -0.5511304816    2.1585924644    0.3835906174
 H   -0.0951046675    1.7478154536   -1.3028780034
 H    1.9799251420   -1.7299558026    0.4850554664
 H    2.7062100675   -0.9877861778    1.9564697563
 H    0.4091744292   -1.7530293456    2.9740999315
 H    1.5517304610    0.6646714190    3.0906060302
 H   -0.1306750570    1.0883892853    2.6253054822
 H   -0.9784327685   -1.9166549795    0.6824921060
 H   -1.5898054644   -0.5521469456    1.6271100600
 H    0.2985692095   -0.5738969526   -0.7689839032