21

 C    0.9010753456    1.3457237977   -0.1944325992
 C   -0.0021281117    0.1419288316    0.0608220669
 O    0.0298404250   -0.7780219514   -1.0339215463
 C    0.8575127761   -1.9058519592   -0.7270303655
 C    1.4053855061   -1.6746303489    0.6695455526
 C    2.1069197494   -2.7360945855    1.4613821727
 C    2.8820507091   -1.5471172347    0.9432116581
 C    0.4130685470   -0.7050851753    1.2902201227
 O    0.9959921946    0.0101616484    2.3624383031
 H    1.9490536729    1.0436060351   -0.2712083987
 H    0.6086638970    1.8295713917   -1.1303819840
 H    0.8184399528    2.0738917272    0.6178460164
 H   -1.0419173832    0.4825420391    0.1519585848
 H    0.2392380351   -2.8140526684   -0.7765239356
 H    1.6515639111   -1.9992276458   -1.4789964687
 H    1.9106342486   -2.7786727825    2.5279232362
 H    2.2681646170   -3.7023990917    0.9935423310
 H    3.5630644507   -1.7026444570    0.1125298890
 H    3.1965074048   -0.8018049891    1.6633770369
 H   -0.4657477832   -1.2678169779    1.6424807282
 H    0.2924459251    0.4374735867    2.8592333296