21

 C    0.0489173786    1.3494799671   -0.1134419147
 O    0.0061843779   -0.0404105627    0.1113871183
 C   -1.2963391407   -0.6046516004    0.0639099255
 C   -1.8769392756   -0.6726369073   -1.3603614415
 C   -3.0683583860   -1.6287008068   -1.3892493989
 O   -2.6605682069   -2.9592777118   -1.1139457203
 C   -1.9944157698   -3.1237458814    0.1063622716
 C   -0.4911326958   -3.1258897728    0.0894744888
 C   -1.2375228139   -1.9679446110    0.7184227156
 H    1.0787699854    1.6713564228    0.0608123746
 H   -0.2306060595    1.6239139202   -1.1413058293
 H   -0.6127998943    1.8948668886    0.5788709681
 H   -1.9753715998    0.0227988505    0.6687298080
 H   -2.1884042766    0.3222321463   -1.6953982342
 H   -1.1094959967   -1.0319665998   -2.0551164914
 H   -3.8378137547   -1.2996485347   -0.6707073549
 H   -3.5279414016   -1.6590174849   -2.3810841576
 H   -2.5134023369   -3.8081189519    0.7737311138
 H    0.0460388022   -3.8000091184    0.7473491827
 H   -0.0234666333   -2.9631982409   -0.8747041232
 H   -1.2173305421   -1.9314531607    1.8031429490