15

 C   -0.1308893718    1.5118577131   -0.0116657609
 C   -0.0534724698    0.0601010825   -0.0055588153
 C    0.0270593855   -1.1454677427    0.0001817622
 C    0.1139799245   -2.5446275379    0.0066559814
 C    1.1805183506   -3.4279426993    0.0512536253
 O    2.4839635792   -3.0973904801    0.1027470081
 N    0.7689240832   -4.7231877612    0.0375503697
 C   -0.5509501835   -4.6670683034   -0.0154545632
 N   -0.9966921286   -3.3929822642   -0.0360393436
 H    0.8722180193    1.9509869868    0.0264953672
 H   -0.6204496415    1.8883456222   -0.9174753169
 H   -0.6894243472    1.8921421392    0.8516589991
 H    2.9731253434   -3.9292383515    0.1240798284
 H   -1.2143865951   -5.5178442855   -0.0402201479
 H   -1.9528643982   -3.0826624179   -0.0749860736