18

 O    0.3432125566    1.1733286174   -0.4978718256
 C    0.1575561669   -0.1268267661   -0.0292436954
 C    0.2824239379   -0.3391475871    1.5452261121
 C   -1.2224844728   -0.7033759047    1.5747359390
 C   -2.3574469599    0.3427609832    1.7452547362
 N   -2.2792640560    0.5952579004    0.2592014741
 C   -1.3528470515   -0.5392377479    0.0872239378
 C   -1.8098047123   -2.0125017407    0.1004745473
 O   -1.6167488394   -2.0913586521    1.5517072840
 H   -0.5044235151    1.6215338238   -0.3358460858
 H    0.7845038773   -0.8025955690   -0.6192997511
 H    0.9354875257   -1.1594273768    1.8497748054
 H    0.5612562202    0.5702821159    2.0830778436
 H   -3.2896314259   -0.1177904347    2.0887812672
 H   -2.1485452102    1.2352833883    2.3436293459
 H   -3.1490715872    0.5825285442   -0.2619297870
 H   -2.8541161395   -2.1914469501   -0.1835968211
 H   -1.1633569148   -2.7209830742   -0.4312665466