24

 C    0.9742320773   -0.5972984174   -0.8728384572
 C   -0.0168270309    0.0521514611    0.1030036712
 C   -0.1136733197    1.5623276373   -0.1504903969
 C   -1.4119918620   -0.5952923392    0.0346934946
 C   -1.4768055930   -2.0495051786    0.5213951221
 O   -0.9698996953   -2.1888321189    1.8504155965
 C   -2.8781317184   -2.6135032385    0.4058782746
 C   -3.2381665522   -3.5042667495   -0.7265614152
 N   -3.1100362690   -4.0447887611    0.6356089670
 H    1.9546023462   -0.1140336150   -0.8090828958
 H    1.1215375482   -1.6609143720   -0.6635375277
 H    0.6253517228   -0.5026364087   -1.9086909285
 H    0.3598019194   -0.1042553671    1.1212072066
 H   -0.7825457452    2.0479960223    0.5682254402
 H    0.8684069997    2.0399368173   -0.0697144158
 H   -0.5002671857    1.7697871983   -1.1558709376
 H   -2.1118195696   -0.0032367649    0.6432836471
 H   -1.7945068241   -0.5519340249   -0.9946589846
 H   -0.8069953846   -2.6734144552   -0.0834184184
 H   -1.5775634197   -1.7359052286    2.4463465034
 H   -3.6578264560   -1.9766818878    0.8264264428
 H   -4.2480834780   -3.5005683344   -1.1266798351
 H   -2.4650690078   -3.7307745553   -1.4573690108
 H   -2.2137403726   -4.5137887594    0.7489023175