21

 C   -0.0467990822    1.5894345708   -0.1027377800
 C   -0.0146807561    0.0578597981   -0.0192380037
 O    0.7097055428   -0.2418578687    1.1823725045
 C   -1.4342607579   -0.5685278174    0.0458929710
 C   -2.2484283196   -0.1288506873    1.2435106121
 C   -3.2448875893    1.0006664288    1.1419520102
 C   -3.7268042997   -0.4204479401    1.2917393128
 C    0.6953400261   -0.5009425119   -1.1814106884
 C    1.2661191060   -0.9952735158   -2.1173444966
 H    0.9728654455    1.9756010015   -0.1615679329
 H   -0.5996768020    1.9156243920   -0.9869934907
 H   -0.5279202839    1.9959106215    0.7889082959
 H    0.9129246596   -1.1837575716    1.1719943494
 H   -1.9669126934   -0.3381920829   -0.8845636208
 H   -1.3071810746   -1.6594699616    0.0632813909
 H   -1.7136315705   -0.2090920705    2.1845548206
 H   -3.3515572913    1.6745234111    1.9850704583
 H   -3.3755540005    1.4782249963    0.1761733888
 H   -4.1777227508   -0.8949360764    0.4258284954
 H   -4.1625478980   -0.7222204425    2.2378372824
 H    1.7792062396   -1.4184892031   -2.9455170793