21

 C    0.3164749932    1.4361186139   -0.1097037849
 C   -0.0097438076   -0.0566465142   -0.0008949330
 C   -1.4942393535   -0.4433590928    0.0665777602
 C   -2.4155164222    0.2547942290    1.1053672679
 O   -3.3889115790    0.5641156062    0.0884689816
 C   -2.4756514297    0.1694458391   -0.9588196155
 C   -1.6060502695   -1.9551118876    0.1656599842
 C   -2.8160330235   -2.7167631991   -0.1595338944
 O   -1.6957083495   -2.6974098994   -1.0526076722
 H    1.4009458139    1.5811404459   -0.1265372673
 H   -0.0853002310    1.8798272623   -1.0252331979
 H   -0.0762526177    2.0075296871    0.7370348087
 H    0.4340323440   -0.5868539925   -0.8536745731
 H    0.4852294887   -0.4646832952    0.8911844051
 H   -2.8294153206   -0.3815477398    1.8966469734
 H   -1.9979440521    1.1625628345    1.5593775412
 H   -2.0835893413    1.0386611148   -1.5004564059
 H   -2.9242617023   -0.5209343627   -1.6792263000
 H   -0.9255317245   -2.3982960117    0.8969652632
 H   -2.9973099743   -3.6694255849    0.3357176599
 H   -3.7068655616   -2.1968574029   -0.5051005113