21

 O    0.0122689410    1.4608675083   -0.0037529437
 C    0.0662975427    0.0542744634    0.0174322033
 C    0.3448193219   -0.6742497887    1.3618897271
 C   -0.7918226747   -1.6712050493    0.9964856875
 C   -1.7223710713   -2.1513609731    2.1030773462
 C   -2.8860042320   -3.0111219016    1.5742268741
 C   -3.8544006941   -3.3826326562    2.6719700913
 O   -4.1587871248   -4.5063167051    2.9789235847
 C   -1.3167282499   -0.6237831927   -0.0293528920
 H    0.9127400735    1.8005250956    0.0116773766
 H    0.7203044659   -0.3315967687   -0.7780066547
 H    1.3460645607   -1.0721564715    1.5458260761
 H    0.0513210222   -0.0297263655    2.1970814054
 H   -0.3761308727   -2.5368133867    0.4678956116
 H   -1.1497038188   -2.7299226524    2.8395159358
 H   -2.1256711178   -1.2807493205    2.6380557922
 H   -3.4427972118   -2.4320362240    0.8229895102
 H   -2.5258084757   -3.9286155131    1.0993439032
 H   -4.2846589651   -2.5065049554    3.2142353723
 H   -2.0593700375    0.0389042190    0.4278268443
 H   -1.6895721715   -0.9680424319   -0.9962627318