17

 O   -0.0932312480    1.4809448945   -0.3073242871
 C    0.0505384217    0.1198155346    0.0749865741
 C   -1.3291855593   -0.5035890682    0.0397499726
 C   -1.9781161404   -0.8368603770   -1.3203741483
 C   -1.1227799161   -2.1556083737   -1.5079169108
 C   -1.4757839496   -2.0402018292    0.0298690832
 C   -2.8865856255   -1.9569574999   -0.6754494157
 C   -2.4087798052   -2.9432296963   -1.7333289473
 O   -2.8211348225   -3.8489754055   -2.3917710706
 H    0.7699074000    1.9020011319   -0.2588872525
 H    0.7320325715   -0.4162070524   -0.6041296333
 H    0.4661877434    0.0313302941    1.0923531888
 H   -1.9897404838    0.0209772799    0.7394748267
 H   -2.2842025365   -0.1699875178   -2.1250158839
 H   -0.1347639955   -2.2434972361   -1.9528212857
 H   -1.2033054331   -2.7725851309    0.7903497390
 H   -3.8459322812   -1.8077917680   -0.1842723291