20

 C    0.0202435471    1.6815711313   -0.0716138179
 C    0.0374987155    0.1558658289    0.0503620434
 C    0.5949890248   -0.5300295916   -1.2063225803
 C    0.6314586021   -2.0222673880   -1.1094743312
 O    0.6576840118   -2.8061343178   -2.3038644982
 C   -0.3576867268   -3.0815135039   -1.3361398232
 C    0.2651264864   -3.9383300107   -0.1765318978
 N    1.6864922418   -4.1914996781   -0.5127914918
 C    1.2755863038   -2.8838901663    0.0529257764
 H    1.0292799049    2.0770616195   -0.2318205160
 H   -0.5979325197    2.0038529599   -0.9167249769
 H   -0.3813101903    2.1485356774    0.8328318145
 H    0.6361264294   -0.1321565319    0.9236709100
 H   -0.9777745873   -0.2135393943    0.2408771583
 H   -0.0092463956   -0.2633413688   -2.0813226462
 H    1.6110769728   -0.1607126440   -1.4055585540
 H   -1.3921925741   -3.0578836317   -1.6583568105
 H   -0.2817730614   -4.5479811382    0.5300879666
 H    2.0719803968   -4.7292929712    0.2650130486
 H    1.6859754379   -2.5029054806    0.9787890362