22

 C   -2.7847034870    1.8536159611   -0.6148464527
 C   -2.0663049158    0.5187069651   -0.3988259288
 C   -2.6199111457   -0.6949352251   -1.1414462845
 C   -4.0428712831   -0.7710952708   -1.5741556927
 N   -2.9651672514   -0.6046605166   -2.5674825160
 C   -1.9610569834   -1.9758516743   -0.6907584599
 O   -2.2746277171   -3.1854598730   -1.3695448382
 C   -0.9121454489   -2.7311596346   -1.4034344537
 C   -0.3290201989   -2.3625490489   -2.7429357949
 H   -2.2512325833    2.6535680624   -0.0935845062
 H   -2.8299737355    2.1379257348   -1.6720594059
 H   -3.8071861091    1.8334568395   -0.2270839367
 H   -1.0094247322    0.6286029949   -0.6782097186
 H   -2.0651385075    0.2892888785    0.6746617861
 H   -4.5280841501   -1.7418450674   -1.6054830107
 H   -4.7006557138    0.0697100976   -1.3777399407
 H   -2.9237276227    0.3664096988   -2.8672119079
 H   -1.9725303638   -2.0717960785    0.3997055471
 H   -0.2527888994   -3.3330082061   -0.7722411942
 H   -1.0558408258   -1.8126995460   -3.3396123299
 H    0.5714555386   -1.7521706446   -2.6078942207
 H   -0.0345719842   -3.2690476770   -3.2830534101