15

 C   -0.0353819785    1.5603020740   -0.0340731062
 C    0.0119563504    0.0224148066   -0.0266468168
 C    0.7009281768   -0.4729769853   -1.2217651465
 N    1.2562011750   -0.8315651086   -2.1691931977
 C    0.7168569459   -0.5331388700    1.2636958122
 C    0.0640739701   -0.0555484128    2.4825081872
 C   -0.4787935553    0.3397124213    3.4770165124
 C    0.7544518655   -2.0046322682    1.2500938149
 N    0.7752213335   -3.1587864955    1.2370604393
 H    0.9742727339    1.9805087010   -0.0230890436
 H   -0.5420049602    1.9139702467   -0.9343684037
 H   -0.5774801999    1.9197590909    0.8421928799
 H   -1.0086807162   -0.3747618252   -0.0362493912
 H    1.7560859220   -0.1780516225    1.2481907041
 H   -0.9520660529    0.6813955976    4.3652685859