23

 C    0.0004344626    1.5676206586    0.0439413274
 C    0.0277002704    0.0374788512    0.0142077474
 C    0.6961618061   -0.4965419905   -1.2633684715
 C    0.9980250142   -1.9693623327   -1.1917243088
 C    0.9828273553   -2.6962398129   -0.0718269671
 C    1.2824413495   -4.1715819468   -0.0648013148
 C    0.6383466279   -2.0735071168    1.2730194978
 O    1.5165998825   -2.5156039510    2.3123602028
 C    0.7319458182   -0.5502310901    1.2418454019
 H    1.0175053455    1.9764171419    0.0704287714
 H   -0.4976765730    1.9732312990   -0.8434773877
 H   -0.5309773495    1.9393258731    0.9263021181
 H   -1.0115597705   -0.3233011252    0.0186061547
 H    0.0605371038   -0.2893209078   -2.1347308455
 H    1.6298051825    0.0584922017   -1.4491608679
 H    1.2484465256   -2.4583262400   -2.1322726223
 H    1.4639240174   -4.5471283322   -1.0749345874
 H    2.1679695896   -4.3921237271    0.5427101062
 H    0.4495576782   -4.7492733326    0.3614183238
 H   -0.3966542029   -2.3627436152    1.5314414662
 H    1.3147221949   -3.4356029009    2.5057573297
 H    1.7957343085   -0.2791997019    1.2270812372
 H    0.3131348230   -0.1446017619    2.1690794884