17

 C   -0.0316348676    1.5460666947    0.0492557324
 C    0.0075746696    0.0173454476   -0.0140405295
 C    0.7247592794   -0.5030477136   -1.2583399057
 N    0.7086417188   -1.9635033613   -1.3006987036
 C    1.4158345455   -2.4983055601   -2.4564446226
 C    1.4262832272   -3.9639489977   -2.4411976387
 N    1.4564693122   -5.1182848095   -2.4189248390
 H    0.9776569140    1.9719670869    0.0568994432
 H   -0.5620357874    1.9655173564   -0.8125705879
 H   -0.5436025600    1.8890985972    0.9528346471
 H    0.5116434199   -0.3738497916    0.8803715300
 H   -1.0084909544   -0.3921481328    0.0002063227
 H    0.2122020986   -0.1370296894   -2.1586544270
 H    1.7510953802   -0.0888915495   -1.2967391280
 H    1.1215584284   -2.3369887929   -0.4514280267
 H    0.9023527656   -2.1674797844   -3.3682913370
 H    2.4630873299   -2.1532820699   -2.5487536897