23

 C   -0.2164097380    1.5606796645    0.1271463420
 C    0.0384204168    0.0542987196    0.0037345549
 C    0.7326203829   -0.4252849426   -1.2972511008
 C    0.0434093534    0.1312110857   -2.5538758684
 C    2.2189080850    0.0135409037   -1.3034738249
 O    3.0057010269   -0.6474732037   -0.3326563201
 C    0.6424878196   -1.9877925171   -1.2817200847
 C    1.4855047522   -2.6779152747   -2.3264946522
 O    2.6867525602   -2.8110125611   -2.2373629704
 H    0.7054718175    2.1450172026    0.0469515820
 H   -0.9116558292    1.9252659440   -0.6351172267
 H   -0.6564558138    1.7853906020    1.1036803200
 H    0.6626461567   -0.2762259143    0.8418897118
 H   -0.9204996262   -0.4713622110    0.1028728928
 H    0.1616180228    1.2166972491   -2.6234354796
 H    0.4675995136   -0.2989070475   -3.4679489993
 H   -1.0303971129   -0.0860936751   -2.5487821367
 H    2.6372564195   -0.1268251428   -2.3099524954
 H    2.2752862920    1.0853970495   -1.0855642367
 H    3.2303583176   -1.5077475533   -0.7148896167
 H    0.9931229167   -2.3360661638   -0.3048698356
 H   -0.4046076628   -2.2853118381   -1.4013155284
 H    0.9553572196   -3.0775289657   -3.2175382469