19

 C   -0.5999049662    1.2281181340    0.1030953742
 N    0.8661886381    1.2068541956    0.0517640680
 C    0.1324069542   -0.0729592932    0.0088924402
 C    0.3526518292   -0.9444889623    1.2486244027
 N   -0.3479338891   -2.2270544610    1.2776798947
 C   -1.7342222990   -2.2964042005    0.8491984834
 C   -0.6391010349   -2.8524827764   -0.0193920244
 C   -0.2735243912   -2.1336221771   -1.2612962851
 C    0.0679335561   -0.8416648438   -1.2544180493
 H   -1.0215690268    1.5356285881    1.0577176981
 H   -1.1528677131    1.5694895629   -0.7687821822
 H    1.1897351211    1.4558273256   -0.8807989399
 H    1.4237080414   -1.1672056143    1.3100193705
 H    0.0889876875   -0.3856745569    2.1516336830
 H   -2.3661341967   -2.9697979287    1.4232493299
 H   -2.2267688848   -1.3951051143    0.4908065347
 H   -0.5006019840   -3.9313507924   -0.0365486134
 H   -0.2951314803   -2.6986721213   -2.1882265403
 H    0.3110574686   -0.3214134539   -2.1784485850