11

 O   -0.0641846400    1.3256838018    0.0098126509
 C    1.2459915590    1.7132593123   -0.0004709799
 N    2.1206739517    0.7604509574   -0.0140322322
 N    1.3250600053   -0.3607042778   -0.0127196554
 C    1.3921798182   -1.7412005793   -0.0209558652
 C    0.0662765615   -2.1181238876   -0.0104197615
 N   -0.8127116532   -1.0370058018    0.0038721846
 C    0.0102694988   -0.0335305657    0.0015768015
 H    1.4516827952    2.7702304586    0.0034289390
 H    2.3184806269   -2.2863067937   -0.0327866695
 H   -0.3167606935   -3.1269368242   -0.0123315421