16

 C   -0.1865668270    1.4078731087    0.1674727198
 N   -0.1378909821   -0.0404737755    0.1518717355
 C    0.6817434222   -0.6720140785    0.8833011332
 N    0.7423204079   -2.0717803284    0.8338709392
 C    1.2534385803   -2.6318346684    1.8639557940
 N    1.7730021209   -1.9346517663    2.9251499672
 C    2.3746525083   -2.5731011166    4.0836505342
 N    2.1107787764   -0.6055115151    2.7318172687
 N    1.6249187866   -0.0076482291    1.7493163353
 H    0.5757793274    1.8926630823    0.7854411077
 H   -0.0938520282    1.7673468150   -0.8639933813
 H   -1.1786338320    1.7218003269    0.5148765104
 H    1.3403419162   -3.7167543352    1.9236920692
 H    3.0355448406   -3.3928134116    3.7837629532
 H    2.9588903908   -1.8149085527    4.6053075191
 H    1.6030070118   -2.9607051854    4.7551142146