17

 C   -0.0609595916   -1.1942108836   -0.0547121537
 C    0.0086315359    0.0074492528   -0.0066607153
 C    0.0325059199    1.4215941281    0.0962684370
 N    0.2560535255    2.3271904028   -1.0779924908
 C    1.1642784642    2.4135090123    0.0794525806
 C    0.4659484978    3.2952886189    1.1263957485
 C   -0.6947253891    2.2748644717    1.1322194889
 C   -2.1485223880    2.3942581458    1.3341858726
 N   -1.2821270102    1.7586637791    2.3565463803
 H   -0.1046497914   -2.2542168341   -0.1029623134
 H    0.7216106807    1.7634911794   -1.7907320181
 H    2.2243949498    2.2186205270   -0.0223637768
 H    0.9770634802    3.3108955518    2.0911633547
 H    0.2377168257    4.3114372652    0.7976997157
 H   -2.5817345324    3.3438120735    1.6357616141
 H   -2.7988688531    1.7649979358    0.7319320774
 H   -1.3616765639    0.7442903332    2.3002793984