19

 C   -0.5815438002    1.0922952798   -0.1089457914
 C   -0.0139851174   -0.2785891043    0.2134591043
 C    1.2497041680   -0.7872560777   -0.5760355988
 C    1.7997915422   -1.3962970333    0.7602477768
 C    0.7967444070   -0.5086292159    1.4941603877
 C    1.0374436261    0.4140539522    2.6053336189
 O    0.2478290929   -0.7759071245    2.7666250490
 C    1.0446092710   -1.6649113370   -1.7073000584
 C    0.8548370629   -2.4042768450   -2.6369910951
 H    0.1942316347    1.8644731349   -0.0646690596
 H   -1.0165838019    1.1081539132   -1.1135320557
 H   -1.3711730436    1.3654204495    0.5993609282
 H   -0.7948897837   -1.0445040438    0.1531903604
 H    1.8619673913    0.0719340390   -0.8712917508
 H    1.5409312919   -2.4541070777    0.8517801367
 H    2.8627467143   -1.2622768209    0.9691659131
 H    2.0004160309    0.4069752593    3.1150241144
 H    0.4845198877    1.3501031514    2.6700434040
 H    0.6934186658   -3.0554601492   -3.4598767037