20

 C   -0.0780756659    1.4665049810    0.0221860102
 C    0.1195276997   -0.0181582495   -0.0306104890
 C    0.0351969652   -0.8816454917   -1.2838450879
 C   -0.2522727807   -2.0170854806   -0.2950820465
 C    1.0525065478   -2.2053819497    0.5048943788
 O    2.2842029014   -2.3764644374   -0.1592991075
 C    0.7681092643   -0.8258742227    1.0575444910
 C    1.3147091310   -0.2723597221    2.3380656294
 N   -0.7184337765   -0.9846816877    0.7781939093
 H    0.7938617693    1.9886557723   -0.3884517788
 H   -0.9541395173    1.7564656731   -0.5673805269
 H   -0.2349066681    1.8190472046    1.0446857681
 H   -0.8511098617   -0.6207473485   -1.8692478729
 H    0.9108264889   -0.9754285342   -1.9320700783
 H   -0.8984959619   -2.8568007996   -0.5449594663
 H    0.9119881089   -2.9518545132    1.2989631172
 H    2.4161637765   -3.3149853194   -0.3259090769
 H    2.3735566236   -0.0160577390    2.2220038062
 H    0.7796252733    0.6261949104    2.6542761881
 H    1.2310585320   -1.0103409061    3.1430035428