16

 O   -0.0874542659    1.4410597424    0.0585173359
 C    0.0660111360    0.0312847349    0.0129854773
 C    0.7289346644   -0.5094288526    1.2849053912
 O    0.8271314529   -1.9208725320    1.2337432466
 C   -0.4366219509   -2.5594968414    1.2442983089
 C   -1.3690769988   -2.0694200173    0.1333068323
 O   -2.1121217983   -2.8221613145   -0.4480826520
 C   -1.3329326979   -0.5710632637   -0.1323137395
 H    0.7832837050    1.8443549781   -0.0192030716
 H    0.6818473674   -0.2725255366   -0.8473385239
 H    1.7521686403   -0.1324387446    1.3824859961
 H    0.1543708556   -0.1761505487    2.1656880849
 H   -0.2670851187   -3.6303427366    1.1195089454
 H   -0.9490372931   -2.3985118740    2.2111215128
 H   -1.9711940643   -0.0953899915    0.6273812688
 H   -1.7759603438   -0.3624943619   -1.1083390733