20

 C   -0.0409755222    1.5748600463   -0.0407294520
 C   -0.0144304206    0.0464542323    0.0406676039
 C   -1.4134212569   -0.5771659321    0.0001872465
 C   -1.3788400431   -2.1013865344    0.0900527906
 N   -2.7259581024   -2.6504472417    0.0516524522
 C   -2.9450111566   -3.9922611913   -0.0195774648
 N   -1.9957780662   -4.8434150271   -0.1525562369
 C   -4.3519281909   -4.3653175795    0.0467031085
 N   -5.4570488550   -4.7009655057    0.1041409699
 H    0.9703984842    1.9909421048   -0.0106269937
 H   -0.5135191105    1.9143018041   -0.9689772343
 H   -0.6037564627    2.0066759127    0.7941967632
 H    0.5835216110   -0.3558472515   -0.7869660464
 H    0.4937950626   -0.2642803946    0.9624947932
 H   -2.0129699508   -0.1767110598    0.8305648095
 H   -1.9250423403   -0.2815765310   -0.9249601862
 H   -0.8150942616   -2.5300436563   -0.7452001937
 H   -0.8629295132   -2.4241712768    1.0058783931
 H   -3.4915543393   -2.0614563072    0.3347357879
 H   -2.3605938156   -5.7890606212   -0.2300387106