14

 C   -0.2060470546    1.4445300738   -0.0277962149
 C    0.3009966184    0.0306603350   -0.0548091909
 O    1.2449389767   -0.4212576465    0.5170362932
 O   -0.5203267627   -0.7362461550   -0.8804842211
 C   -0.2229529636   -2.0481170362   -1.0038360807
 C    0.2816208812   -2.7967979078   -2.0088586453
 N    0.2796513660   -4.1284989607   -1.6057967569
 C   -0.2124237483   -4.1022435199   -0.4125964508
 O   -0.5535592721   -2.8659832606    0.0332671554
 H    0.4550665322    2.0544591177    0.5857889657
 H   -0.2561511318    1.8435575162   -1.0445159809
 H   -1.2209152309    1.4644795438    0.3796946670
 H    0.6399322072   -2.4816746474   -2.9743302383
 H   -0.3845313378   -4.9228172223    0.2652705885