19

 C    0.0171624695    1.5737643572    0.1153781091
 C    1.5365080838    1.8033158472    0.0408086124
 O    2.0296651706    0.8062785383    0.9855780976
 C    1.5879403431   -0.1421126965   -0.0249360405
 C    2.0025427458    0.8580563853   -1.1235397901
 C    1.2913419702    0.7679246746   -2.4363331524
 C    0.1259418472    0.1258460473   -2.5456847600
 C   -0.5778041530   -0.4726240837   -1.3522677131
 C    0.0431117661    0.0141949620   -0.0337967817
 H   -0.3761293024    1.9016267942    1.0795935691
 H   -0.5352326606    2.0711808546   -0.6858978230
 H    1.9386996058    2.8044622726    0.1974930168
 H    2.0164851944   -1.1400446603    0.0707893132
 H    3.0884411192    0.9088073356   -1.2188340797
 H    1.7618279229    1.2105833235   -3.3100715659
 H   -0.3595791427    0.0303380478   -3.5137289209
 H   -1.6413676678   -0.1997953767   -1.3791725307
 H   -0.5592164701   -1.5710422926   -1.4134890555
 H   -0.4132872718   -0.4886490106    0.8216008155