20

 C    0.1476350070    1.6083984469   -0.0248521295
 C    0.1410981358    0.0772367170   -0.0403142552
 C    0.6702456712   -0.5617238491    1.2534191290
 C   -0.2098860227   -0.2680946681    2.4861587532
 C    0.7955424889   -2.0684683692    1.0862316454
 O    0.2410173115   -2.7369359813    0.2496999157
 O    1.6118790137   -2.5913379910    2.0284632352
 C    1.7638964480   -4.0147801813    1.9864997083
 H    1.1518120925    2.0014599562    0.1721320625
 H   -0.1776815932    2.0040780788   -0.9917521727
 H   -0.5238155280    2.0167900462    0.7367228176
 H   -0.8711802726   -0.2964218814   -0.2300281474
 H    0.7491176249   -0.2802285081   -0.8785668085
 H    1.6781799120   -0.1826261620    1.4645014323
 H   -0.2541555792    0.8056003083    2.6844803423
 H   -1.2325083597   -0.6259881936    2.3247132341
 H    0.1906504493   -0.7602578016    3.3756808571
 H    0.8002913157   -4.5117438689    2.1260479513
 H    2.1827151308   -4.3303609927    1.0274686953
 H    2.4438762241   -4.2659746051    2.8008119641