21

 C   -0.0301367160    1.5096024148   -0.0939909515
 C    0.0153651994   -0.0096584410   -0.0496849614
 C    0.6932164253   -0.6194765390   -1.2859738308
 C    0.8727324962   -2.1385542904   -1.1465273157
 C    1.4774683619   -2.5009281804    0.2279709506
 C    0.7369625477   -1.7695270444    1.3510908053
 O    0.7183868404   -0.3722836120    1.1395784195
 C   -0.4065083494   -2.9167972314   -1.3981594722
 O   -1.4568091103   -2.4464507811   -1.7543113220
 H    0.9828379468    1.9209952661   -0.1491938318
 H   -0.5933804949    1.8512566277   -0.9673700487
 H   -0.5100452888    1.9017309648    0.8065282599
 H   -1.0112512470   -0.4048316282    0.0141721389
 H    0.0964840576   -0.3962777925   -2.1753005954
 H    1.6766514600   -0.1513740025   -1.4113556175
 H    1.5628920442   -2.5056366426   -1.9228179378
 H    1.4426611556   -3.5845709120    0.3972558792
 H    2.5311563885   -2.2032795424    0.2436613836
 H   -0.2948494537   -2.1544076400    1.4375166533
 H    1.2334662850   -1.9325934137    2.3123292933
 H   -0.2996714585   -4.0172847898   -1.2435426685