18

 C   -0.1025111365    1.4976628596   -0.2030551416
 C   -0.1035638931    0.0583169114    0.3260242010
 C   -1.4367550087   -0.6267919019    0.1182012186
 C   -1.7816747473   -1.2847312834   -1.1825355315
 C   -1.5163194130   -2.1486298294    0.0426929082
 O   -0.3161163070   -2.8567257081    0.1510810708
 C   -2.6860685638   -2.7881655369    0.7046260394
 O   -3.8082589845   -2.3406945749    0.6968388388
 H    0.8681096394    1.9747975498   -0.0366711026
 H   -0.3124285403    1.5239778922   -1.2774046028
 H   -0.8636883152    2.1057865914    0.2974551356
 H    0.6825702410   -0.5261931110   -0.1613542238
 H    0.1368331602    0.0593412397    1.3962480193
 H   -2.2798368837   -0.1859929154    0.6445233968
 H   -2.8064352814   -1.2467766086   -1.5349211409
 H   -1.0127753366   -1.3160044042   -1.9484199499
 H   -0.2808498299   -3.5083685252   -0.5568353019
 H   -2.4295469696   -3.7356640251    1.2297972566