19

 C    0.1200013705    1.4876082724    0.0559404854
 C    1.3193173856    0.6425857219   -0.0382181953
 C    1.6711412267   -0.0187026762    1.3042276121
 C    0.2499795722   -0.6195953230    1.2929431397
 C   -0.0037454295    0.1546836912    2.5980414567
 C    0.3952464287   -0.6008837549    3.8862345641
 C    1.7788889727    0.0895176939    3.7710858311
 N    1.3860274358    0.8124240882    2.5178113512
 N   -0.0788552202    0.0243123973   -0.0441164368
 H   -0.0903223630    2.0235604520    0.9745786949
 H   -0.2005415925    1.9959006846   -0.8483518559
 H    1.9514464473    0.6115428680   -0.9204749921
 H    2.5964021511   -0.5963133138    1.3317959673
 H    0.0099901349   -1.6834925898    1.2688617812
 H   -0.8809012440    0.8048449635    2.6548267934
 H   -0.1842686588   -0.3265085781    4.7698659813
 H    0.3970108019   -1.6909783793    3.7992481814
 H    2.0009302182    0.7942298073    4.5775385242
 H    2.6421292121   -0.5740813452    3.6500638260