20

 C   -0.1245811918    1.4654512249    0.1929044527
 N   -0.0714368564    0.0259335348    0.1209211473
 C   -1.3495617946   -0.6110530510   -0.1697517107
 C   -1.2685533752   -2.1004840268    0.1566121329
 O    0.0771842962   -2.5931488715   -0.0872762890
 C    0.4418482939   -2.0894231289    1.2285867561
 C    0.7643247506   -0.5988541004    1.1405268640
 C   -1.0146556839   -2.3033374451    1.6722494518
 O   -1.5163994416   -1.3950556673    2.6159252568
 H    0.8918127440    1.8739309168    0.2301025235
 H   -0.6129667485    1.8651797064   -0.7033146867
 H   -0.6739602995    1.8468909947    1.0757272737
 H   -2.1871387203   -0.1875762456    0.4167289147
 H   -1.5872388406   -0.4608765608   -1.2317200245
 H   -2.0329411253   -2.6924927389   -0.3536223775
 H    1.2391354271   -2.6691744813    1.6994014195
 H    1.8191997845   -0.4550281800    0.8692664795
 H    0.6204579821   -0.1639041205    2.1459181261
 H   -1.1858515518   -3.3462258872    1.9614559720
 H   -2.3961282588   -1.6774993923    2.8828802078