17

 C    0.2307807828    1.1152390691    0.3524434391
 O   -0.1620021011   -0.1445576727   -0.1941137396
 C    0.6159097076   -0.5680175902   -1.2730960538
 C    0.4256806697    0.1079919010   -2.5236360508
 C    0.2956816210    0.6788973509   -3.5753020086
 C    2.0030307662   -1.1803245248   -0.9530239272
 O    2.4582662193   -1.1558967623    0.3533545513
 C    0.8312215384   -2.0799972751   -1.2461167355
 O    0.3214755251   -2.7510614810   -0.1327819256
 H    1.2587860738    1.0711717497    0.7238502555
 H    0.1383170114    1.9070804861   -0.4002294427
 H   -0.4555577743    1.3202085078    1.1765110169
 H    0.1714762817    1.1802180369   -4.5032520643
 H    2.7806429045   -1.0430325598   -1.6980240486
 H    1.9789340289   -1.8660083530    0.8090533408
 H    0.7665101422   -2.6393651741   -2.1736863960
 H   -0.3175329972   -2.1487710385    0.2776292290