18

 C    0.0078906374    1.6896496562    0.3879413979
 C   -0.0580825880    0.2124275368    0.0111978505
 C   -1.4458958933   -0.1205851053   -0.5439032475
 O   -1.6027553279   -1.4361149925   -1.0412930735
 C    1.1915885843   -0.3765423999   -0.7324518332
 N    1.9440049642   -0.2095372928    0.5917942804
 C    0.5963485257   -0.7905125473    1.0218248474
 C    0.8347164680   -1.7676042679   -0.1628594244
 O    1.0022878525   -2.9302106318   -0.3698236185
 H    0.9840592220    1.9509917683    0.7949221904
 H   -0.1844319253    2.3173542973   -0.4892035180
 H   -0.7570626609    1.9290043249    1.1352291607
 H   -2.2000132045    0.1130300698    0.2233658393
 H   -1.6461001717    0.5428228778   -1.3932440091
 H   -1.7150913343   -2.0472368331   -0.3069737667
 H    1.6306086018   -0.0782181563   -1.6830363271
 H    2.6840477506   -0.9117896707    0.6773374302
 H    0.3610716194   -0.9644048035    2.0717126414