16

 O   -0.3653789883    1.4363627416   -0.3557831149
 C    0.0553595243    0.1157092607   -0.0222811368
 C   -1.2082101035   -0.7735068184    0.1789036417
 C   -1.4402946544   -1.6120093056   -1.1273825704
 C   -0.1026161043   -1.5048579586   -1.7991713093
 C    0.6855594046   -0.5973199824   -1.1798320514
 O    1.8636999384   -0.4538634561   -1.7885770346
 N    1.8725368532   -1.3278023829   -2.8929820739
 C    0.7036913412   -1.9346995342   -2.8840147112
 H    0.4161100449    1.9522598031   -0.5817533769
 H    0.6864773184    0.1339580064    0.8762891576
 H   -1.0327490200   -1.4515537146    1.0182074449
 H   -2.0599058558   -0.1397449942    0.4334886078
 H   -1.7362826861   -2.6385853492   -0.8915968844
 H   -2.2379774475   -1.1847710653   -1.7452851068
 H    0.5036442349   -2.6589279703   -3.6616063013