21

 C    0.1865431777    1.6914292450    0.2667970944
 C    0.5212258389    0.2458992875   -0.0933395898
 N    0.7693620499   -0.5230639737    1.1266464968
 C   -0.3868915117   -1.1537621474    1.7508173327
 C    0.6433566292   -1.9992891272    1.0886152076
 C    0.3703805207   -2.7519888817   -0.1699322906
 C    1.5220242733   -3.4299687455   -0.8647727823
 N   -0.8327860487   -2.7741805416   -0.6089955613
 O   -0.9267719226   -3.4724290973   -1.8224190103
 H    0.9898036486    2.1386070549    0.8591303156
 H    0.0442824885    2.2900628125   -0.6382697522
 H   -0.7357978069    1.7436685817    0.8546034744
 H   -0.2849261975   -0.1842069974   -0.7062457831
 H    1.4382234798    0.2154808729   -0.6948989321
 H   -0.4289544491   -1.1098507212    2.8361603424
 H   -1.3469698912   -1.0786610687    1.2454016706
 H    1.3933183935   -2.4828555155    1.7126264412
 H    1.2552081955   -4.4545986071   -1.1379734134
 H    1.7626835096   -2.9102526613   -1.7992228519
 H    2.4132348126   -3.4380168265   -0.2347128542
 H   -1.8730016199   -3.4438475524   -1.9992503546