21

 C   -0.0643300517    1.5447217965   -0.1187943148
 C   -0.0138545063    0.0226175025   -0.0085657148
 C   -1.3980942790   -0.5952324462   -0.2129595099
 C    1.0473649112   -0.6617988452   -0.8984272290
 O    2.3420095310   -0.1785745166   -0.5100068816
 C    1.7501499957   -1.2395761018    0.2497580144
 C    0.7632998598   -0.5921891123    1.2528933339
 C    1.3742392145    0.3596611749    2.2689157965
 O   -0.0614795186   -1.5587261016    1.8822971719
 H    0.9366156651    1.9807890197   -0.0967765080
 H   -0.5402773496    1.8414669605   -1.0602885199
 H   -0.6514226019    1.9814127915    0.6965717868
 H   -1.8022147369   -0.2776667735   -1.1807927971
 H   -1.3661169651   -1.6860419273   -0.1907061569
 H   -2.0915795686   -0.2693397424    0.5673566664
 H    0.9396592781   -1.0236536579   -1.9157506912
 H    2.3087479743   -2.1644541527    0.3541338594
 H    2.0702915532    1.0505680146    1.7902902096
 H    0.5972275522    0.9331584201    2.7835532144
 H    1.9340013087   -0.2057141753    3.0259004104
 H    0.4267201639   -1.9142375775    2.6325842896