17

 C   -0.1126140560    1.5702660621    0.0429722646
 C   -0.0330884457    0.0616500718    0.2040992406
 O   -1.3172305214   -0.4803524607   -0.0515625319
 C   -1.3803463322   -1.8904425726   -0.0912664530
 C   -1.3142253981   -2.5697823275    1.2770665851
 C   -2.6742873190   -2.2241332851   -0.8295274890
 O   -3.2352282263   -3.2860464258   -0.7694323796
 H    0.8639290832    2.0248817132    0.2341616348
 H   -0.4276355050    1.8325895813   -0.9708558289
 H   -0.8354243389    1.9928451798    0.7465104645
 H    0.6992305909   -0.3670707726   -0.5006335742
 H    0.3042441058   -0.1961321824    1.2193335953
 H   -0.5643900584   -2.2813548465   -0.7304811741
 H   -1.5552834542   -3.6291780996    1.1615685818
 H   -0.3209743187   -2.4814162309    1.7236566023
 H   -2.0456113105   -2.1187948084    1.9539964055
 H   -3.0488518256   -1.3836403662   -1.4538231938