23

 C   -0.3403616418    1.5372696456   -0.0095828040
 C    0.0160456878    0.0523297940   -0.0026457156
 C    0.8044931196   -0.4589363095   -1.2506424648
 C    1.9498017099   -1.2537059533   -0.5823701499
 O    1.3444146202   -1.7356505688    0.6294258072
 C    0.9430022494   -0.4517730117    1.1328297155
 C    2.2805030932    0.3181530609    1.1796686603
 C    3.0352591370   -0.2843199842   -0.0499931485
 C    4.3217923440   -1.0116002217    0.3430742326
 H    0.5370213576    2.1715633600   -0.1730004162
 H   -1.0536890525    1.7588182117   -0.8101621597
 H   -0.8031129703    1.8426062341    0.9357791105
 H   -0.9116031627   -0.5233100538    0.0827511742
 H    0.1876805962   -1.1032359784   -1.8814735469
 H    1.1790517253    0.3599083151   -1.8729426702
 H    2.3331322803   -2.0980950051   -1.1574111648
 H    0.4480667851   -0.5763453800    2.0972327149
 H    2.1608229409    1.4023283929    1.1249140426
 H    2.8119497231    0.0914413618    2.1081291130
 H    3.2631844386    0.4867763780   -0.7932762968
 H    4.0948447123   -1.8323735527    1.0311061377
 H    4.8294511499   -1.4307954384   -0.5327205966
 H    5.0221362171   -0.3344072767    0.8436234054