18

 C   -0.0572667989    1.4643831292    0.0129302611
 C    1.2765727877    0.7209179549    0.0236405785
 C   -0.0124562255   -0.0248744087   -0.0793480917
 O   -0.4561170407   -0.8047520224    1.0374509677
 C   -1.0721999377   -1.9197304713    0.3653443406
 C   -0.0435324512   -2.2871084779   -0.7346943421
 C   -0.4766230949   -0.8744727403   -1.2485140287
 C   -1.9120924831   -1.2455894212   -0.7496997872
 H   -0.3941412691    1.8902965341    0.9515494634
 H   -0.3243904874    2.0363905804   -0.8700701708
 H    1.9143443405    0.7885490885   -0.8520939663
 H    1.8044537862    0.6648287045    0.9692029983
 H   -1.4670487682   -2.6175126789    1.1014098236
 H    0.9932828739   -2.4278516680   -0.4220422503
 H   -0.3753976567   -3.0965205986   -1.3871079479
 H   -0.2662286458   -0.5114859118   -2.2533417442
 H   -2.4179861765   -1.9579983232   -1.4035127929
 H   -2.5808296127   -0.4356749395   -0.4507436010