21

 C   -0.1310207722    1.3820347705   -0.0431574117
 O   -0.1058608447   -0.0303931364   -0.0645980358
 C    0.6498614651   -0.5610936670   -1.1051732340
 C    2.2053685982   -0.4889828105   -0.9650514129
 C    2.2856497908   -2.0486605982   -0.9754395151
 C    0.7711706229   -2.1172716094   -1.2798643048
 O   -0.0330595253   -2.9740092877   -0.5264134102
 C    0.4067068834   -1.9404837217   -2.7870045839
 C    0.1282992138   -0.4211459182   -2.5569300974
 H    0.8744018352    1.8104611760    0.0837758117
 H   -0.5699682157    1.7986970649   -0.9616795891
 H   -0.7487920150    1.6786570889    0.8075263360
 H    2.7244707386    0.0138269540   -1.7851053511
 H    2.5226773367   -0.0432490872   -0.0203127507
 H    2.9600522948   -2.5071724379   -1.7044641429
 H    2.5006935933   -2.4531779361    0.0166201108
 H    0.1368411505   -3.8771922993   -0.8173735869
 H    1.2133905114   -2.1689681581   -3.4888937518
 H   -0.4814792516   -2.5100151264   -3.0684501533
 H   -0.9413760756   -0.1974649562   -2.5714724896
 H    0.6503779454    0.2825206758   -3.2105880274