18

 C    0.0196501621    1.5233812303   -0.0378387030
 C   -0.0582751980    0.0255163692   -0.0054784604
 C   -1.2167674067   -0.6885206796   -0.0734397549
 C   -1.1763046531   -2.1185157890   -0.0340404477
 C   -2.4731838836   -2.8808672514   -0.1110794689
 C    0.0235842630   -2.7609980333    0.0715004237
 C    1.2820406983   -2.0493024101    0.1469530804
 O    2.4002155150   -2.5308963441    0.2423215839
 N    1.1248675691   -0.6481482435    0.0996135316
 H    0.6193564237    1.8686109748   -0.8881814996
 H   -0.9769691324    1.9590395527   -0.1230207734
 H    0.4884215440    1.9134878260    0.8731966076
 H   -2.1624276781   -0.1680043670   -0.1569872434
 H   -3.0070772403   -2.6477881308   -1.0395853117
 H   -2.3085821904   -3.9596644605   -0.0713947704
 H   -3.1375665664   -2.6031404745    0.7153299738
 H    0.0889426792   -3.8421102299    0.1038525517
 H    1.9962076148   -0.1375679293    0.1514031906