20

 C   -0.2988066657    1.5834015680   -0.0548219274
 C    0.1886729503    0.1472969645   -0.0644224076
 O    1.4063085247    0.0568765388   -0.8078488834
 C    1.9601931194   -1.1605822242   -0.4047301525
 O    1.7519613665   -1.2560030405    0.9926561476
 C    0.5822452198   -0.4929324503    1.3064296373
 C    0.8914914684    0.4943603743    2.4141602213
 C    1.9844957061    0.2375149967    3.3797278250
 N    2.1147968639    1.3054307517    2.3683604862
 H    0.4312030445    2.2420355629    0.4205239658
 H   -0.4663747787    1.9226734708   -1.0804026314
 H   -1.2469713718    1.6602237634    0.4863887475
 H   -0.5651681778   -0.4994013168   -0.5428584345
 H    1.4687717332   -2.0084454905   -0.9164947829
 H    3.0334606874   -1.1626036081   -0.6144422809
 H   -0.2155437742   -1.1684059312    1.6454345462
 H    0.0150096467    1.0388959759    2.7610101666
 H    1.8922199906    0.5862000677    4.4041936359
 H    2.5678202751   -0.6669517925    3.2430211785
 H    2.6956024315    0.9568710996    1.6079169327