20

 C    0.1498841237    1.3084433687    0.5358504243
 C   -0.0671798536   -0.1060858192   -0.0329678105
 C   -1.5424760006   -0.5392354331    0.0255346949
 O   -1.9127336603   -0.5718980724    1.3881737924
 C   -3.2425197408   -0.9464259578    1.5899103703
 C   -3.8923767036   -0.4407395512    2.8343812855
 C   -4.3251570518    0.0968766851    1.4836510387
 C    0.4169366488   -0.2038848846   -1.4123230368
 N    0.7874301257   -0.2734218865   -2.5048466976
 H    1.2105108510    1.5697813100    0.5380524923
 H   -0.3848958264    2.0515405492   -0.0629993989
 H   -0.2291209252    1.3428875787    1.5583936308
 H    0.5038638094   -0.8232586215    0.5694816888
 H   -2.1682780814    0.1697891539   -0.5369040204
 H   -1.6622421785   -1.5308386687   -0.4360223675
 H   -3.4725252245   -1.9586790725    1.2558738892
 H   -4.5572756571   -1.1037078556    3.3758464264
 H   -3.2953100630    0.2150340671    3.4575129311
 H   -4.0127639514    1.1050738067    1.2351875405
 H   -5.2919415304   -0.1921771565    1.0869751666