18

 N   -0.0485704149    1.4067492421    0.0034097642
 C   -0.0282617030    0.0010625268    0.0016673728
 C   -1.1000901068   -0.8725718111   -0.0300918283
 N   -0.5848222593   -2.1322944674    0.0904767873
 C   -1.2949974690   -3.3909124557    0.0141820084
 C   -1.2303559445   -4.0146011445   -1.3885303630
 O   -1.9427037262   -5.2367333387   -1.4457400774
 N    0.7526210667   -2.1287605173    0.1840395039
 C    1.0982305405   -0.8417068107    0.1373442946
 H    0.8041148554    1.8002732380   -0.3735246717
 H   -0.8342577476    1.7877364238   -0.5078839872
 H   -2.1617105936   -0.7010716073   -0.1105088017
 H   -0.8472976265   -4.0721762497    0.7448148941
 H   -2.3377484331   -3.2244328561    0.2971453824
 H   -1.7077688606   -3.3438644320   -2.1102788204
 H   -0.1783514344   -4.1269210912   -1.6832032123
 H   -1.4354426500   -5.8998033593   -0.9668584411
 H    2.1381259869   -0.5574915697    0.2136163652