20

 C    1.0638410900    0.2469955346    0.0635618283
 C   -0.4205449405    0.4600082585   -0.2364104572
 N   -1.1349113077   -0.8119097113   -0.1694776282
 C   -1.9186533791   -1.1322212226   -1.0955445628
 O   -2.2264094993   -0.3968709029   -2.2352429221
 C   -3.1656526139   -1.2859418198   -2.9061058640
 C   -4.0929710425   -1.7239812536   -1.7497637234
 C   -2.7500234854   -2.3791600746   -1.2650629463
 C   -2.4704246248   -2.6606993862   -2.7853151252
 H    1.5959612022    1.2035762497    0.0829307930
 H    1.1928127056   -0.2448098267    1.0319982612
 H    1.5275939052   -0.3863720302   -0.6993433473
 H   -0.8491634075    1.1211883196    0.5286216500
 H   -0.5450674553    0.9633213920   -1.2036407086
 H   -3.4947743751   -0.8280097365   -3.8361087517
 H   -4.5357224603   -0.9370033421   -1.1360407238
 H   -4.8385209216   -2.4631327251   -2.0470201163
 H   -2.6838642868   -3.1296622693   -0.4831714049
 H   -3.0679041582   -3.4854440888   -3.1768629037
 H   -1.4322788552   -2.7292967647   -3.1164499369