18

 C   -0.0715324464    1.4537283769   -0.3080529265
 C   -0.0182532874    0.0306347871   -0.0052037292
 C    0.0324218660   -1.1469235112    0.2387851566
 C    0.0599962271   -2.5760620846    0.5375474640
 C   -1.3056466930   -3.2262803214    0.3770638281
 O   -1.6901438614   -3.6370212886   -0.9351076106
 C   -1.5133811753   -4.6498835730    0.0640468995
 C   -0.4183510098   -5.6637332940   -0.1527653183
 H    0.6633960834    1.7255177122   -1.0738746539
 H   -1.0598685155    1.7424308964   -0.6825970249
 H    0.1360178657    2.0606808349    0.5802705267
 H    0.7825956428   -3.0798331933   -0.1122002457
 H    0.4008136255   -2.7325119164    1.5708417092
 H   -2.0961257119   -2.7135791590    0.9282000647
 H   -2.4556012136   -5.0832604974    0.4080801807
 H    0.5164175237   -5.1993619712   -0.4723165958
 H   -0.2324861836   -6.2258519386    0.7690471452
 H   -0.7189290264   -6.3799146688   -0.9246326499