16

 N   -0.3675012311    1.4550275874   -0.0608603964
 C   -0.1500955353    0.0330619545   -0.0592643475
 C   -1.2948151931   -0.7770280808   -0.0839736375
 O   -2.5093531880   -0.1889422473   -0.1073113196
 C   -1.1834406017   -2.1689435750   -0.0844697915
 C    0.0826609047   -2.7402947493   -0.0600043985
 C    1.2346139441   -1.9556407705   -0.0351473122
 C    1.1112288503   -0.5659170454   -0.0349230569
 O    2.1868909045    0.2767315178   -0.0115145469
 H    0.0875728475    1.8858405850   -0.8613918124
 H    0.0556038749    1.8827560768    0.7586306251
 H   -2.3166571689    0.7675382248   -0.1014035470
 H   -2.0819717623   -2.7730898165   -0.1038036029
 H    0.1795749546   -3.8210382011   -0.0601608537
 H    2.2187983414   -2.4147413581   -0.0161585001
 H    2.9917871485   -0.2511711621    0.0037967480