20

 C   -0.0072081609    1.5902535498    0.0071702533
 C   -0.0009373144    0.0629065943   -0.0504236673
 O    0.8606725131   -0.4884321497    0.9449300184
 C   -1.4136197786   -0.5307314288    0.0419810357
 C   -1.4321819037   -2.0566167046   -0.0884031946
 C   -2.8367027553   -2.6576680696    0.0881316226
 C   -2.8116186929   -4.1679765798    0.0465329198
 O   -3.4675920610   -4.8533377810   -0.6946975877
 H    1.0144818055    1.9762482429   -0.0413357915
 H   -0.5809794328    2.0173113867   -0.8215772860
 H   -0.4626293533    1.9419290719    0.9419531797
 H    0.4504462892   -0.2552959240   -0.9991076584
 H    0.5689295842   -0.1517517980    1.7998103072
 H   -1.8570646807   -0.2357024955    1.0053785946
 H   -2.0439415268   -0.0794117250   -0.7351150949
 H   -1.0375548606   -2.3418184031   -1.0721779722
 H   -0.7456365023   -2.4806831794    0.6528624952
 H   -3.2314087164   -2.3635795549    1.0725001708
 H   -3.5341837422   -2.2988631573   -0.6749185109
 H   -2.1066776303   -4.6306312749    0.7782230662