17

 C   -0.2540229694    1.3811059072   -0.1284119413
 O    1.0786817157    1.0764004530    0.2490424395
 C    0.1622196499   -0.0111734260    0.1336882769
 C   -0.2372975124   -0.6998352813    1.3884744354
 N   -0.2970220880   -0.1471711497    2.5338840418
 C   -0.7199924397   -1.1729893406    3.4995517191
 C   -1.0030833030   -2.4183449953    2.6593503950
 C   -2.0054343231   -2.3149204094    1.5754658961
 N   -0.5606760011   -2.0972549065    1.2787664485
 H   -0.8454353918    1.8904658622    0.6296995594
 H   -0.3942964130    1.7099884476   -1.1575687441
 H    0.3398406418   -0.6779918802   -0.7070125634
 H    0.0881658605   -1.3524638428    4.2184728648
 H   -1.5842136733   -0.8168539442    4.0716902287
 H   -0.7190896246   -3.3962826605    3.0329225625
 H   -2.4234111099   -3.2138395270    1.1337516519
 H   -2.6514447485   -1.4409142765    1.5516370294