20

 C   -0.3696072893    1.5146568162   -0.0629829585
 C    0.0037128396    0.0367438271    0.0231135036
 C    0.7349717214   -0.5141058276   -1.2237377198
 C    1.4132460981   -1.7977323796   -0.7357350249
 O    2.8800940835   -1.7989080748   -0.8599062700
 C    3.0344552763   -1.7400277831    0.5118618838
 N    4.0738706554   -1.7276404608    1.2133170270
 C    1.5484364824   -1.6882179751    0.8049129677
 C    0.9518822861   -0.3175345926    1.1937219351
 H    0.5246309840    2.1353293063   -0.1921019314
 H   -1.0367931174    1.7090148917   -0.9092115698
 H   -0.8800772853    1.8490416749    0.8461563681
 H   -0.9182722431   -0.5482530866    0.1527586304
 H    0.0614483830   -0.6792281761   -2.0690484980
 H    1.5105733993    0.1880917181   -1.5507247740
 H    1.0108556157   -2.7219466629   -1.1540853631
 H    4.9132618586   -1.7660750569    0.6319760353
 H    1.1734464047   -2.5191473724    1.4027106680
 H    1.7456079010    0.4335856398    1.2751221119
 H    0.4353547260   -0.3428022256    2.1563087288