20

 C    0.0220664349    1.5610736978    0.0218851404
 C    0.0396524110    0.0304376830    0.0087887023
 O   -1.3010860610   -0.4694132525   -0.0304908198
 C    0.7114360194   -0.6036507535   -1.2165491653
 C    2.1723800633   -0.3613918504   -1.4973780579
 C    1.7450979213   -1.5807767122   -0.7160532488
 N    1.7503103541   -1.6101728915    0.7499442061
 C    2.2222956205   -0.4061111331    1.4480550746
 C    0.7714849370   -0.6081236405    1.2080499815
 H    1.0308585394    1.9796072770   -0.0170277073
 H   -0.5439078246    1.9359893324   -0.8356750500
 H   -0.4541636962    1.9339702251    0.9370003481
 H   -1.7876086218   -0.0659442629    0.6963329372
 H    0.0418172849   -0.8306153150   -2.0375525193
 H    2.5016983441   -0.5356544396   -2.5166069121
 H    2.6972485184    0.4543503427   -1.0160298655
 H    1.8797667200   -2.5589886327   -1.1622488574
 H    2.6295510510   -0.5949211020    2.4382299952
 H    2.7540362091    0.3631229547    0.8991814415
 H    0.1268703350   -0.9015059167    2.0349847165