9

 O   -0.0295105717   -0.0446375720   -0.0004290012
 C   -0.0094375342    1.1590303942    0.0084713814
 C    1.2199170747    1.9722947055    0.0021296206
 C    1.4001810601    3.3239946064    0.0104802097
 N    2.7548500995    3.5453197321   -0.0014273954
 N    3.3735526912    2.4459467754   -0.0165609222
 O    2.4243361682    1.3956450772   -0.0143481935
 H   -0.9332196372    1.7723800591    0.0226095574
 H    0.6855633193    4.1295611821    0.0238689431