17

 C    0.0397598462    1.4968298111   -0.1112254014
 O    1.4838746274    1.4611520988    0.1324600598
 C    1.2742596124    0.2260793526    0.8675395861
 C    1.7550265282   -1.2095970626    0.6633628423
 O    0.6207425919   -1.8645351593    1.2813075066
 C   -0.6078199480   -1.1207867421    0.9320972044
 C    0.0042773304   -0.0367940101    0.0630913906
 C    0.5951820402   -0.7405196345   -1.1915869496
 O    1.7638548060   -1.4375604701   -0.7111187175
 H   -0.4784342864    2.0574619173    0.6762822444
 H   -0.2001658527    1.9105608743   -1.0938966144
 H    1.1255451489    0.4404385154    1.9314124772
 H    2.6604946446   -1.6024950290    1.1203821888
 H   -1.2892966619   -1.8100092093    0.4241546509
 H   -1.0763104024   -0.7484978541    1.8491548903
 H   -0.1133277880   -1.4630825764   -1.6127560801
 H    0.8992867332   -0.0379653421   -1.9713711285