19

 C   -0.0067196054    1.5378290955    0.0032777258
 C    0.0131035458    0.0132550654   -0.0055757432
 C    0.7070968671   -0.5455044366   -1.2536694478
 O    0.7763463534   -1.9681233916   -1.2231882328
 C    1.4749860380   -2.4367561143   -0.0833811096
 C    0.7945961877   -1.9402001696    1.2149998144
 N    0.6394899380   -0.4923177839    1.2245685567
 C    1.5181026992   -3.9018410746   -0.1427176613
 N    1.5606510223   -5.0559031283   -0.1257844664
 H    1.0116284575    1.9449335197   -0.0187237769
 H   -0.5404839239    1.9295855991   -0.8675569714
 H   -0.4984308854    1.9043511611    0.9077904881
 H   -1.0188738223   -0.3641631214   -0.0079914537
 H    0.1584343638   -0.2978786309   -2.1669151364
 H    1.7239962554   -0.1213022412   -1.3340985564
 H    2.5154333548   -2.0650558460   -0.1010802902
 H   -0.1958947635   -2.4050085060    1.2781586792
 H    1.3725999104   -2.2575772381    2.0879065800
 H    1.5455932271   -0.0466176885    1.3497164218