17

 O   -0.1143431786    0.0178267834   -0.2964468898
 C   -0.0831490089    1.1923329342   -0.0798993409
 C   -1.0920912063    2.2696925662    0.3395936386
 O   -0.0358107503    3.2492921063    0.3013308556
 C    0.9716765218    2.2962276488   -0.0938854304
 C    2.3628326613    2.2673149390    0.5915276155
 C    2.8399376612    1.4571604990   -0.6501621809
 C    1.9754809726    2.6143271208   -1.2327922444
 C    2.6817359687    3.5641247240   -0.2157978323
 H   -1.8904627976    2.4717800799   -0.3845528183
 H   -1.5238156066    2.1438140079    1.3397911658
 H    2.5636706335    2.0628341468    1.6431231040
 H    3.9085427809    1.5236727602   -0.8644041502
 H    2.4593578384    0.4414054539   -0.7625682822
 H    1.7312989328    2.8085244424   -2.2771409496
 H    2.1429000433    4.4675390903    0.0704528732
 H    3.7409931839    3.7593942669   -0.4035676240