19

 C   -0.1188943998    1.6055095814    0.0244010930
 C    0.0226894217    0.0758771193   -0.0282895749
 C    0.7806869183   -0.4674195119   -1.2134216713
 C    1.8217217775   -1.2286489739   -0.8748961813
 C    1.9955480994   -1.3667837244    0.6191836400
 C    1.8438023701   -2.7961034401    1.1454718210
 O    3.2111424714   -0.7831949587    1.0846740490
 C    0.8374163932   -0.4719482865    1.1545719503
 O    0.6304222593   -0.2504763686    2.3165199544
 H    0.8590074863    2.0902416730   -0.0516172922
 H   -0.7448511591    1.9672763610   -0.7968818274
 H   -0.5774976217    1.9036560500    0.9707966609
 H   -0.9848442199   -0.3617529387    0.0338725749
 H    0.4877200263   -0.2374188520   -2.2326964325
 H    2.5005323723   -1.7076719895   -1.5729742004
 H    2.6561015137   -3.4298601910    0.7681435845
 H    1.8769424049   -2.7831047547    2.2384526410
 H    0.8990580710   -3.2454548053    0.8254455629
 H    3.8987199650   -1.4562871094    1.0448525980