17

 C   -0.0467838162    1.3676193513    0.1109838946
 N   -0.0495505212   -0.0746359264    0.1287724058
 C   -1.2190160578   -0.8544895610   -0.2109075459
 C   -0.6895874821   -2.3121378783   -0.0817487914
 N    0.7330895469   -2.1097694907   -0.3623262680
 C    1.1130013679   -0.8018613144   -0.0415451721
 O    2.2479850799   -0.3892939236    0.0489232422
 C   -0.9427019141   -2.9004463626    1.2362837666
 C   -1.1373921322   -3.4052377268    2.3094436877
 H    0.9794063319    1.6958265538    0.2849686456
 H   -0.3896694104    1.7671659644   -0.8548339273
 H   -0.6936193182    1.7683149024    0.8992482763
 H   -2.0543403339   -0.6645149736    0.4681855463
 H   -1.5545170513   -0.6608485839   -1.2417344179
 H   -1.1455504273   -2.9474348941   -0.8480606762
 H    1.3855653414   -2.8285313464   -0.0860290894
 H   -1.3078435832   -3.8457706702    3.2609694629