18

 C   -0.1267239046    1.5368656344   -0.0091852490
 C    0.0265735700    0.0297357503    0.0656116560
 N    1.0644066348   -0.5722223334   -0.8771119755
 C    2.0980160596   -0.2905110062    0.1962258101
 C    0.9364004851   -0.5720564305    1.2023389327
 O    0.9053884428   -0.2345248413    2.5316169425
 C    0.7246279268   -2.0394050590    0.8897940632
 O    0.5251045818   -2.9084555939    1.6992970238
 C    0.8270450101   -2.0295327232   -0.6425596886
 H    0.8105319480    2.0766911403    0.1404831290
 H   -0.5293292281    1.8195849373   -0.9865845796
 H   -0.8283251782    1.8685519642    0.7621025435
 H   -0.9579037159   -0.4379989330   -0.0530551927
 H    2.9667108747   -0.9546172764    0.1886701623
 H    2.4240887519    0.7476392935    0.1698859112
 H    0.7291778079   -1.0566164420    3.0183881624
 H   -0.0922044334   -2.3672761096   -1.1291719030
 H    1.6605967465   -2.6323558615   -1.0137552184