19

 C   -0.0080142352    1.5290751619   -0.0076095141
 C   -0.0272307840    0.0245494993    0.0248019617
 N    0.4045364922   -0.7537779259   -1.2235158412
 C   -0.3074646175   -1.8936604177   -0.5029182625
 C    0.5950476616   -2.0222780028    0.7228572283
 C    0.7793873064   -0.7479581268    1.0768543703
 C   -1.3263513770   -0.8441429401    0.0181512565
 C   -2.5477001251   -0.8642678973    0.8322088625
 N   -2.5835691082   -0.5334983873   -0.6251513438
 H    0.9976494997    1.8910031034   -0.2427774223
 H   -0.6903100393    1.9236827279   -0.7691204978
 H   -0.3026495254    1.9471313417    0.9607647867
 H   -0.2251045811   -0.4590727828   -1.9785734334
 H   -0.5930115387   -2.7730365148   -1.0771559786
 H    0.9494036840   -2.9370284675    1.1741458128
 H    1.3295709375   -0.3146707726    1.8998428931
 H   -3.0302457509   -1.8020098967    1.0940950065
 H   -2.7054706147   -0.0591843901    1.5463037990
 H   -2.6970424244    0.4705095580   -0.7532784138