20

 C   -0.0067117083    1.4759856702    0.0422168301
 C    0.0353038706   -0.0196149598   -0.0124545096
 C   -0.0490752093   -0.7768022700   -1.1123806361
 C    0.0941085477   -2.2572105078   -0.8830442952
 C    1.5024975213   -2.4720046450   -0.2465413775
 C    0.7777006581   -2.2200774533    1.0702451527
 C    0.0477680787   -0.8304563416    1.2649689609
 C   -1.2526811070   -1.6928998530    1.1968029947
 N   -0.5152076657   -2.7510460532    0.4550903765
 H    0.9056620795    1.8815437787    0.4982988555
 H   -0.1097876253    1.9105449013   -0.9560822118
 H   -0.8437782260    1.8305947420    0.6579747297
 H   -0.1413002254   -0.3759205647   -2.1168525677
 H   -0.1999345582   -2.8748809615   -1.7320540502
 H    1.8160550238   -3.5178036814   -0.2949769129
 H    2.3064753766   -1.8093328717   -0.5697636925
 H    1.1276431698   -2.6845194178    1.9967623975
 H    0.2644392505   -0.2469452664    2.1628170066
 H   -1.5392290493   -2.1125382807    2.1670976718
 H   -2.1258730922   -1.2558274841    0.7044929673