20

 C   -0.1417604348    1.4889961455    0.0685192517
 C    0.0098768699   -0.0233853983   -0.0293097108
 C    0.7693298985   -0.4583057617   -1.2834988018
 C    0.7611972426   -1.9706335589   -1.5153592260
 C    1.3184733652   -2.7673917348   -0.3344622809
 N    0.4798175415   -2.7033149402    0.8647640311
 C    0.4619507830   -1.6385639063    1.7386207335
 O    0.2572675204   -1.7509816289    2.9213754931
 O    0.7068385491   -0.4218342292    1.1771962537
 H    0.8403971469    1.9719905219    0.0707504567
 H   -0.7145873120    1.8711126640   -0.7817310791
 H   -0.6584520468    1.7602275243    0.9918384951
 H   -0.9814005065   -0.4949399976   -0.0193634331
 H    0.3251409399    0.0451708171   -2.1501300257
 H    1.8007572924   -0.0927304527   -1.1981505374
 H   -0.2613194370   -2.3127202660   -1.7175594775
 H    1.3592530044   -2.2061990011   -2.4032779345
 H    1.3807970068   -3.8236131364   -0.6101040435
 H    2.3413271486   -2.4322845968   -0.1113994411
 H    0.3642476577   -3.5726310740    1.3638456266