20

 O    0.6398882984    1.1170458261   -0.0016722787
 C    0.3222774559   -0.2330508207    0.2628558831
 C    0.0158038320   -0.6668693204    1.7402017563
 C   -1.3945535853   -1.0533550438    1.2906295827
 C   -2.0792024412    0.1504021476    0.7076529867
 C   -1.1015836332   -0.6083076141   -0.1543302703
 C   -1.4062191999   -1.2305881816   -1.4688522847
 C   -2.7037456796   -1.0482273584   -2.1671176700
 N   -1.4973999971   -0.3797940944   -2.6789514977
 H    1.5560436464    1.2702501324    0.2505108476
 H    1.0549618373   -0.9079698964   -0.1999234733
 H    0.6318486643   -1.5070846073    2.0692109425
 H    0.0712860676    0.1343820610    2.4840770085
 H   -1.9500627373   -1.9242517740    1.6160129337
 H   -3.1245091083    0.0090337501    0.4560378282
 H   -1.8309780543    1.1468868442    1.0621327453
 H   -0.8655164898   -2.1567293150   -1.6621166453
 H   -3.0870199487   -1.8448294435   -2.7991358252
 H   -3.4702851138   -0.4456694966   -1.6894596482
 H   -1.5023204633    0.5946086048   -2.3835578314