19

 C   -0.0513483162    1.5433028924    0.0887040987
 C   -0.0035986313    0.0352334429    0.0030652818
 C    1.2834248430   -0.6897365410   -0.3656940858
 O    2.4654528317    0.0291740211   -0.5242749187
 C    0.7377644694   -0.7851222247    1.0443976716
 O    1.5179658727   -0.0793926723    2.0013791804
 C    1.5300387846   -0.8103768730    3.2353953474
 C    0.6882715690   -2.0289735272    2.9726637058
 C    0.2425452666   -1.9983511936    1.7192316191
 H    0.9212832994    1.9512738873    0.3675730882
 H   -0.3287123080    1.9716125247   -0.8799519728
 H   -0.7853929466    1.8755580941    0.8297853663
 H   -0.9114280732   -0.4373133938   -0.3671158840
 H    1.2238228258   -1.5561266422   -1.0204948156
 H    2.7992047132    0.1962248427    0.3687502682
 H    2.5674141800   -1.0582652198    3.5059278796
 H    1.1249005218   -0.1749789029    4.0372321069
 H    0.5007138445   -2.7917569996    3.7165345118
 H   -0.3866171262   -2.7288214450    1.2283910211