16

 C   -0.0057491801    1.5035201809    0.0807139009
 C    1.3945169359    2.1214814780   -0.0692619678
 N    2.1322288499    1.3966744867   -1.0895939822
 N    3.1861729972    1.8943378420   -1.7741190791
 C    3.6184406004    0.8215830021   -2.4262870155
 N    2.9286851455   -0.3259857072   -2.1916194193
 C    1.9975723922    0.0716043119   -1.3316218358
 C    0.9430693377   -0.6719146091   -0.6707056641
 C    0.0077542528   -0.0078634326    0.0199967511
 H   -0.4433264377    1.8501906470    1.0217074594
 H   -0.6627837913    1.8786624606   -0.7177852853
 H    1.3435928808    3.1724799100   -0.3586767460
 H    1.9466374525    2.0581388248    0.8776383604
 H    4.4606800871    0.8751650986   -3.1000023543
 H    0.9463667529   -1.7499111096   -0.7747235438
 H   -0.8048383058   -0.5409942443    0.5026394315