20

 C   -0.0039520438    1.5097581890   -0.1247489260
 C    0.0428842756   -0.0112716204    0.0728398687
 C    0.7693395723   -0.3707154572    1.3751741464
 C   -1.3874961581   -0.6108411999    0.0363010524
 N   -2.1395691727   -0.1446517995   -1.1478950937
 C   -2.5013078090   -1.1893534927   -1.7799744537
 N   -2.1305250879   -2.3988457670   -1.2106358531
 C   -1.4330602016   -2.1457301327   -0.0284676659
 N   -0.9536342236   -2.9675647060    0.8149866476
 H    1.0106701367    1.9211629713   -0.1166186960
 H   -0.4873755185    1.7776493077   -1.0653958197
 H   -0.5624588793    1.9893058646    0.6881853976
 H    0.5946133344   -0.4507568924   -0.7699077147
 H    0.2659520939    0.0898700612    2.2341271321
 H    0.7954224984   -1.4487477752    1.5408153305
 H    1.7950709461    0.0115795675    1.3493719895
 H   -1.9186872785   -0.2744226716    0.9366304976
 H   -3.0678307584   -1.1846159651   -2.7061928896
 H   -2.3397247126   -3.3130410914   -1.5750178652
 H   -1.1194007937   -3.9372339805    0.5396035951