18

 O   -0.1473461122    0.1347314363    0.6697134655
 C   -0.0401201271    1.2360081471    0.1781422176
 N    1.1211277106    1.7855443696   -0.2819591857
 C    2.4017088191    1.1054100014   -0.2399383660
 C    2.9816176169    0.9118964617   -1.6509712119
 O    4.2874109129    0.3657188210   -1.5807487231
 C    5.1334923022    1.1641709926   -0.7974599484
 O    4.6990312096    1.2717444998    0.5316893222
 C    3.4220682959    1.8813520902    0.6094547411
 H   -0.8958843032    1.9279331736    0.0487329754
 H    1.0793868490    2.7152671196   -0.6713965555
 H    2.2224507780    0.1288787216    0.2137656322
 H    2.3708589099    0.2203195073   -2.2359100624
 H    3.0033156140    1.8842743607   -2.1771184262
 H    6.1081950417    0.6742139836   -0.7772367046
 H    5.2174292131    2.1736640335   -1.2467850580
 H    3.4772216759    2.9273655137    0.2549778025
 H    3.1304340737    1.8921719266    1.6622105553