23

 C   -0.0091470241    1.5960337479    0.2031729024
 C   -0.0492276832    0.0640482137    0.0676183568
 C    0.6276584283   -0.4605761257   -1.2200758368
 C   -0.0506272747   -0.0630773557   -2.5291477747
 C    0.1849400473    1.3399865884   -3.1680626872
 C    0.2401111537    0.6576305199   -4.5599197703
 C    0.5014973927   -0.6923322546   -3.8409266366
 C    0.6505395447   -0.5565188766    1.2608632210
 O    0.1587522889   -1.3410562021    2.0300952006
 H    1.0229435666    1.9651186281    0.2047029180
 H   -0.5339628255    2.0785566954   -0.6239258025
 H   -0.4833683238    1.9195564647    1.1350976965
 H   -1.0872969558   -0.2861766541    0.0950720675
 H    1.6772156075   -0.1334528163   -1.2421188130
 H    0.6505253729   -1.5578636228   -1.1710106510
 H   -1.1276530504   -0.2579209909   -2.4566306616
 H   -0.5718836284    2.1125271294   -3.0101443288
 H    1.1600666857    1.7471861689   -2.8806103389
 H   -0.7346892426    0.6701195563   -5.0558337268
 H    0.9927346419    1.0099422812   -5.2688458634
 H    1.5736191218   -0.9000664880   -3.7551862505
 H    0.0054871158   -1.5878312594   -4.2236625992
 H    1.7117355308   -0.2263113679    1.3818245186