18

 C    0.0275131503    1.5272311731    0.0253883154
 C    0.0063381919   -0.0020895493    0.0178109185
 O   -1.3266928084   -0.4952483443   -0.0763619209
 C    0.8088244558   -0.6334727596   -1.1040804774
 C    2.2622377222   -0.8137801978   -0.7034088404
 C    1.3083477128   -1.9766840636   -0.6557877560
 N    1.2768554068   -1.9834774718    0.8617444821
 C    2.2054041982   -0.8070312918    0.8366183151
 C    0.7768617099   -0.6156221028    1.1805953801
 H    1.0522429446    1.9091018305    0.0201589801
 H   -0.4977551662    1.9142743146   -0.8524678883
 H   -0.4729124227    1.9201293588    0.9187549833
 H   -1.8319117890   -0.1284812928    0.6567627203
 H    0.5476122322   -0.4708220353   -2.1417325076
 H    3.1138152160   -0.6147510500   -1.3376643474
 H    1.2485691282   -2.9053279905   -1.2056761441
 H    3.0440006038   -0.7253900559    1.5182353173
 H    0.4512209534   -0.4706834214    2.2059494300