19

 C   -0.0111894585    1.5445060986   -0.0123419646
 C   -0.0182906096    0.0349523758   -0.0430928566
 C    0.2495250371   -0.8154684910   -1.3139743484
 C   -0.3513305747   -1.9364347048   -0.4422203638
 O    0.6501948683   -2.0989756226    0.5768074919
 C    0.7098098002   -0.7477901676    1.0929200192
 C   -0.2960547611   -0.7274229056    2.2417991791
 O   -1.5505016320   -0.9561449246    1.5718960986
 C   -1.2843854918   -0.8452958633    0.1942384775
 H    0.9996645788    1.9397158027   -0.1654713316
 H   -0.6513484146    1.9552118354   -0.7996627673
 H   -0.3781948699    1.9292089791    0.9449269787
 H   -0.3888820889   -0.5097312141   -2.1469975591
 H    1.2796867592   -0.9604043945   -1.6444246057
 H   -0.6779113731   -2.9065447916   -0.8119663120
 H    1.7357275489   -0.4676257620    1.3380052422
 H   -0.1047856375   -1.5400185335    2.9484650989
 H   -0.3246226353    0.2274197479    2.7869901227
 H   -2.1925495456   -0.6013437644   -0.3563162496