16

 O   -0.1273866868    1.3408049785    0.0800771376
 C   -0.0007902488   -0.0396186467    0.0002451163
 C   -0.3681366251   -0.8120580387   -1.2386850218
 C   -1.2249753595   -0.9417093991    0.0071780281
 C   -0.8077785767   -1.9518555085    1.0766964006
 N    0.6430987766   -2.1958752376    0.7211335043
 C    0.8554012654   -0.7397345663    1.0646644044
 C   -0.2129530845   -1.0085553788    2.1781296102
 O   -0.3237530632   -0.8471875364    3.3524856029
 H    0.6017984127    1.7392062755   -0.4076713032
 H   -0.8191232071   -0.2022385475   -2.0142279524
 H    0.2362241700   -1.6409505301   -1.5826947440
 H   -2.2263825240   -0.5321502163    0.0262109571
 H   -1.4357429537   -2.8137391163    1.2922806925
 H    1.0667951620   -2.7683943700    1.4512551146
 H    1.8685282227   -0.3915692117    1.2571652230