18

 C   -0.3428195784    1.6801248810   -0.2490997657
 C   -0.1136410637    0.2241833256    0.0145936943
 C    0.5428347343   -0.8632195815   -0.7503756516
 C    1.5892573331   -1.1445290471    0.4261655234
 O    2.8119398800   -0.5218984774    0.1710720066
 C    0.4846038472   -0.4691219803    1.2734403239
 C   -0.4041818561   -1.3771920232    1.7297004572
 C   -1.5139895084   -1.5213057679    0.6961005950
 N   -0.9572575571   -0.8404348601   -0.5035218645
 H    0.5634385999    2.2676027422   -0.0644241501
 H   -0.6508974047    1.8330679101   -1.2869835831
 H   -1.1285116852    2.0791098147    0.4022490170
 H    0.8318829055   -0.8842897057   -1.7973727036
 H    1.8266369577   -2.1788968383    0.6835627739
 H    2.6506246287    0.4164403119    0.0186934126
 H   -0.1169112171   -2.2222346483    2.3499695839
 H   -1.6989081525   -2.5860617444    0.5111611145
 H   -2.4798352933   -1.0509698416    0.9187835763