19

 C   -0.0181765141    1.5583951632    0.0850807669
 C    0.0312195019    0.0234333964    0.0436139911
 C    0.6439832610   -0.5006560556   -1.2635317783
 C    0.7753878184   -0.5098844099    1.2314162348
 O    0.3180741393   -0.1704686579    2.5819682495
 C    1.4754861624   -1.0046763989    2.8472149374
 C    1.2313222939   -1.9573307814    1.6394455747
 O    2.5754143034   -1.8115338342    1.1001727474
 C    2.2981045705   -0.4846987661    1.6309733136
 H    0.9856721651    1.9831071242   -0.0283163913
 H   -0.6388749814    1.9439355686   -0.7294120286
 H   -0.4302125128    1.9116594447    1.0335474109
 H   -0.9969680487   -0.3558263332    0.1266114555
 H    1.6765493008   -0.1564589858   -1.3802420100
 H    0.6534211248   -1.5935484266   -1.2978023930
 H    0.0687981306   -0.1369684602   -2.1202742855
 H    1.7610769141   -1.2057552005    3.8788437499
 H    0.7294838787   -2.9221366546    1.5675838984
 H    3.0600193924    0.2902982477    1.5517344366