17

 O    0.0410051301    1.3913082579    0.1247100900
 C   -0.0404791107    0.0020548531    0.0188164364
 C   -1.4865490409   -0.4928683049   -0.0936809007
 C   -1.4934989453   -2.0183735287   -0.1135838954
 N   -0.6223321455   -2.5305368838   -1.1691418730
 C    0.5621179829   -1.9542813616   -1.5840786182
 N    1.4827394322   -2.4891337630   -2.2901691957
 C    0.7399377414   -0.4937088197   -1.1915039726
 O    1.4495599300    0.2645502400   -1.8073076324
 H    0.7017726934    1.6606997100   -0.5342265954
 H    0.4152932940   -0.4848454693    0.9040799580
 H   -2.0664713986   -0.1245284561    0.7566940929
 H   -1.9390825338   -0.0913189981   -1.0071085225
 H   -1.1810815777   -2.3960658006    0.8733886736
 H   -2.5052212720   -2.3935401600   -0.2954353719
 H   -0.6999074755   -3.5193217654   -1.3601038113
 H    1.2736003561   -3.4691774200   -2.4981166316