15

 C   -0.1824750272    1.4515133773   -0.1286090265
 O   -0.0212968810    0.0285518584   -0.0451353204
 C    0.7068273558   -0.5019105343    1.0059022570
 C    0.1066593407   -0.2785597924    2.4140765084
 O   -0.8738708453    0.3790277879    2.6190751279
 C    0.6944558779   -2.0341879809    0.8121810369
 O    1.2411075421   -2.7991612924    1.5593975468
 C    2.2059829709   -0.1216702532    1.0389648382
 O    2.7110953495    0.6469785121    0.2709260487
 H    0.7814505304    1.9513335331   -0.2415825642
 H   -0.7813044642    1.6168362185   -1.0260621759
 H   -0.7195430828    1.8388215214    0.7393137516
 H    0.6512559724   -0.8156603574    3.2172073928
 H    0.1256230218   -2.3326206549   -0.0902498522
 H    2.7806377991   -0.6566651332    1.8223220009