15

 O    0.1654361897    1.3107645110    0.2247962451
 C    0.1385920714   -0.0304575102    0.0036493618
 C    0.0968473031   -0.7902335238   -1.1346740971
 C    0.0230015078   -2.1638039708   -0.6899348177
 C    0.0169786697   -2.1254504838    0.6947174400
 N    0.0638141748   -3.3903084650    1.2110604454
 C    0.0390171603   -4.2677011942    0.1275850973
 C    0.0340447175   -3.5495866832   -1.0463983877
 N    0.1457506117   -0.8268391834    1.1451231420
 H    0.0605148003    1.7541894567   -0.6222190094
 H    0.1328302517   -0.4133202258   -2.1452085643
 H   -0.0421040301   -3.6604156111    2.1719503509
 H    0.0080166727   -5.3312957102    0.2998127280
 H    0.0404844851   -3.9791915623   -2.0364012188
 H   -0.1045209757   -0.4658090640    2.0499477346