17

 O    0.1428854333    1.3910296119    0.0445544345
 C    0.0252116448   -0.0079819672    0.2143468435
 C   -1.3842496420   -0.5040771082    0.0790470414
 C   -2.4996937742    0.2107956149   -0.0319716355
 C   -3.7170177932   -0.6607543330   -0.1349768061
 N   -3.1555332605   -2.0169165375   -0.2526146539
 C   -1.7287630895   -1.9884781931    0.0807962131
 C   -0.9257628095   -2.7544976170   -0.8994466394
 N   -0.2749815575   -3.3478759325   -1.6477477279
 H   -0.0535016971    1.5887823351   -0.8772675869
 H    0.6800826923   -0.5618742115   -0.4770682709
 H    0.3994147201   -0.2216592312    1.2247217779
 H   -2.5414791142    1.2921375852   -0.0286887668
 H   -4.3641884859   -0.5409033006    0.7496766106
 H   -4.3349013810   -0.4138609074   -1.0101422026
 H   -3.6611155999   -2.7085947505    0.2813863813
 H   -1.5016604958   -2.4268921273    1.0689446275