19

 C   -0.3909087305    1.3429989088   -0.1046401019
 N    1.0344990272    1.0333775784    0.0691391300
 C    0.0592178504   -0.0707475863   -0.0053797419
 C   -0.1026525964   -0.8300963224    1.2701157421
 O   -1.2550814236   -1.6844874434    1.4020552234
 C    0.0414800514   -2.2912813602    1.3838168541
 C    0.3340891414   -3.1850969269    0.2141356358
 C   -0.5611582330   -4.3350437553   -0.0667545396
 N   -0.5490287517   -3.1611825827   -0.9594319997
 H   -0.8601971866    1.8215357570    0.7507052002
 H   -0.7430221716    1.6945568502   -1.0706123074
 H    1.5265579386    1.1195373031   -0.8155980800
 H    0.0294874906   -0.6628436897   -0.9149667551
 H    0.1064310104   -0.2311787463    2.1572489092
 H    0.3644416515   -2.6851109699    2.3497856289
 H    1.3926523842   -3.2828003118   -0.0201045765
 H   -0.1574601558   -5.2476729628   -0.4951534804
 H   -1.4221053973   -4.4717191220    0.5823728057
 H   -1.3538245593   -2.5828699180   -0.7194631971