20

 C    3.0207790193   -1.4945720367    1.0922162422
 N    1.8899952477   -1.0016947652    0.3117384546
 C    0.5456358615   -1.3499855526    0.7661108740
 C    1.0389280997    0.0502507221    0.8607023806
 C    1.2892307946    0.7211295544    2.1953526054
 O    0.2817493083    1.7044001182    2.4058442503
 C   -0.0580787436    1.7003503436    3.7893323481
 C    0.8881730938    0.6529198831    4.4013722164
 O    1.2159309185   -0.1653073882    3.2875900671
 H    2.8408160850   -1.5396284183    2.1748796776
 H    3.2707348159   -2.4995895388    0.7380635472
 H    3.8884894706   -0.8515281093    0.9092201865
 H   -0.1612258095   -1.6314636414   -0.0101564802
 H    0.4475489968   -1.8921967787    1.7034951000
 H    0.7126826313    0.7823455298    0.1246594894
 H    2.2761837672    1.2228333248    2.1978207249
 H    0.0875230173    2.6974211820    4.2200256555
 H   -1.1116974424    1.4178257482    3.9010273010
 H    1.7906647895    1.1244991976    4.8176485238
 H    0.4260473488    0.0274901754    5.1674547155