15

 C   -0.2005690219    0.9820887249    0.9717262358
 C    0.2637743402    0.3066741702   -0.3161379620
 N    1.1097074854   -0.8434716387   -0.0047068139
 C    2.0073212761   -1.1775247381   -0.7974091659
 O    2.3735088806   -0.6359029528   -1.9976291725
 N    3.4944871903   -1.3708561506   -2.5117900722
 C    3.6808370393   -2.2676794340   -1.6141681529
 O    4.5995609947   -3.2153708113   -1.6063996486
 O    2.8576530016   -2.2524973633   -0.5593111157
 H   -0.7328673341    0.2695093431    1.6080051387
 H    0.6530224652    1.3668555629    1.5376957304
 H   -0.8696986952    1.8183926438    0.7464905515
 H   -0.6093230278   -0.0488615755   -0.8796380797
 H    0.7810048505    1.0305990077   -0.9601699414
 H    5.1273223351   -3.1295765483   -2.4127290919