18

 C   -0.3010140746    1.3906765479    0.1465838083
 C    0.0337521393   -0.0831733216   -0.0675642074
 C    1.3256772769   -0.3669742118   -0.9042905088
 C    2.0932673598   -0.7556325130    0.3976435738
 C    0.7483264459   -0.7415341127    1.1208052939
 O    0.5530943836   -0.3942355958    2.4790996920
 C    0.2167081444   -1.7300551908    2.0813178363
 C   -1.1895196767   -2.0683036860    2.0789747612
 N   -2.3092757118   -2.3545600637    2.0522252083
 H    0.5774916659    1.9579807917    0.4726505690
 H   -0.6657711984    1.8380420083   -0.7831964152
 H   -1.0744564323    1.5072013515    0.9109044935
 H   -0.8564586344   -0.6231417665   -0.4031492048
 H    1.2111821063   -1.2035345095   -1.5960244006
 H    1.7247871684    0.4895047131   -1.4509219058
 H    2.6467767869   -1.6970267154    0.3952660213
 H    2.7514197983    0.0371927790    0.7629905103
 H    0.8708959122   -2.5082315147    2.4700972046