18

 O    0.2437510331    1.0637686592    0.6308155560
 C    0.0049307157   -0.1814357942    0.0266665304
 C   -1.4947338797   -0.4610258418   -0.1208019925
 C   -1.6496157024   -1.8258387625   -0.8248485710
 N   -1.5148670297   -1.1380510539   -2.1579821640
 C   -1.9987621176    0.1185966393   -1.4631708096
 C   -0.0841548180   -0.9826895174   -2.4590566852
 C    0.6667097079   -0.2137295272   -1.3662220727
 O    1.6667321566    0.4373250794   -1.5697047789
 H    1.0710891986    1.3865805720    0.2431275740
 H    0.4576335049   -0.9988555172    0.6206668209
 H   -2.0349035838   -0.2535523268    0.8060889564
 H   -0.9049597901   -2.6045699230   -0.6250353022
 H   -2.6510307196   -2.2545912203   -0.7275573018
 H   -3.0877920797    0.1772999806   -1.5332928936
 H   -1.5625492890    1.0566078289   -1.8208171176
 H    0.3672114331   -1.9728066043   -2.5981802802
 H    0.0510759197   -0.4351788705   -3.3978577284