20

 C   -0.0564021116    1.5272534351   -0.0260451406
 C   -0.0031521853    0.0096934224   -0.0072915617
 C   -1.2478348174   -0.6296721567   -0.5954599291
 C    1.3168614725   -0.6775531608   -0.2351119341
 C    0.6995555841   -0.7055140226    1.1624595572
 C    1.3705766464    0.0837483898    2.2819816654
 C    0.1477073039   -1.9550861600    1.6204463644
 C   -0.2962415035   -2.9870204559    2.0532502928
 H    0.8699268596    1.9927885305    0.3158829198
 H   -0.2388294713    1.8786540245   -1.0483324341
 H   -0.8740894293    1.9020555215    0.6004140531
 H   -1.3727987542   -0.3224337680   -1.6403087162
 H   -1.2017732485   -1.7196942558   -0.5619349038
 H   -2.1445554314   -0.3183826877   -0.0472956444
 H    1.3279298847   -1.6041020151   -0.7984129551
 H    2.2050375535   -0.0653427833   -0.3582540150
 H    1.8690333149    0.9802414014    1.9081921170
 H    0.6417972403    0.3874264435    3.0403523123
 H    2.1252832054   -0.5364363967    2.7752331815
 H   -0.6902007927   -3.9006794863    2.4232928304