22

 C    0.1736753782    0.5139425519   -1.8625685857
 C   -0.3433195905    0.8439201510   -0.4568327972
 C   -1.5708134801    0.0233514359   -0.1090236481
 C   -1.4584356256   -1.2906079253    0.5854430253
 N   -2.0867725658   -0.1505142301    1.2543724714
 C   -1.3904517728    0.4391254660    2.3769791764
 C   -1.8839449234    1.8381860564    2.8033276452
 O   -2.1958320183    1.3722720122    4.1316646001
 C   -1.9149911549    0.0053711500    3.7640187029
 H    1.0404987918    1.1302861330   -2.1185571428
 H    0.4718546494   -0.5369661106   -1.9355209087
 H   -0.5977769956    0.6928204507   -2.6193354321
 H    0.4543533973    0.6717889586    0.2726423332
 H   -0.5926539790    1.9118995101   -0.4016991310
 H   -2.3765438219    0.1316279723   -0.8356474704
 H   -2.1149950760   -2.1206617428    0.3386536300
 H   -0.4623909813   -1.5848632517    0.9171857673
 H   -0.2960102303    0.3747931005    2.3075590490
 H   -1.1417545715    2.6450092632    2.8135684241
 H   -2.7775334813    2.1653402855    2.2568730419
 H   -2.8243153047   -0.6056349253    3.7081278054
 H   -1.1941928537   -0.4625832215    4.4445013336