19

 O    0.5126935070    0.8753840125   -0.9007688717
 C    0.0730613420   -0.1791809604   -0.0487161439
 C    0.6886873286   -0.0990991399    1.3254534045
 C    0.1460422356   -0.6825057456    2.3934949596
 C   -1.1314992052   -1.4763339041    2.3092664281
 C   -2.0867653671   -0.9317247982    1.2516996887
 O   -2.6890150274    0.3138335119    1.6781162661
 C   -2.1799083591    1.0166645086    0.5313988064
 C   -1.4608731177   -0.2441796214    0.0056579512
 H    0.3085905568    1.7082302931   -0.4613226616
 H    0.4380540709   -1.0875822607   -0.5479910351
 H    1.6328326275    0.4356451130    1.3902865365
 H    0.6421817456   -0.6215515464    3.3582854795
 H   -0.9057003631   -2.5290934942    2.0824828956
 H   -1.6574154623   -1.4771447204    3.2705885077
 H   -2.8608186683   -1.6737777156    1.0183909895
 H   -2.9824247854    1.4004607934   -0.1099663426
 H   -1.5348089573    1.8560393838    0.8276527689
 H   -1.8458773910   -0.5997451894   -0.9510670773