17

 C    0.1385606213    1.4154976997   -0.3763668198
 C    1.4273307208    1.9819882540    0.2795017513
 C    2.1488253868    0.7375968317    0.7311088315
 N    3.4203551913    0.6540451941    1.1014430320
 C    3.8175005358   -0.5727292767    1.4726130421
 C    2.9604486730   -1.6693177109    1.4749166956
 N    1.6733272735   -1.5812881274    1.1060842712
 C    1.2843045726   -0.3685746690    0.7333862002
 C   -0.0984527320    0.0297441198    0.2835684640
 H   -0.7174856079    2.0847658826   -0.2690124425
 H    0.3113173821    1.2782462325   -1.4487195670
 H    2.0277880353    2.5941614760   -0.3983050498
 H    1.1912602594    2.6099027386    1.1489463966
 H    4.8550304152   -0.6826636899    1.7766305282
 H    3.3184091518   -2.6487652821    1.7807373141
 H   -0.7630291012    0.1093659537    1.1541646733
 H   -0.5488001878   -0.7025699069   -0.3914364507