24

 C   -0.0141924860    1.3689510537   -0.3768856016
 N   -0.2138970182   -0.0602671729   -0.2437623669
 C   -1.1481378757   -0.5990832784    0.5957877788
 O   -1.8735226725    0.0910866977    1.2951499632
 C   -1.2116402049   -2.1232509714    0.5898378121
 C   -2.5622369427   -2.7132299778    0.0914497974
 C   -2.9222640058   -2.1255487338   -1.2852897187
 C   -2.3887280364   -4.2377460817   -0.0363971462
 C   -3.6890103525   -2.4142778027    1.0967972476
 H   -0.2325633495    1.7122648799   -1.3946710956
 H   -0.7000624269    1.8555361702    0.3175202960
 H    1.0137435329    1.6530641955   -0.1254180582
 H    0.3482440988   -0.6808703547   -0.8005906835
 H   -0.3980097395   -2.5348923506   -0.0199723700
 H   -1.0386763315   -2.4544579619    1.6201316033
 H   -2.1245560421   -2.3006324670   -2.0169314968
 H   -3.8346858852   -2.5893672485   -1.6745668794
 H   -3.0976994454   -1.0470555760   -1.2252864559
 H   -2.0938808449   -4.6847905414    0.9194444564
 H   -3.3271870497   -4.7087675755   -0.3483127310
 H   -1.6235651304   -4.4946499714   -0.7780149100
 H   -3.7931579630   -1.3412389005    1.2642319145
 H   -4.6412227420   -2.8138561227    0.7303157512
 H   -3.4809011270   -2.8837599180    2.0649356633