22

 C    0.0435074373    1.5614643680   -0.0548572313
 C    0.1075341941    0.0325381125   -0.0299700848
 C    0.6940052227   -0.5358540690    1.2602021538
 C    0.6878292475   -2.0596760884    1.3050697477
 O    2.0594446620   -0.0504897321    1.3268817211
 C    2.6248942537    0.0590855203    2.5308062899
 N    2.0430584776   -0.2450646830    3.6179539076
 O    3.8725631200    0.5400485225    2.3222610445
 C    4.6834848454    0.7364979664    3.4689435505
 H    1.0421654503    1.9929283976    0.0516164064
 H   -0.3841053232    1.9214506291   -0.9954479440
 H   -0.5776143616    1.9442818657    0.7626395345
 H   -0.8980827344   -0.3881893958   -0.1488313402
 H    0.7023554969   -0.3339615370   -0.8758480027
 H    0.1617753790   -0.1393303430    2.1304250762
 H   -0.3396604701   -2.4317020411    1.2418596837
 H    1.2564248613   -2.4724892867    0.4655151843
 H    1.1237893466   -2.4133065919    2.2413287298
 H    2.6246157599   -0.0801634576    4.4321288940
 H    4.8493266934   -0.2037590829    4.0084822034
 H    5.6377750040    1.1143732666    3.1005555698
 H    4.2416052878    1.4726920698    4.1512862660