17

 C   -0.1187381419    1.5235353073   -0.0060039095
 N    0.1442025142    0.0974082361    0.0215296522
 C    0.7216682644   -0.5443297652   -1.1905246179
 C    1.3710885818   -1.8908907889   -0.7089981769
 C    1.5340490357   -1.6088011945    0.7602120098
 C    0.8194996804   -0.4900493641    1.0593525508
 O    0.8374441632   -0.1792324241    2.3426958111
 N    1.6359916552   -1.1896303891    2.9938241066
 C    2.0079940389   -2.0076005355    2.0255274015
 H    0.7795257512    2.1129548680   -0.2525604791
 H   -0.8897821045    1.7408916453   -0.7504011124
 H   -0.4859459393    1.8406822971    0.9722999318
 H   -0.0535789173   -0.6911590218   -1.9470221893
 H    1.4925463718    0.1166622531   -1.6155110502
 H    0.6959992352   -2.7350082078   -0.8969782178
 H    2.2986012324   -2.0915640864   -1.2522992919
 H    2.6243988185   -2.8525106595    2.3029773313