21

 C    0.0790010184    1.4860143395    0.1119777298
 C   -0.0608259830   -0.0454432190    0.0019384083
 C   -1.4677721217   -0.4458989830   -0.0203699479
 C   -2.6260169180   -0.7666899340   -0.0633214142
 C    0.6788594108   -0.5942906894   -1.2274751009
 C    2.2308717421   -0.4903039186   -1.2620567143
 C    2.2664768970   -1.8892845299   -1.9073221257
 O    3.3117031429   -2.7070601117   -1.4351506328
 C    0.8208840085   -2.1322044615   -1.3912336479
 H    1.1348542988    1.7680334530    0.1646326466
 H   -0.3670279919    1.9769778327   -0.7583471537
 H   -0.4243439517    1.8611995947    1.0066837885
 H    0.4041401835   -0.4941482301    0.8920036353
 H   -3.6474845720   -1.0550187492   -0.0890309770
 H    0.2420043659   -0.1518359322   -2.1291018247
 H    2.6926822603    0.3400086578   -1.7999565225
 H    2.6543131065   -0.5463890769   -0.2535697608
 H    2.2833140175   -1.8163435764   -3.0046003593
 H    3.2550707216   -3.5584189770   -1.8807301641
 H    0.8550338356   -2.6306952598   -0.4170544687
 H    0.1114139189   -2.6519526789   -2.0386085640