25

 C    0.3427474743    1.3224042191   -0.4708007924
 C    0.3920533309   -0.1970032243   -0.2621947247
 C    0.6953035003   -0.5818486175    1.1886014777
 C    0.7426464453   -2.1087646700    1.5442485087
 C    0.0528539284   -3.1268276267    0.6433162999
 C    2.3065626322   -2.0504175736    1.6038384949
 C    3.0726780500   -2.6243335312    0.4129818996
 C    2.1944410851   -0.4926190572    1.6337846486
 O    3.1139891279    0.2802853677    0.8949328483
 H    1.2941034679    1.7848235886   -0.1951222953
 H    0.1247565634    1.5738904479   -1.5138081029
 H   -0.4391421850    1.7731639151    0.1505856257
 H   -0.5712143124   -0.6351263801   -0.5513017546
 H    1.1270180249   -0.6357777977   -0.9504169052
 H    0.0180808215   -0.0080512800    1.8316325704
 H    0.3590300997   -2.2409150478    2.5616563188
 H    0.3863307794   -3.0630210917   -0.3964828745
 H    0.2483996759   -4.1477667065    0.9897674304
 H   -1.0332153464   -2.9824037897    0.6497978912
 H    2.7312548459   -2.4770653149    2.5184439062
 H    2.6924024017   -2.2749051159   -0.5533115720
 H    4.1308987378   -2.3499065961    0.4724790671
 H    3.0120102828   -3.7170282068    0.4000500643
 H    2.2713244775   -0.1153069784    2.6570310312
 H    3.1282836413   -0.0477093223   -0.0096543514