11

 O    0.1735024698    1.2811051490   -0.0418557567
 C    0.0527504947   -0.0400055581   -0.0649425022
 N   -0.1604330074   -0.6837790437   -1.1864235758
 O   -0.2258112417   -2.0354039219   -0.7292931874
 C   -0.0299815626   -1.9857054699    0.5845594977
 O   -0.0576991134   -3.1122965036    1.2965481098
 C    0.1372559071   -4.3397826714    0.6611925955
 O    0.0219246901   -5.3445778890    1.2740149898
 N    0.1471104220   -0.8019484673    1.0760160864
 H    0.3254392430    1.5435596816    0.8748281455
 H    0.4041163684   -4.2302806457   -0.3972614727