14

 C   -0.0180375687    1.4122590651    0.0823177723
 C    1.4190653546    1.9599856982   -0.0077792925
 O    2.2607199141    1.4476481743    1.0572823863
 C    2.0010371844    0.1657506054    1.2913781587
 C    0.9601911868   -0.5777080464    0.7955941496
 N   -0.0901401936   -0.0523481418    0.0257801298
 N    1.0962406235   -1.8242077215    1.3257803949
 N    2.1036925821   -1.9192399303    2.0604193643
 O    2.7541166421   -0.5449628337    2.0883936362
 H   -0.4612778981    1.7444323980    1.0282076271
 H   -0.6111451522    1.8372437226   -0.7312019687
 H    1.8783877279    1.6864859692   -0.9650661687
 H    1.4423326075    3.0452896234    0.1037266614
 H   -0.0915415204   -0.3979615424   -0.9281691907