20

 N   -0.0756835337    1.2397675793    0.4475289204
 C    0.0280156465    0.0023404493   -0.1196658686
 O    1.0567770137   -0.3910975267   -0.6356515482
 C   -1.2541515474   -0.8267544857   -0.0861594599
 C   -0.9691952583   -2.3294202740   -0.1241517308
 C   -2.2402067981   -3.1499431231   -0.2174642693
 C   -2.1530311271   -4.6691595128    0.0503372810
 C   -3.1727243267   -4.3861828108    1.1707888813
 O   -3.1077360275   -2.9645816506    0.9337194857
 H    0.7331269923    1.8390564398    0.4413669812
 H   -0.9076503559    1.5493354330    0.9171215611
 H   -1.8597698512   -0.5795868287    0.7920734832
 H   -1.8491366499   -0.5370819106   -0.9638183263
 H   -0.3211238460   -2.5512124276   -0.9788350127
 H   -0.4176927094   -2.6230916950    0.7768290936
 H   -2.7833485925   -2.9001739771   -1.1418396259
 H   -2.4876431141   -5.3226589179   -0.7563127595
 H   -1.1726043576   -5.0004910063    0.3991714125
 H   -4.1803878697   -4.7833563906    0.9916377226
 H   -2.8683960673   -4.6468660140    2.1912130285