18

 C    0.0042825983    1.3341486811   -0.2304286649
 O   -0.0003866941   -0.0733524879   -0.1465794828
 C   -1.2634922314   -0.5973627200    0.2164302872
 C   -1.1836289975   -2.0865038964    0.1874768437
 C   -1.6784960402   -2.9985170888    1.0331159514
 C   -1.3852070261   -4.3708733190    0.4869563434
 C   -0.5843415784   -4.0850281836   -0.7981913367
 O   -0.0676831126   -4.8705377122   -1.5568592817
 N   -0.5690354152   -2.7046370687   -0.9139442528
 H    1.0096301124    1.6382415264   -0.5296026723
 H   -0.7182571595    1.6995823027   -0.9769372126
 H   -0.2357825966    1.7996407812    0.7377100822
 H   -1.5679993958   -0.2608142811    1.2190662614
 H   -2.0306089556   -0.2442819385   -0.4964966238
 H   -2.2213558010   -2.7861416048    1.9417371966
 H   -0.7882135687   -5.0018994294    1.1549923157
 H   -2.2837692756   -4.9470577224    0.2346333108
 H    0.0202174877   -2.2129218785   -1.5662066949