20

 C   -0.0339728321    1.4342374799   -0.2460885820
 N    0.0296044159    0.0024438938    0.0217421323
 C   -0.8223150670   -0.4952197473    1.1577994059
 C   -1.0837528319   -1.9875635297    0.8911284881
 C    0.2394220813   -2.6741428316    0.6074914005
 C    1.3592111175   -1.9500513306    0.5754156900
 C    1.2100860606   -0.4654918392    0.8400619455
 C    0.3570611561   -0.3234956421    2.1437717636
 O    0.3159477436    0.9599467927    2.7303388002
 H    0.7266034577    1.6848762065   -0.9946549443
 H   -1.0115807122    1.6621599781   -0.6862656913
 H    0.1090031171    2.0804957236    0.6309003336
 H   -1.7289322454    0.0788203679    1.3666050942
 H   -1.5843318280   -2.4529628723    1.7514619391
 H   -1.7625538536   -2.0964132488    0.0354278381
 H    0.2401814624   -3.7451307338    0.4262210601
 H    2.3367779662   -2.3844919665    0.3952051101
 H    2.1287274041    0.1176738678    0.7383748318
 H    0.5043573057   -1.1044770523    2.9029379513
 H    1.1632294821    1.1182716940    3.1597996130