25

 C    1.2075086940    1.7652729948    0.0564427275
 C    0.8015134343    0.2915211012   -0.0590906057
 C    1.6616213051   -0.8553821839   -0.6999958656
 C    2.5578529017   -0.8568602597    0.5821839309
 C    3.6661271537    0.1774257260    0.8105353932
 C    1.0731912277   -0.7443575969    1.0812402678
 C    0.7132173101   -1.8833550922    0.0420432422
 C   -0.7521593618   -2.0396962382   -0.4026982195
 C    1.2165204890   -3.3203777957    0.2682934964
 H    1.6398665637    2.1411168170   -0.8783069329
 H    0.3129060082    2.3652573174    0.2551634759
 H    1.9116778458    1.9772360259    0.8599803722
 H   -0.2202679787    0.2852388603   -0.4313530713
 H    2.0008869387   -0.9177854830   -1.7386476647
 H    2.9910675934   -1.8253932133    0.8207572916
 H    3.6775623071    0.5374608718    1.8460006875
 H    4.6367906341   -0.2967382728    0.6295301532
 H    3.6145049352    1.0456490755    0.1548004771
 H    0.7339206763   -0.6819726295    2.1198920969
 H   -1.3395978171   -1.1231142455   -0.4306646787
 H   -0.7978068215   -2.4925420581   -1.4000769574
 H   -1.2672915042   -2.7255869675    0.2794245716
 H    0.7232942492   -3.7598205909    1.1432412997
 H    0.9431696381   -3.9405419199   -0.5929737139
 H    2.2910825581   -3.4301667730    0.4070282058