18

 O    0.3476621582   -1.1730905458    1.5976500543
 C    0.1029469310   -0.4310165762    0.4146528682
 C   -1.3625715576   -0.5034143126    0.0144975812
 C   -2.3056284203    0.2188395928    0.9713904817
 C   -2.2133389268    1.6759185505    0.8581410155
 N   -2.1295686209    2.8236557360    0.7527941691
 C   -1.7054348232   -0.5927719528   -1.4592653258
 C   -1.8331085515   -1.8053019437   -0.5695738180
 O   -0.8818582063   -2.8322982050   -0.6171262599
 H    0.2216486688   -2.0998642169    1.3613262828
 H    0.3791986166    0.6057889054    0.6342524031
 H    0.7335288311   -0.7765514624   -0.4130918672
 H   -3.3463991169   -0.0735811117    0.7947456197
 H   -2.0546683585   -0.0728447459    1.9978261685
 H   -2.6131811139   -0.1192818330   -1.8186204940
 H   -0.8750253537   -0.5674861684   -2.1570954325
 H   -2.8401350050   -2.1369265595   -0.3154729439
 H   -0.9951196711   -3.3248517409   -1.4365180128