19

 O    0.0653549553    0.9467428480    0.5657122982
 C    0.0794212775   -0.3353254486    0.0464949590
 C   -1.1694226985   -1.1539185813   -0.1205522720
 C   -2.5179802587   -0.6188110821    0.3163259978
 O   -2.6683429433    0.7859487707    0.1475466424
 C   -3.0793958452    1.1985566582   -1.1508337978
 C   -2.0069798146    1.1845781339   -2.2048331134
 C   -0.9322919570    0.3950403318   -2.2815443463
 C   -0.4474377658   -0.6593253986   -1.3690990305
 H   -0.8444749304    1.2756607273    0.5059221114
 H    0.9918020433   -0.8477985968    0.3369020170
 H   -1.0784407511   -2.2210806954    0.0740130360
 H   -3.3304974694   -1.1431194303   -0.2099831445
 H   -2.6459964423   -0.8006914525    1.3898069604
 H   -3.9417339437    0.5844979275   -1.4648483884
 H   -3.4524288364    2.2210755207   -1.0253441356
 H   -2.1603991550    1.9127885321   -2.9987309821
 H   -0.2776028696    0.5535935183   -3.1367755894
 H    0.1355440951   -1.4198405327   -1.8821128422