17

 C    0.0065699483    1.5102990417   -0.0013918526
 C    1.3098582033    0.7539957599   -0.0369653499
 C   -0.0045804879    0.0026772990    0.0220235937
 C   -0.4136141283   -0.7323347410    1.2845558710
 C   -0.1411192703   -2.2192151177    1.0813038123
 O   -0.7884581482   -2.6970716676   -0.1075076825
 C   -0.7737380136   -1.8424532057   -1.1602361304
 N   -0.4114232513   -0.6296320252   -1.2029958988
 H   -0.2622446253    2.0343894406    0.9097771230
 H   -0.3286306303    1.9784944832   -0.9191241840
 H    1.8501232673    0.7213147017   -0.9752572970
 H    1.9327624587    0.7526301292    0.8518252920
 H    0.1278170776   -0.3667033914    2.1628426693
 H   -1.4847472628   -0.5870203661    1.4723248886
 H    0.9366609041   -2.4041873346    0.9867676012
 H   -0.5290083627   -2.8322226772    1.8978983403
 H   -1.1421801288   -2.3451923488   -2.0519228761