15

 N   -0.0072440006   -1.1391086940    0.0091168177
 C   -0.0055347612    0.0157708089    0.0265481547
 C   -0.0082151882    1.4699144302    0.0102879346
 N   -0.5820872939    2.1220467063    1.2292576501
 C   -0.3767712921    3.4976947496    0.6791725250
 C    1.1449267694    3.4066263444    0.4403629531
 C    1.3800430349    2.1671864885    0.0302537542
 C   -1.0622338380    3.3853105362   -0.7094286063
 C   -0.8405276468    2.1435640196   -1.1283476655
 H   -1.5847620883    1.9282563482    1.2413971107
 H   -0.7214561761    4.2940946380    1.3362953715
 H    1.8367515053    4.2280751954    0.5539763860
 H    2.2958594719    1.6857009599   -0.2763205552
 H   -1.5438125562    4.1976679334   -1.2355752137
 H   -1.0845576602    1.6664695854   -2.0661318567