21

 C    0.0798719320    1.5306679276    0.0889486846
 C    0.0172314689    0.0140452294   -0.0060897775
 C    0.6606822236   -0.5351789926   -1.2891603226
 C    0.9716855533   -2.0265441113   -1.1873661204
 C    2.2103962074   -2.4895919559   -0.4339583083
 C    0.8592894880   -2.7239055520    0.1520193132
 O    0.4450339618   -4.0610822837    0.2044706409
 C    0.4077201945   -1.8856697349    1.3352304998
 O    0.6692522647   -0.5098405571    1.1508898051
 H    1.1219037915    1.8641268053    0.1195207977
 H   -0.4049824127    1.9910021935   -0.7774482448
 H   -0.4189548126    1.8809789654    0.9963453899
 H   -1.0386744311   -0.3094140294    0.0217701114
 H   -0.0196067584   -0.3501780826   -2.1279959200
 H    1.5786782691    0.0276218822   -1.5011933838
 H    0.7069727769   -2.6353235230   -2.0461626826
 H    2.7354520865   -3.3580900664   -0.8139697109
 H    2.8310127810   -1.7256344727    0.0233581714
 H   -0.5111990274   -4.0815079294    0.0827363030
 H   -0.6744735935   -2.0523552298    1.4950396638
 H    0.9299792662   -2.1898372025    2.2481933401