18

 C   -0.0654732522    1.5233243972    0.3202143130
 C   -0.0015688992    0.0246890682    0.0964707201
 C    1.2617190131   -0.5872010998   -0.4676472169
 C    0.8998404886   -0.7992291487    0.9816596721
 C   -1.3247728087   -0.6129270371   -0.3190596342
 O   -2.3319209513   -0.3930074685    0.6313609633
 C   -1.7714695687   -0.0995423411   -1.6768599078
 O   -2.8615596842    0.3917684470   -1.8468426694
 H    0.8953467927    1.9063707409    0.6756122025
 H   -0.3166143655    2.0627706596   -0.6011191902
 H   -0.8281075826    1.7606942292    1.0670815257
 H    1.1780766723   -1.4345609473   -1.1410924564
 H    2.0826351717    0.0811827326   -0.7030086849
 H    1.4776985979   -0.2753615189    1.7350906774
 H    0.5599515004   -1.7829187900    1.2871112614
 H   -1.1482112043   -1.6974630608   -0.4529323585
 H   -3.0732327868   -0.0044009561    0.1399069060
 H   -1.0415078834   -0.2047738162   -2.5042518331