15

 N    0.1480607866    1.4201402308   -0.0696198172
 C    0.0561611117    0.0225144364   -0.0527255244
 C   -1.0540501262   -0.7980979388   -0.0253506170
 N   -0.5758160184   -2.0759085806    0.0554843408
 N    0.7599144447   -2.1419238639    0.0714718789
 C    1.1601063367   -0.8702862362    0.0173924929
 C    2.6041119483   -0.4864318783    0.0205233087
 O    2.9189171109    0.4226132142   -1.0433073083
 H    1.0011690522    1.7163922743   -0.5301729286
 H   -0.6518589356    1.8734159757   -0.4903021607
 H   -2.1104808718   -0.5846000922   -0.0535402613
 H   -1.1083557734   -2.9275500054    0.0850873934
 H    2.8646473331    0.0603431170    0.9336675875
 H    3.2242302869   -1.3912340262   -0.0183046282
 H    2.6912698243   -0.0217218470   -1.8673762864