21

 C    0.3001959447   -0.4307633553    1.5910002470
 C   -0.0685772617   -0.1299393389    0.1349186669
 C   -1.4286179741   -0.6986898416   -0.3027300381
 C   -1.8296209247   -0.2147173321   -1.7211354018
 C   -2.0061240002    1.2285403087   -1.8177323703
 C   -2.1547047594    2.4203577135   -1.8755760716
 C   -1.4331192256   -2.2133111145   -0.2885235558
 C   -2.0367643020   -3.0027857167    0.7921533598
 O   -2.7039998990   -2.8477954414   -0.4609642506
 H    1.2572347624    0.0304795162    1.8530697678
 H   -0.4564681403   -0.0368113350    2.2786591626
 H    0.3893430022   -1.5056813468    1.7766076849
 H   -0.0864697603    0.9536322634   -0.0219383344
 H    0.7123995846   -0.5212061619   -0.5323440996
 H   -2.2024171667   -0.3523803933    0.3939836586
 H   -1.0676539618   -0.5396948662   -2.4432028142
 H   -2.7608181900   -0.7180000718   -2.0056365390
 H   -2.2899613070    3.4713307276   -1.9414595561
 H   -0.6306641485   -2.6802670896   -0.8661257362
 H   -1.6690032473   -4.0055361284    1.0060280821
 H   -2.4993841355   -2.4895679656    1.6341888879