21

 C   -0.1095280624    1.5661152448    0.0687037792
 C    0.0142319471    0.0413630319   -0.0252772364
 C    0.7793127685   -0.4024856841   -1.2907854409
 O    2.1913976991   -0.2497203327   -1.1522397830
 C    2.6804030330   -0.7388586178    0.0784607485
 C    2.2887719468   -2.2084845741    0.3532671583
 C    0.9536388746   -2.0672201727    1.1309545850
 C    0.7615683088   -0.5331852571    1.1957299795
 O    2.1073590715   -0.0292624489    1.1591455643
 H    0.8802196854    2.0282995143    0.0827662632
 H   -0.6674157124    1.9669299181   -0.7837114936
 H   -0.6348906533    1.8635439225    0.9826825471
 H   -0.9894020140   -0.4022803993   -0.0646984021
 H    0.5363953403   -1.4485499366   -1.5311722196
 H    0.4957441728    0.2045263586   -2.1552568391
 H    3.7535963334   -0.5437517880    0.0695835401
 H    2.2019454531   -2.7811365157   -0.5725727854
 H    3.0596327471   -2.6794291389    0.9669412333
 H    0.1176680665   -2.5687231357    0.6360733131
 H    1.0378397034   -2.4794155008    2.1388833445
 H    0.3082551009   -0.1926670979    2.1299903238