17

 O    0.8444146081    0.4836817729    0.4959637409
 C   -0.0754411428    0.4105962575   -0.5792230278
 C   -1.3905363934   -0.2242674322   -0.1602032730
 C   -2.3645468697    0.6210393673    0.5689604147
 O   -3.4755191137    0.2542531980    0.8840922886
 C   -2.0026791600   -1.3873041928   -0.9343362623
 O   -1.3127223992   -1.7856168721   -2.0901238446
 C   -1.3304456354   -1.6921875712    0.3560735026
 O   -0.0996475798   -2.3371009292    0.3126046993
 H    1.0118190434   -0.4286550794    0.7637248985
 H   -0.2554768983    1.4435388950   -0.8972605499
 H    0.3420918056   -0.1192919526   -1.4438568139
 H   -1.9945620963    1.6340313178    0.8362101252
 H   -3.0883552428   -1.3927234156   -0.9867827871
 H   -1.7516196577   -2.5690149298   -2.4390332069
 H   -1.9156980937   -1.9198121892    1.2404763992
 H    0.0611092257   -2.5487982344   -0.6197955633