16

 O   -0.0333541545    1.4091006275    0.0302027271
 C    0.0379231218   -0.0020190948   -0.0084501649
 C   -1.4032099775   -0.5170438489    0.0071976247
 O   -1.4430799920   -1.9072498952   -0.2516902371
 C   -1.0324249233   -2.2346488830   -1.5602503274
 C    0.2080971252   -1.5150039351   -1.9961463002
 C    0.7196530620   -0.5071485124   -1.2793532967
 C    1.9076923334    0.1805958058   -1.6686464571
 N    2.8673941139    0.7814960159   -1.9155729199
 H    0.8611666067    1.7653971453    0.0741033355
 H    0.5767594987   -0.3949641300    0.8672912648
 H   -1.8544103895   -0.3634932202    0.9893782743
 H   -1.9820956027    0.0525760009   -0.7357757821
 H   -0.8633277151   -3.3179279740   -1.5737022059
 H   -1.8376736264   -2.0306658381   -2.2908131491
 H    0.6726512092   -1.8352473336   -2.9239741060