22

 C   -0.2145348967    1.4412548288    0.0359830482
 C    0.1292068601   -0.0271661533   -0.2170760106
 O    0.9404080171   -0.1876362397   -1.3804149146
 C    0.8191322073   -0.6521737859    0.9829744174
 N    0.1639527840   -1.0291391223    2.2607041666
 C   -1.1679659198   -1.6446335422    1.9125828826
 C   -0.5178137569   -2.7484148097    1.0454065303
 C    0.8255400788   -2.0808503887    1.3568175207
 C    2.0658856821   -2.8291513618    1.7476560218
 H    0.6912594115    2.0163049462    0.2660231588
 H   -0.6849933650    1.8801098377   -0.8479948147
 H   -0.8934149138    1.5437094065    0.8883946940
 H   -0.7879409295   -0.5699587775   -0.4600182326
 H    1.7503365059    0.3168443391   -1.2444695333
 H    1.7585825280   -0.1418130146    1.2077029266
 H   -1.6304808036   -2.0244632102    2.8256186968
 H   -1.8741524596   -0.9627105548    1.4286398876
 H   -0.6046645411   -3.7399502606    1.4949173534
 H   -0.7991000695   -2.8208297469   -0.0091873581
 H    2.5155598272   -3.3134215455    0.8724963075
 H    2.8095834845   -2.1539177386    2.1808110843
 H    1.8437952590   -3.6077220560    2.4857565472