16

 C   -0.0733022872    1.6044465526    0.0103146542
 C    0.0306997080    0.1025687572    0.0199357198
 O   -1.0941152423   -0.5973275722   -0.4434788592
 C    1.3486144921   -0.6286842678   -0.2220650919
 O    2.5329270723    0.1222928939   -0.0693677211
 C    2.8087562187    0.0976629581    1.3213586641
 O    1.5562439739    0.0745811809    1.9847475366
 C    0.7047277095   -0.6628258475    1.1373196050
 H    0.8226239347    2.0660746225    0.4251816531
 H   -0.1998591264    1.9723961992   -1.0148904668
 H   -0.9390784809    1.9229891534    0.5985193732
 H   -1.1852684734   -0.4195315799   -1.3869098076
 H    1.3999112840   -1.4784014703   -0.8954232215
 H    3.3975003734   -0.7986249144    1.5800395551
 H    3.3459886542    1.0082020432    1.5985426406
 H    0.2270351294   -1.5345384489    1.5715331463