19

 O    0.5874709211    0.1292213033    0.9028897903
 C    0.7337019806    0.8146157226   -0.0795605049
 C    1.3262026060    2.1939045975   -0.1018752845
 C    0.5502706737    3.3412636766   -0.8199789648
 C    1.0918653773    4.3068406746    0.2699903332
 C    1.4196797251    3.0905740924    1.1646731145
 C    0.6022741596    2.7936173231    2.4433313035
 C    1.9826284501    2.6515585483    3.1087098134
 O    2.6488026938    3.0810191302    1.8973554681
 H    0.4180467604    0.4401794355   -1.0824958225
 H    2.3327602416    2.1101816143   -0.5343299092
 H    0.8140575334    3.5515752825   -1.8572160968
 H   -0.5329105214    3.2059265349   -0.7525656632
 H    2.0174993447    4.7957620294   -0.0469702015
 H    0.4097025272    5.0578388881    0.6756785232
 H    0.0248825881    3.6541722606    2.7883342929
 H   -0.0183268806    1.9008282060    2.4327715525
 H    2.1997496333    3.3174967146    3.9505060188
 H    2.2574174560    1.6244946055    3.3741084970