18

 C    0.2569312667    1.4016683133   -0.1118728545
 C   -0.0272567029   -0.0619938520    0.0245921763
 C   -1.3990140907   -0.7401510602    0.1512566088
 C   -0.7311350746   -1.8412045899    1.0678934074
 O   -0.7928299631   -3.1799807469    0.6757583213
 C    0.6152593091   -1.1149826771    0.9020380678
 N    0.8633524227   -1.0907211329   -0.5330544700
 C    2.1135906952   -0.8620478543   -1.0803555259
 O    3.1506993801   -1.3177675784   -0.6612826041
 H    1.3196202110    1.6179499488    0.0358547710
 H   -0.0308583482    1.7714980194   -1.1025770302
 H   -0.3146440419    1.9672111748    0.6304644527
 H   -2.1299252325   -0.1340367423    0.6918719455
 H   -1.8374383315   -1.1015589649   -0.7816754788
 H   -1.1050749319   -1.7901723571    2.0926984547
 H   -0.3178584528   -3.2445578285   -0.1625826491
 H    1.4557781252   -1.0482168284    1.5824082643
 H    2.0475457200   -0.2721318234   -2.0145346272