15

 N    0.1145483322    1.3998125584   -0.1487655006
 C   -0.0075046334    0.0116481618   -0.0689169808
 C   -1.1497523153   -0.7888093350   -0.0952179896
 O   -2.4007333590   -0.2371776880   -0.1216311995
 C   -0.7434925765   -2.1303643430   -0.0700169449
 C    0.6496814881   -2.1424304806   -0.0216746527
 N    1.0675806885   -0.8195853105   -0.0236871428
 C    1.5815188858   -3.2359514282    0.0350728398
 O    1.2880015415   -4.4171754859    0.0213437480
 H    0.5532867696    1.8149171658    0.6672019062
 H   -0.7974389199    1.8221033951   -0.2763372143
 H   -3.0467119260   -0.9364996092   -0.2549784496
 H   -1.3634005114   -3.0138837098   -0.0610896401
 H    2.0253518864   -0.5162890934   -0.0853654367
 H    2.6499528994   -2.9113709175    0.0946542377