16

 N   -0.0343828108    1.4592580527    0.0160398441
 C    0.0188047162    0.0599304478   -0.0157708854
 C   -1.0300253459   -0.8211736189   -0.0387902907
 O   -0.5665513838   -2.1469365213    0.0400420557
 C    0.7502629025   -2.0172342493    0.0933068929
 C    1.2056708490   -0.7492057114    0.0598517727
 C    2.6974429280   -0.7986622291    0.2355194919
 C    2.9244378115   -2.3536145333    0.1497190278
 O    1.6233705070   -3.0269639608    0.2253795130
 H    0.6991537553    1.8891941047   -0.5328378223
 H   -0.9303476668    1.8267999599   -0.2775138351
 H   -2.0973178928   -0.7119696203   -0.1064880621
 H    3.2763461799   -0.2901829208   -0.5434409239
 H    3.0322471889   -0.3957259299    1.1997311255
 H    3.3750744699   -2.6362394779   -0.8060593342
 H    3.5355324620   -2.7475161919    0.9633115903