21

 C   -0.1692328414    1.5273292477    0.0767104789
 C    0.0209271073    0.0132730610    0.0139243590
 O    0.7850683920   -0.3585893414   -1.1567625167
 C    2.0444256002   -0.9266359449   -0.7769693317
 C    1.7946819695   -1.5621361062    0.5946287802
 C    2.8784051861   -1.6102647839    1.6886161640
 C    2.1305252922   -1.1770534180    2.9855271993
 C    0.9806623708   -0.3418212338    2.4494971643
 C    0.7970586128   -0.5743659552    1.1534656229
 H    0.7947101790    2.0338917980    0.1769482936
 H   -0.6597469317    1.8838281596   -0.8330040904
 H   -0.7934847709    1.7983384903    0.9349712719
 H   -0.9633178864   -0.4671473534   -0.0908157643
 H    2.3339470333   -1.6283713870   -1.5645122640
 H    2.8204542842   -0.1473015212   -0.7030734324
 H    1.3248962466   -2.5463392449    0.4521807637
 H    3.3628081056   -2.5855547789    1.7819292420
 H    3.6585393825   -0.8742236042    1.4618388847
 H    1.7640342801   -2.0475431985    3.5488675106
 H    2.7742341490   -0.6173260668    3.6732768872
 H    0.4135709189    0.3465425819    3.0663687770