19

 N    0.2219305756    1.3953059766    0.1367179224
 C    0.0390810159   -0.0025008102    0.0441128588
 C   -1.0720613897   -0.8177049080    0.1621112553
 C   -0.6353837838   -2.1764745635    0.0733820139
 C    0.7262608238   -2.1456564720   -0.1056307249
 C    1.9220846442   -3.0230475519   -0.3273348327
 C    3.0992676836   -2.0539727104   -0.0157379804
 C    2.5470935660   -0.6349840626   -0.3019532395
 N    1.1229061341   -0.8277973506   -0.1042215613
 H    0.3432164483    1.8306255192   -0.7741028104
 H   -0.5854074670    1.8262737141    0.5707524826
 H   -2.0857265764   -0.4734337439    0.3072223019
 H   -1.2572846584   -3.0565714722    0.1334541511
 H    1.9400221460   -3.9071801837    0.3160981122
 H    1.9769710610   -3.3831499559   -1.3641706887
 H    3.3613915553   -2.1289787565    1.0437001459
 H    3.9980682350   -2.2705845053   -0.5974820994
 H    2.9396621428    0.1286142993    0.3748188165
 H    2.7634233439   -0.3160184423   -1.3310228434