16

 N    0.0084062618   -1.1325914183   -0.3164562007
 C    0.0004660198    0.0102622926   -0.1402289007
 C   -0.0419402639    1.4464692221    0.0824436440
 C   -0.5262372154    2.3227594192   -1.1061015235
 C    0.8047831933    3.1054292113   -0.9593857192
 N    1.2760299007    2.2127464779    0.1494119471
 C    0.9003306897    2.7255494022    1.5074493067
 C   -0.4248955942    1.9196540596    1.5123321968
 H   -0.6340979867    1.7759525659   -2.0435395494
 H   -1.4464638534    2.8775095824   -0.9117807736
 H    1.4648176124    3.0480462448   -1.8287978983
 H    0.7103049598    4.1556771653   -0.6648239812
 H    1.6234027012    2.4172106910    2.2669950554
 H    0.7962240900    3.8146136818    1.5500595883
 H   -1.3505922708    2.4965219377    1.5636483770
 H   -0.4681234543    1.1153122744    2.2475765115