17

 O   -0.1311327403    1.4194060440    0.0686038255
 C    0.0127324658    0.0474134790    0.0491069818
 C   -0.0817050436   -0.8447734920   -1.1699601295
 C    0.9689640470   -1.9416937773   -1.0919186899
 C    0.6929758633   -2.8295997180    0.1002357558
 C    1.7857875086   -1.7754604077    0.1791035848
 C    0.8640657761   -0.8425038337    1.0034844996
 C   -0.2682913314   -1.9293805708    0.9246133511
 C   -1.0739990079   -1.0006935631   -0.0159574069
 H    0.6058984692    1.8078745515   -0.4164670015
 H   -0.4286555738   -0.4293814340   -2.1073928256
 H    1.4300237606   -2.3553109518   -1.9793756154
 H    0.7592132686   -3.9103722964    0.0899695707
 H    2.8619788424   -1.8855749422    0.2359872709
 H    1.1862957731   -0.4408586855    1.9609487001
 H   -0.7292255744   -2.3142227416    1.8308034602
 H   -2.1469953134   -0.9019367605   -0.1255503116