18

 C   -0.0101720380    1.5251857667    0.0682065481
 C    0.0031608578    0.0267137598   -0.0199061743
 C   -0.0398849228   -0.6577540388   -1.1617207665
 C    0.0165541019   -2.1568770457   -1.2389164354
 O    0.3428395949   -2.7735404125   -0.0079676578
 C   -0.3535790425   -2.2113871448    1.0762959432
 C    0.0613076533   -0.7404053756    1.2990276039
 C    1.3945331487   -0.6358641685    1.9053320967
 N    2.4425496223   -0.5405421772    2.3835531690
 H    0.8808146333    1.8936803154    0.5911510462
 H   -0.0372931003    1.9824162877   -0.9238453183
 H   -0.8794410474    1.8825603210    0.6353212270
 H   -0.1254051068   -0.1328919083   -2.1103251429
 H   -0.9457975951   -2.5460700899   -1.6203746835
 H    0.7888083400   -2.4725863606   -1.9495903656
 H   -1.4422123277   -2.2358193350    0.9082358072
 H   -0.1217917475   -2.8210017734    1.9524969087
 H   -0.6471087440   -0.2877036803    2.0071072644