22

 C    0.1448769767    1.4821015725   -0.1148503363
 C    0.1026656564   -0.0409015340    0.0488989359
 C   -1.3132518801   -0.5965418248    0.0747447436
 C   -2.1507607771   -0.5915058225   -1.2332924545
 N   -2.6376464091   -1.9430992431   -0.8912246174
 C   -2.8380923066   -2.9088260996   -1.9437259439
 C   -3.5602818525   -4.1441333186   -1.4289213734
 O   -3.3807618837   -5.2611721245   -1.8375869264
 C   -1.5206316279   -2.1322558243    0.0600003251
 H    1.1745339627    1.8517095338   -0.1312570724
 H   -0.3348026249    1.7944125267   -1.0490070008
 H   -0.3767156682    1.9833905551    0.7079006371
 H    0.6628024537   -0.5154683161   -0.7675269264
 H    0.6163887731   -0.3252878663    0.9766849126
 H   -1.8839519686   -0.1419010654    0.8907816375
 H   -2.9372435466    0.1610772702   -1.3537316095
 H   -1.5040004285   -0.5754697569   -2.1271311429
 H   -3.4993678262   -2.4608249674   -2.7013685018
 H   -1.9146274831   -3.2248270109   -2.4619720786
 H   -4.3005708381   -3.9180458846   -0.6281760125
 H   -0.6593140655   -2.6569013577   -0.3878609635
 H   -1.7887840459   -2.6323713517    0.9965435186