15

 C   -0.0102866792    1.4932881813    0.0745502449
 C   -0.0170106717    0.0057202317   -0.0455953554
 C   -0.0353381115   -0.8157125052   -1.1487356509
 C   -0.0181027083   -2.1692319800   -0.6965977156
 C    0.0000179172   -2.1384230242    0.6788868221
 N   -0.0335389947   -3.1403829886    1.6752969875
 N   -0.0000868123   -0.8175462498    1.0619149564
 H    0.8875924730    1.8673789646    0.5836739217
 H   -0.0351582189    1.9435604308   -0.9206835162
 H   -0.8785357863    1.8731301126    0.6289680522
 H   -0.0450022685   -0.4788020258   -2.1748040538
 H   -0.0054875167   -3.0596194437   -1.3070433787
 H   -0.4224087741   -3.9971245682    1.3000163909
 H    0.8941346316   -3.3609946876    2.0284106196
 H   -0.0699128796   -0.5200238677    2.0201539353