23

 C    0.2044805003    1.6745749931   -0.0834294184
 C    0.0047105660    0.1666083359    0.0131063276
 O    0.5708491048   -0.3780343317   -1.1848576873
 C    0.6659314994   -1.7896810985   -1.2951602312
 C   -0.6394971148   -2.5885837452   -1.0877710177
 C   -0.8547657396   -3.2345846448    0.2940449678
 C   -1.0861951092   -2.2728359089    1.4815927847
 C    0.1441679254   -1.4941400470    1.8860474301
 C    0.6230334991   -0.4223436331    1.2538105221
 H    1.2716468329    1.9177765866   -0.0761196452
 H   -0.2262470422    2.0538285077   -1.0138267570
 H   -0.2755463082    2.1798975863    0.7599074709
 H   -1.0753433911   -0.0435394125    0.0191493609
 H    1.0187126040   -1.9371858100   -2.3207053595
 H    1.4429857694   -2.1842776575   -0.6240791402
 H   -1.4919382092   -1.9514861543   -1.3552602998
 H   -0.6396470058   -3.4035242509   -1.8220110218
 H   -1.7232540119   -3.9014058625    0.2251519578
 H    0.0054841373   -3.8783961264    0.5204229162
 H   -1.9080731510   -1.5925106959    1.2277121165
 H   -1.4320242551   -2.8607108860    2.3385383759
 H    0.6933284163   -1.8804162976    2.7429537016
 H    1.5467973529    0.0389404832    1.5984362861