23

 C    0.1591448119    1.6667543800   -0.1257946116
 C    0.0062199594    0.1427245965   -0.1864596024
 C    0.6182662207   -0.4635902913   -1.4161210322
 C    0.4056764304   -0.1170625312   -2.9177384604
 C    1.6119079663   -1.0702732018   -2.7870924589
 O    2.0788715251   -0.2475556474   -1.6490491641
 C    0.8324531397   -1.9830989463   -1.7843926208
 C    1.6935099702   -2.7849439768   -0.8103648010
 C   -0.3460595960   -2.8291341669   -2.2639491781
 H    1.2139572027    1.9486734878   -0.1811954429
 H   -0.3608009357    2.1503079153   -0.9589177960
 H   -0.2559732754    2.0638272398    0.8050445910
 H    0.4735887441   -0.3179697451    0.6926291650
 H   -1.0546312382   -0.1376527825   -0.1598885151
 H   -0.4992570861   -0.4467129014   -3.4283258952
 H    0.6812212671    0.9041975935   -3.1815233317
 H    2.3568806270   -1.3462199637   -3.5355704763
 H    2.5440157276   -2.1994865949   -0.4622700515
 H    1.1033071033   -3.0999610858    0.0582351541
 H    2.0671263132   -3.6965890360   -1.2908811995
 H    0.0188240926   -3.7349132767   -2.7616205553
 H   -0.9470621314   -3.1564821961   -1.4078079714
 H   -1.0135232186   -2.3178331290   -2.9588570758