18

 C    0.0298808602    1.5979079924   -0.1285037075
 C    0.0243133113    0.0726450620    0.0088105305
 C   -1.3843544487   -0.5437640488    0.1002188784
 C   -1.4123619325   -2.0866501419    0.0003106369
 C   -2.2155919837   -2.5351095071    1.1934123894
 C   -2.5927363275   -1.5219072834    1.9806572494
 C   -2.1049001955   -0.2360628453    1.4318363921
 O   -2.2419018559    0.8584606238    1.9330907415
 H    1.0549994871    1.9787931081   -0.1743145291
 H   -0.4817478109    1.9072910929   -1.0472612278
 H   -0.4827260967    2.0672584248    0.7128580139
 H    0.5369782495   -0.3754055955   -0.8518368734
 H    0.6004789422   -0.2259984214    0.8947229215
 H   -2.0024083946   -0.1097256824   -0.6965614008
 H   -1.8541356953   -2.4453912209   -0.9370249134
 H   -0.4015804792   -2.5143613176    0.0390343423
 H   -2.4373348445   -3.5823400613    1.3725468754
 H   -3.1578990452   -1.5805744184    2.9020000409