16

 O   -0.0612108992    1.4339662151    0.0102352718
 C    0.0177306470    0.0161339996    0.0019551418
 C   -1.4020811211   -0.5337319040    0.0125374468
 C   -1.4437848379   -2.0633934771    0.0048042460
 C   -2.8635963449   -2.6132598880    0.0154071936
 O   -2.7846541202   -4.0310920098    0.0071337344
 H    0.8339706799    1.7847299109    0.0033259767
 H    0.5503129016   -0.3486285655   -0.8918527763
 H    0.5671637877   -0.3580403010    0.8815629314
 H   -1.9169497798   -0.1418740030    0.8985787566
 H   -1.9336713310   -0.1325210452   -0.8593288083
 H   -0.9289287612   -2.4552519070   -0.8812438311
 H   -0.9121820122   -2.4646035349    0.8766634766
 H   -3.3961658119   -2.2484941667    0.9092221853
 H   -3.4130423090   -2.2390891439   -0.8641933677
 H   -3.6798369075   -4.3818553496    0.0139047526