16

 C   -0.0326926904    0.9994247271   -0.4243541990
 C    0.2376854909   -0.2256371567    0.4469177820
 O    0.7841521588    0.1364925886    1.7105335337
 C   -1.0042031652   -1.1063034740    0.6447030698
 C   -1.4474678109   -1.8653197568   -0.5805245453
 O   -0.8876827670   -1.8548471236   -1.6538066213
 C   -2.7089441389   -2.7337863098   -0.4448415866
 O   -3.3669806599   -2.8003738393    0.5590218686
 H    0.8740546545    1.6037940621   -0.5099080078
 H   -0.3518048495    0.7017491072   -1.4262024504
 H   -0.8209109548    1.6241842228    0.0162768351
 H    1.0139970780   -0.8343077860   -0.0283276392
 H    0.1913025740    0.7787630668    2.1163818637
 H   -0.8071805593   -1.8423404848    1.4355517631
 H   -1.8602515904   -0.5239059311    1.0142156130
 H   -2.9491865497   -3.2866822225   -1.3776532992