22

 C   -0.0245459779    1.4716942713    0.1412220122
 N    0.0014564702    0.0203189171   -0.0368188671
 C    0.6305224283   -0.4792907355   -1.2619302970
 C   -0.0826926037    0.0592510665   -2.5136651902
 C    2.0639727633   -0.0699862397   -1.3128484779
 N    3.1769839133    0.2457917708   -1.2861969363
 C    0.6067388754   -2.0454618357   -1.2071514377
 C   -0.8163976298   -2.6033033346   -1.2330489601
 N    1.3646640868   -2.5819178636   -2.3360868242
 H    0.9611418477    1.9534260929    0.0418870181
 H   -0.7044184155    1.9286075332   -0.5827578396
 H   -0.4137763184    1.6887369270    1.1393144588
 H    0.4672244737   -0.4028647732    0.7601433266
 H    0.1319984414    1.1177180376   -2.6736097123
 H    0.2563734972   -0.5020549820   -3.3858095935
 H   -1.1615224906   -0.0639693580   -2.3952113339
 H    1.0554254932   -2.3094268687   -0.2316570740
 H   -1.2653597141   -2.4787542200   -2.2222379029
 H   -0.7992109353   -3.6743755004   -1.0052184795
 H   -1.4396079557   -2.1011873105   -0.4914109583
 H    2.3582998340   -2.4055369874   -2.2213485786
 H    1.2443484464   -3.5879902971   -2.3842860025