19

 O   -0.1413857389    1.5158158752   -0.3005753603
 C    0.0221406109    0.1663935029    0.1106158618
 C   -1.3517574833   -0.4766494874    0.0465301077
 C   -1.8643693519   -0.7697401770   -1.3779502504
 O   -1.7265789847   -2.1947580872   -1.1800393066
 C   -1.4508114964   -2.0155441864    0.2232463993
 C   -0.2342434625   -2.8181188294    0.6981888259
 C   -0.4850244402   -4.2538414856    0.7078935520
 C   -0.7100871121   -5.4339614542    0.7222617242
 H    0.7256844981    1.9305138084   -0.3322030000
 H    0.7224158569   -0.3657461952   -0.5519985437
 H    0.4240950752    0.1060465992    1.1349977800
 H   -2.0360966163    0.0963463270    0.6760577327
 H   -2.9065746417   -0.4822823495   -1.5636037251
 H   -1.2399198000   -0.4033226651   -2.2003092544
 H   -2.3196652994   -2.3084055778    0.8291405832
 H    0.6228510736   -2.5976668074    0.0521630712
 H    0.0299565400   -2.4844351866    1.7108853151
 H   -0.9036859973   -6.4777789341    0.7256609873