18

 O   -0.1093276483    1.3967257081   -0.4038015511
 C   -0.0807219920    0.0351276555   -0.0880050830
 C   -0.3998043347   -0.9931448673   -1.1425334814
 C   -1.3855235081   -0.6841512315   -0.0255580112
 C   -1.5619517814   -1.6344791253    1.1437605418
 C   -0.2901230601   -2.3620459680    1.5166421043
 N   -0.3109859973   -3.5618420884    1.9197170156
 O    0.8922781707   -1.6853824271    1.3820907426
 C    0.8909659385   -0.3007110849    1.0285231107
 H    0.6612973016    1.5954260100   -0.9479670061
 H   -0.6501787939   -0.6094292185   -2.1249872731
 H    0.1267934169   -1.9414907753   -1.1384437769
 H   -2.2644822453   -0.1145177162   -0.3077156752
 H   -1.8989100064   -1.0598335882    2.0180790038
 H   -2.3218895063   -2.3951114821    0.9543467784
 H    0.6376368951   -3.8723076470    2.1415335155
 H    1.9233396538   -0.0804793070    0.7363543923
 H    0.6511433771    0.3174888832    1.9048546431