17

 O    0.8252828200   -0.4023522862   -0.0532937977
 C    0.4150445812    0.6608314114   -0.4297396619
 C    0.9542257936    2.0035836829    0.0713726375
 C    1.0189459644    3.0030295913   -0.9845263431
 C    1.0555236384    3.7886592865   -1.8976959177
 C    1.1240557383    4.7599237491   -2.9677072516
 C    0.8974876252    6.2634633610   -2.6376971079
 O    2.1131491184    6.6343054852   -3.3116741394
 C    2.5186823533    5.2599826319   -3.4428389733
 H   -0.4092343607    0.7482263795   -1.1704753309
 H    0.2717518643    2.3383124499    0.8681633239
 H    1.9270861487    1.8271311180    0.5417931084
 H    0.5075301636    4.4419981983   -3.8131886010
 H    0.0146827965    6.7336803242   -3.0834560987
 H    0.9318592944    6.4872636209   -1.5642358800
 H    3.3351360728    4.9998691654   -2.7579076920
 H    2.8045217276    5.0067568307   -4.4690587448