15

 O   -0.3819408699    1.2284851709    0.0473612468
 C   -0.0310652294   -0.0648034510   -0.0790923286
 C    0.6040975551   -0.6674246451   -1.1109216189
 O    0.7353689816   -2.0071888097   -0.7631603668
 C    0.1659683999   -2.1006305284    0.4484159986
 N   -0.3158748023   -0.9833869192    0.9154352880
 N    0.2319346795   -3.3265102282    1.0756363766
 C   -0.8793700658   -3.7331382856    1.9235791449
 C   -0.6332296651   -4.4237880255    0.6256978891
 H   -0.8008370789    1.3157774195    0.9118608250
 H    0.9953204379   -0.3643918750   -2.0631084321
 H   -0.5918810719   -4.2079760805    2.8560789449
 H   -1.7244886449   -3.0542672713    1.9849198982
 H   -1.3166370499   -4.2174859009   -0.1931428351
 H   -0.1569285459   -5.3982341699    0.6006097592