18

 C    0.1243071260    1.0783670765    0.3192661881
 O   -0.4700558004   -0.0279042414   -0.3349684765
 C    0.3194364611   -0.5430073869   -1.3509298725
 C    1.4160833668   -1.5414544334   -1.0920949045
 N    1.0854002100   -2.4305133033    0.0235697144
 C   -0.1485090352   -2.7939253790   -0.5532356894
 O   -1.0317250801   -3.5029584086   -0.1688525719
 C    0.1227151589   -1.9707518133   -1.8143529264
 C   -0.1753900362   -2.3859100432   -3.2247828477
 H    1.0837889262    0.8078606014    0.7834078032
 H    0.3000296719    1.9117585733   -0.3770150285
 H   -0.5725749567    1.4031601383    1.0943135978
 H    0.5221492188    0.1607527984   -2.1643823382
 H    2.4251903167   -1.4922801797   -1.4819231074
 H    1.1437324914   -2.1357130907    0.9923510015
 H   -1.2574552912   -2.4373011637   -3.3842523725
 H    0.2370784459   -1.6748354102   -3.9468454313
 H    0.2416724863   -3.3738926044   -3.4432511682