15

 C   -0.1781363694    1.5392512934   -0.0817789521
 C    0.0600170977    0.0560584373    0.0870319752
 O    1.1074594670   -0.5021906794   -0.7782331903
 C    1.6589988853   -1.2011759541    0.3209548634
 C    2.2413672387   -0.2594526948    1.3506936474
 C    2.8646401315    0.9919092975    1.0154190520
 N    3.3963100356    1.9887606373    0.7668358245
 C    0.7399171649   -0.5508441212    1.3192192442
 H    0.7165408881    2.1276136969    0.1235212841
 H   -0.5008681024    1.7447932773   -1.1072253142
 H   -0.9778366966    1.8604059930    0.5942566460
 H   -0.8633231888   -0.5032411094   -0.1107303515
 H    2.0069070178   -2.2168812156    0.1733954760
 H    2.7303846415   -0.7757628763    2.1729685731
 H    0.2385747891   -0.9455397119    2.1922862422