15

 O   -0.0482883128    1.4351325590    0.0078026125
 C    0.0239842448    0.0184409645    0.0015440486
 C   -1.3753556496   -0.5141877684    0.0118102100
 C   -2.5288544995    0.2352758743    0.0233619838
 N   -3.5577446628   -0.6552394341    0.0295106780
 N   -3.1713875270   -1.9277791405    0.0228677003
 C   -1.8316748902   -1.8640596469    0.0119571385
 C   -1.0008537876   -3.0762237398    0.0018537855
 O   -1.4054151482   -4.2136608445    0.0019343640
 H    0.8481895308    1.7824504974    0.0020228430
 H    0.5603830281   -0.3478877008   -0.8888470678
 H    0.5760975768   -0.3549921340    0.8792643249
 H   -2.6822296788    1.3008953453    0.0276101557
 H   -4.5436677888   -0.4485764345    0.0382397415
 H    0.0928357347   -2.8592723272   -0.0071668086