22

 C    0.7429442594   -0.3651139860   -1.3065221879
 C    0.0508817398    0.0350563983    0.0036053957
 C   -0.0074668953    1.5599674547    0.1722108629
 C   -1.3572030907   -0.5500235673    0.0627931080
 C   -1.6444998408   -2.0689047426    0.0963542810
 C   -0.8838474741   -2.5642165687    1.3563702789
 C   -1.8252974850   -1.6521959025    2.1407214580
 C   -2.8332147495   -1.6702916190    1.0561417393
 N   -2.1228772051   -0.3977981135    1.3524068307
 H    1.7542754667    0.0507271539   -1.3578994226
 H    0.8237979322   -1.4526745541   -1.4072874737
 H    0.1869554742    0.0100495376   -2.1741735578
 H    0.6335229532   -0.3710751367    0.8393797045
 H   -0.5390112654    2.0250720116   -0.6667737921
 H   -0.5334374674    1.8301941569    1.0918066994
 H    0.9985687925    1.9904574823    0.2081927598
 H   -1.9762061306   -0.0754763828   -0.7097908699
 H   -1.6886060411   -2.6766795638   -0.8054146520
 H   -1.1151591540   -3.6119437683    1.5664710515
 H    0.1981335022   -2.4109205407    1.4132473556
 H   -1.9693674161   -1.5777869164    3.2103493619
 H   -3.9089553252   -1.7820423631    1.0312359290