17

 C    0.0969792048    1.5224853754   -0.2173362175
 C   -0.1108542142    0.0276892813    0.0681456158
 C    0.6742877487   -0.4204227759    1.2670954446
 C    2.0790250614   -0.9335526497    1.2223327098
 N    1.0399836672   -1.8740275345    1.6273914625
 C    0.8098875030   -1.5752911228    3.0864221431
 C    0.3202213301   -0.1640318083    2.7033553359
 O   -0.3260191858    0.6813782181    3.2549979340
 H    1.1474077339    1.7420306991   -0.4343917467
 H   -0.4996802537    1.8381602205   -1.0778019728
 H   -0.2027695630    2.1234806682    0.6456561024
 H   -1.1749321903   -0.1698988259    0.2431673149
 H    0.1859067669   -0.5759622416   -0.7968428057
 H    2.4791402514   -1.1198161902    0.2293837000
 H    2.8151221653   -0.6053300325    1.9539158864
 H   -0.0032856721   -2.1828038981    3.4922474799
 H    1.6986887064   -1.6788516030    3.7153896833