19

 C   -0.3857890483    1.5000332797    0.1955202166
 C    0.0346280309    0.0395216743    0.0531804348
 N    1.2938953423   -0.1553194359   -0.7236111392
 C    1.8475168015   -1.0907366870    0.2929009138
 C    0.7373870228   -0.6564099857    1.2495210610
 C    0.8812635285   -0.1130224330    2.6381651123
 C    0.1262863023   -1.3994112428    2.3911066869
 C   -1.0838880690   -0.7725077113   -0.4573197455
 N   -1.9482500264   -1.4166134757   -0.8774349446
 H    0.4613182004    2.0791433363    0.5682821030
 H   -0.6878176373    1.9054447304   -0.7744368251
 H   -1.2297592240    1.6027875028    0.8849471871
 H    1.1625567454   -0.5486246522   -1.6492705371
 H    1.7899895520   -2.1519242066    0.0174460796
 H    2.8761048493   -0.8537585589    0.5849130350
 H    1.8626891019   -0.1685351365    3.0984598922
 H    0.3106804800    0.7686117662    2.9104924969
 H   -0.9549277373   -1.3862485725    2.4853782978
 H    0.5867936648   -2.3363131215    2.6875663145