17

 C   -0.0925839320    1.4718467110    0.1517937703
 C   -0.0185000147   -0.0204935604    0.0746139717
 N    0.0136344990   -0.6447373122   -1.1001329734
 N    0.0880898740   -1.9552040405   -0.7912306744
 C    0.1059959556   -2.1853407035    0.5415863023
 C    0.0425156466   -0.9492682897    1.1530594100
 C   -0.0079068518   -0.6371841021    2.6212710961
 C   -1.4287450204   -0.2671677971    3.0218149386
 O   -1.7680867267    0.8108380098    3.4350315382
 H    0.8175484755    1.8935948992    0.5945757519
 H   -0.2102659023    1.8895472241   -0.8499246278
 H   -0.9312245029    1.8014275853    0.7734827340
 H    0.1282143181   -2.6297009113   -1.5357550031
 H    0.1696285015   -3.1826335116    0.9490379355
 H    0.2920363926   -1.5178624883    3.2027772320
 H    0.6501959244    0.1948012436    2.8888176135
 H   -2.1673871766   -1.0868635762    2.8656234545