16

 O    0.2351856569    1.3300104158    0.3824692102
 C    0.0760369312   -0.0487580430    0.1602215438
 C   -1.3949868403   -0.5171878244   -0.0462272511
 C   -2.5330896159    0.4944114068   -0.2995344580
 C   -2.9123028020    0.1955766425   -1.7436419511
 C   -2.0227896587   -0.6052911101   -2.3315919164
 N   -1.0113053417   -1.0078158545   -1.4089022369
 C    0.2770376454   -0.4513706262   -1.3248908097
 O    1.1330460053   -0.2525524073   -2.1399828072
 H    1.0174477420    1.6113618611   -0.1071984613
 H    0.6360108307   -0.6486984038    0.8896767259
 H   -1.7020026584   -1.3330723954    0.6120835665
 H   -3.3621337475    0.3480814652    0.3980997743
 H   -2.1901369265    1.5305701060   -0.1881126509
 H   -3.7765696382    0.6236198709   -2.2337997030
 H   -1.9818134023   -0.9481012536   -3.3554230950