23

 C   -0.2104931434    1.5300030471    0.1575600878
 C   -0.0252886526    0.0260222184    0.0308561902
 C    1.1056931544   -0.4106438765   -0.9565784380
 C    1.9195893478   -1.0218261725    0.2173582017
 C    0.7551867109   -0.6970505470    1.1975932112
 O    1.0868780256    0.1594912967    2.2726334157
 C   -0.1158753305   -1.8941776526    1.6162557587
 C   -1.0258562595   -2.1706635931    0.4057886017
 C   -1.3359037976   -0.7623444490   -0.1377617436
 H    0.7426917183    2.0332078182    0.3442770119
 H   -0.6386947908    1.9428592743   -0.7635996537
 H   -0.8810155769    1.7796822796    0.9859743296
 H    0.7856405980   -1.1345695489   -1.7110721085
 H    1.5961100358    0.4195055886   -1.4707582319
 H    2.1845097039   -2.0792511745    0.1219518314
 H    2.8194018164   -0.4535391558    0.4643598725
 H    1.6061480685   -0.3459154378    2.9072226480
 H    0.4716626561   -2.7662532762    1.9253069362
 H   -0.7215640500   -1.5759679646    2.4731595156
 H   -0.4897308011   -2.7612385991   -0.3467678836
 H   -1.9245407337   -2.7346632938    0.6706839067
 H   -2.1229106063   -0.2980863770    0.4704569337
 H   -1.6896791833   -0.7701180345   -1.1744134132