15

 C   -0.0566030336    1.3317697449   -0.0274871551
 O    0.2633706075   -0.0427496172    0.0656379708
 C    0.7390711493   -0.6148323597   -1.1472235511
 C    1.2944095892   -1.9928714423   -0.7535573112
 O    2.3023050735   -1.8623607468    0.2206765494
 C   -0.3043616522   -0.7181472118   -2.1699203209
 C   -1.1626905405   -0.8286629766   -3.0042495090
 H    0.8178264744    1.9277449207   -0.3290907068
 H   -0.8674132186    1.5074588422   -0.7462997028
 H   -0.3812537097    1.6510135644    0.9652563572
 H    1.5722918306   -0.0051171700   -1.5341941568
 H    0.4565718691   -2.6157193487   -0.4059328661
 H    1.7378146335   -2.4717998948   -1.6305904303
 H    1.9208813831   -1.3144855531    0.9176615511
 H   -1.9172947556   -0.9207497311   -3.7462556182