19

 O   -0.1985090797    0.0441385556   -0.2720822421
 C   -0.0164144405    1.2398625107   -0.2651772513
 C    1.2743153260    1.8995345722    0.0467331303
 C    1.2741912870    3.2409062982   -0.0044425119
 C    2.4194985784    4.1923365431    0.2346641301
 O    3.2742976418    3.8938946134    1.3124766560
 C    4.1233410019    2.7710233238    1.1426060849
 C    3.4233138474    1.4409510563    1.4171312362
 C    2.4445229574    0.9894009410    0.3278559909
 H   -0.8429962385    1.9470267019   -0.5022754849
 H    0.3374531736    3.7235325716   -0.2861778657
 H    2.9987373464    4.2844346549   -0.7045138559
 H    2.0155112993    5.1865157869    0.4509274259
 H    4.5641661837    2.7758494219    0.1308566828
 H    4.9389403126    2.9144589658    1.8587558130
 H    4.1919213647    0.6665461094    1.5323356070
 H    2.9053017253    1.5228475374    2.3794973342
 H    2.0384995284    0.0038563516    0.5738063892
 H    2.9990135346    0.8491188642   -0.6125695789