16

 C   -0.0528144391    1.5445841071    0.0462202571
 C    0.1469227937    0.0577264965   -0.0332731571
 O   -0.5550381284   -0.7550457245    0.9135886510
 C    0.8752313057   -0.7784930523    0.9433251220
 C    1.5192673450   -1.9711993190    0.2420623437
 C    1.1070571087   -1.8382849185   -1.2226917278
 O   -0.2973970987   -1.9210123076   -1.4676002399
 C    0.2910089602   -0.6229534161   -1.3932368405
 H    0.7225560888    2.0735687258   -0.5187511751
 H   -1.0251843278    1.8279681043   -0.3713235551
 H   -0.0167195068    1.8816643163    1.0849074398
 H    1.3238233152   -0.3764773485    1.8503270611
 H    2.6104194337   -1.9073216390    0.3272010938
 H    1.2033421395   -2.9259082111    0.6742544372
 H    1.7387108847   -2.2515473052   -2.0063354079
 H    0.2611031754   -0.0294422981   -2.3033086022