17

 C   -0.1180469158   -1.2532567049    0.1871302330
 C   -0.0525682669   -0.0573922799    0.0800066149
 C    0.0092222501    1.3980342885   -0.0481561600
 N   -0.5910032150    2.0925171402    1.1121300478
 C    0.4686903702    2.6341743691    1.8329168722
 N    1.6147090414    2.6507225752    1.2733316929
 C    1.4498574259    1.9922966558   -0.0034437949
 C    2.6309414274    1.3306096807   -0.6485223886
 C    2.0850807147    2.6173653589   -1.2199067449
 H   -0.1679111095   -2.3100520448    0.2820495145
 H   -0.5059518656    1.6953651165   -0.9685124705
 H   -1.3075034495    1.5935198803    1.6208456993
 H    0.2709624951    3.0631345003    2.8105796290
 H    3.5653352713    1.3723885547   -0.1011656518
 H    2.4556555683    0.4075636848   -1.1902928134
 H    1.5384522728    2.5739761529   -2.1569697931
 H    2.6496263052    3.5283361716   -1.0588125265