20

 C    0.3020511169    1.4917459628    0.1866766251
 C   -0.0251401422    0.0198603464   -0.0843131555
 C    0.5680431846   -0.5117887200   -1.3941626768
 C    0.0254201831    0.1636935132   -2.6478297432
 O    2.0383799342   -0.4566372591   -1.3617563627
 C    2.1708798843   -1.8947539688   -1.4112137450
 C    0.6727755950   -2.0241873609   -1.4666131943
 N   -0.2038514342   -2.9282608220   -1.5446924661
 O    0.3908363720   -4.2034940955   -1.5859976792
 H    1.3825441397    1.6554127017    0.1427543339
 H   -0.1737852897    2.1598086999   -0.5374752186
 H   -0.0466445708    1.7837188173    1.1816100150
 H    0.3622036712   -0.5950444991    0.7356565031
 H   -1.1097109945   -0.1410843752   -0.1090316166
 H    0.2544724487    1.2326397310   -2.6364443466
 H    0.4749545179   -0.2722404616   -3.5433309087
 H   -1.0599656853    0.0371734168   -2.7080789561
 H    2.7115870716   -2.2435344402   -2.3001741195
 H    2.6509589160   -2.3121989884   -0.5168415928
 H   -0.3752237786   -4.7843400685   -1.6473287855