18

 N    0.0265361207   -1.1668916848    0.0653484551
 C    0.0250308362   -0.0127611663    0.0126173391
 C    0.0023205611    1.4538143124    0.0008204677
 C   -0.8065978659    1.9801195540    1.2152382217
 N   -0.6730063996    3.4275491670    1.4290148213
 C    0.4847457176    3.8861761282    2.1983747470
 C    0.4061209862    4.1619892154    0.7432323034
 C    1.3178726990    3.4433162060   -0.2417567138
 N    1.3612353141    1.9902291479   -0.0819097835
 H   -0.5094893051    1.7670876752   -0.9193550210
 H   -1.8670198069    1.7503442939    1.0626993437
 H   -0.4887954455    1.4432525499    2.1162047707
 H    0.2873780624    4.6698974555    2.9250839885
 H    1.2005168299    3.1348947492    2.5319296986
 H    0.1086427275    5.1603931382    0.4252761077
 H    0.9695226634    3.6507938868   -1.2622936222
 H    2.3382490276    3.8343920005   -0.1726590292
 H    1.8923203073    1.7251877812    0.7422576551