20

 O   -0.0079642896    1.4917682102    0.7727206367
 C    0.1520753530    0.1835102765    0.2478520151
 C   -1.2138439051   -0.4575525526    0.0661127448
 C   -1.5104762558   -1.9786845851    0.0323478192
 C   -1.2014604398   -1.9485698419    1.5466650448
 N   -2.0389874242   -0.6665449098    1.3666742690
 C   -2.9414247350   -1.5863266437    0.4940367727
 C   -4.0126211318   -0.8958482688   -0.3326738936
 O   -4.9194918850   -0.2317965077    0.5321663740
 H   -0.5987514086    1.4103875106    1.5313957250
 H    0.6283461425    0.2957977053   -0.7327778830
 H    0.8342703426   -0.4137496277    0.8675603225
 H   -1.7591314768    0.1564661852   -0.6516195110
 H   -1.2128943385   -2.7213366632   -0.7154509165
 H   -1.6904854236   -2.6930670878    2.1797321496
 H   -0.1790991380   -1.7751100852    1.8782284585
 H   -3.4378567434   -2.3284168988    1.1282884727
 H   -3.6062746687   -0.2095843394   -1.0874545575
 H   -4.5903758073   -1.6559923450   -0.8707900212
 H   -4.3821492570    0.2730137591    1.1547527384