19

 C   -0.0198287381    1.5887632137    0.0088011595
 C   -0.0385188984    0.0802417605    0.2658529483
 C   -1.3626842912   -0.5831546270   -0.1424625107
 O   -1.6193849709   -0.4422918881   -1.5425093721
 C   -1.3717476546   -2.0575946239    0.1419082513
 C   -1.0161166799   -2.8104548505    1.2468641901
 C   -1.2915476099   -4.1424822062    0.8724050902
 N   -1.7763468724   -4.2232349406   -0.3643626680
 N   -1.8195354912   -2.9437616510   -0.7787204013
 H    0.9262472762    2.0303389650    0.3338599942
 H   -0.1307158645    1.8121087483   -1.0577452878
 H   -0.8260911832    2.0984550984    0.5496529571
 H    0.7723388637   -0.4106132086   -0.2832433686
 H    0.1307354919   -0.1191963443    1.3303200616
 H   -2.1788276228   -0.1055255862    0.4258833391
 H   -1.9037653042    0.4606481254   -1.7062534547
 H   -0.6238782063   -2.4521637301    2.1847598640
 H   -1.1537943427   -5.0430991635    1.4528952176
 H   -2.1281671415   -2.7108941414   -1.7075851299