18

 C   -1.4348507392    1.4276927955    0.4334233756
 C   -1.5709806058    0.0579778234   -0.3333500066
 C   -0.7638689082   -0.6297313038    0.8145240417
 C    0.3281610154   -1.5427059681    0.2960830508
 C    1.5976649610   -0.7409193433    0.2648683473
 C    1.4010930530    0.6292129261    0.9588250580
 C   -0.0542351033    0.7405725816    0.5647956254
 C   -0.1509530665    0.2979513866   -0.9171839315
 N    0.7353792460   -0.8843980627   -0.9625149129
 H   -2.0297012121    1.5347308410    1.3440556396
 H   -1.4839228484    2.3348898636   -0.1753324002
 H   -2.4600967550   -0.3129924604   -0.8458192729
 H   -1.2337024642   -0.8249820746    1.7787780611
 H    0.2992509703   -2.6257927006    0.3242994420
 H    2.5765779442   -1.2040540598    0.2113145005
 H    2.0456532782    1.4028167822    0.5306692133
 H    1.5860992419    0.5606598415    2.0351424605
 H    0.0072936125    1.0144440717   -1.7236937717