23

 C    0.4667714638    0.2963731195   -1.4924744068
 C   -0.0102317830    0.1670676874   -0.0399816844
 C   -1.3778820503   -0.4964843649    0.0719697007
 C   -1.5783408891   -2.0601824184    0.0906110156
 C   -1.2438283651   -3.0500128862   -0.9923897492
 C   -1.0470310991   -2.0636465520    1.5595816111
 C   -2.0079316606   -0.8407037284    1.4446550152
 O   -2.2909914729    0.1251991377    2.3942397836
 C   -2.9938017053   -1.7793658286    0.6866268643
 H    1.4293796012    0.8142785468   -1.5484094496
 H    0.5888351317   -0.6844017096   -1.9640403725
 H   -0.2511723269    0.8637243527   -2.0952592657
 H    0.7457266551   -0.3689103617    0.5430522043
 H   -0.0806410343    1.1669056495    0.4073715595
 H   -2.0828858653    0.0098538499   -0.6009181437
 H   -0.1690662517   -3.0626589437   -1.2032331607
 H   -1.5362721620   -4.0647283773   -0.6999347807
 H   -1.7657363104   -2.8072933822   -1.9244791886
 H   -1.3896305593   -2.8940973285    2.1855829504
 H    0.0141746672   -1.8676584495    1.7186238893
 H   -2.6571947624   -0.3084659758    3.1723714871
 H   -3.7204040910   -1.2989914943    0.0250770761
 H   -3.4431344605   -2.5937718023    1.2637797148