15

 N   -0.0662506428    1.2433106095    0.3292550020
 C   -0.0192531929    0.0310541656   -0.0131688821
 O    1.0848585094   -0.6285004678   -0.4692147657
 C    0.8274178256   -2.0243044178   -0.7278701146
 C   -0.6602729523   -2.2333278722   -0.5067821324
 C   -1.5186212529   -3.1137231083   -1.3523381003
 N   -1.2351517106   -3.4767315531    0.0354230004
 C   -1.1923001362   -0.9287967478    0.0122172459
 O   -2.3178505930   -0.6825765942    0.3471591884
 H    0.8497721840    1.6874762682    0.2320760478
 H    1.1541540961   -2.2407566734   -1.7492446871
 H    1.4348664048   -2.6144650561   -0.0311820383
 H   -2.5424325547   -2.8012734272   -1.5372859825
 H   -1.0355130217   -3.6603540992   -2.1587026848
 H   -0.5088346529   -4.1907399261    0.0685156434