15

 O    0.1313554794    1.3728678734   -0.1749515022
 C    0.0224006335    0.0114688472   -0.0533329579
 C   -0.4554219249   -0.8039201061   -1.2078449833
 C   -1.3249409419   -0.7693783442    0.0392714445
 C   -1.1183299671   -1.8871758479    1.0094286254
 O   -1.9824521894   -2.5069397845    1.5729841707
 C    0.3962144526   -2.0384164652    1.2625862076
 C    0.9227430789   -0.6476815281    0.9444530404
 O    1.8041972653   -0.0401052289    1.5071848224
 H    0.7523568013    1.6456326201    0.5182949871
 H   -0.8291790579   -0.2140164273   -2.0375083499
 H    0.0492081792   -1.7204289203   -1.4937803465
 H   -2.2848539673   -0.2704927578   -0.0045079186
 H    0.6138538285   -2.3458408076    2.2860748971
 H    0.8241126599   -2.7862524229    0.5841227334