20

 O   -0.2709219390    1.3616682679   -0.4712055873
 C   -0.0590852687    0.0142300891   -0.0802303960
 C   -1.4201433716   -0.6652654250   -0.0007484015
 C   -1.3196366273   -2.1198649627    0.4680073941
 N   -2.6151784584   -2.7724011087    0.5446641814
 C   -2.9449523909   -3.8566929610   -0.2191592441
 O   -2.1754918831   -4.4057055392   -0.9797213527
 C   -4.4102320416   -4.2890199275   -0.0702092293
 O   -4.4912468756   -5.6785328782   -0.2679444882
 H    0.5865435786    1.7877891054   -0.5590917055
 H    0.5792640019   -0.5180820223   -0.8036733651
 H    0.4443010593   -0.0421613741    0.8995575050
 H   -2.0542398860   -0.0877941434    0.6842395798
 H   -1.8982318826   -0.6274432688   -0.9854687405
 H   -0.7273184119   -2.7172384211   -0.2295735339
 H   -0.8233906164   -2.1673190556    1.4469712899
 H   -3.3026037178   -2.3966001614    1.1777172749
 H   -4.7951669068   -3.9895061392    0.9194740192
 H   -4.9843075695   -3.7275293901   -0.8252886062
 H   -5.4101808726   -5.9035203940   -0.4368951740