13

 N   -0.0794099248    1.2489492705   -0.0718314567
 C    0.0023545214   -0.0102531530    0.0172048699
 C   -1.2532382504   -0.9285039663    0.0183478306
 C   -0.6062164899   -2.2705940549   -0.0397229453
 C    0.7403864163   -2.1529899444    0.0060275091
 N    1.1567584071   -0.8244899379    0.1309304808
 N    1.2865783555   -3.3921918720    0.0013802951
 N    0.3630574974   -4.2588655023   -0.0566199606
 O   -0.9310019872   -3.5463226972   -0.0711712654
 H    0.8361363252    1.7003610798   -0.0539818678
 H   -1.8376191031   -0.7687248702    0.9304871780
 H   -1.8984342235   -0.6889334444   -0.8310168473
 H    2.0465039861   -0.4953436977   -0.2102211703