19

 C   -0.0062188125    1.5274941634   -0.0819566686
 C    0.0413287775    0.0010191656    0.0623641464
 C    0.7669419842   -0.4113035412    1.3501621778
 C   -1.3878294251   -0.5952654603    0.0096475809
 N   -2.1415853757   -0.1418753397   -1.1717148360
 C   -2.5198236449   -1.1943506751   -1.7840632079
 N   -2.1508642209   -2.3993082897   -1.1999559201
 C   -1.4189146573   -2.1367391189   -0.0451406950
 O   -0.9475186596   -2.9660038179    0.6952523330
 H    1.0084470803    1.9385398244   -0.0743935968
 H   -0.5014316106    1.8260742130   -1.0074007683
 H   -0.5536791441    1.9790184874    0.7540639732
 H    0.5909579389   -0.4079323419   -0.7967425423
 H    0.7922944848   -1.4950778421    1.4744247924
 H    1.7940701187   -0.0329938550    1.3391246620
 H    0.2661015282    0.0166917385    2.2270273740
 H   -1.9268059117   -0.2722848062    0.9114245580
 H   -3.0974251378   -1.1961681017   -2.7030890551
 H   -2.3449400924   -3.3257151226   -1.5440969376