21

 O    0.1160296277    1.3925211400   -0.2284802348
 C    0.0526972586   -0.0256058211   -0.2623266779
 C   -1.3753812385   -0.5218018198   -0.0375098024
 O   -1.8991068852    0.1130784424    1.1321049027
 C   -2.3801249545   -0.4655127100   -1.2324711667
 C   -2.7208391100   -1.9669870659   -1.0240114359
 C   -1.9015360469   -2.9505174117   -1.8993369889
 C   -0.7820712355   -2.9883037543   -0.8143532338
 C   -1.6215272076   -2.0465044901    0.0965121511
 H   -0.1138489390    1.6408162349    0.6738087285
 H    0.4227147978   -0.3259093332   -1.2465115024
 H    0.7137907753   -0.4716706263    0.4978961864
 H   -2.2482319654    0.9668704566    0.8544214243
 H   -3.2166532560    0.2160690594   -1.0533688271
 H   -1.9386793780   -0.2205517632   -2.2031878196
 H   -3.7700916390   -2.2054596373   -0.8497291121
 H   -2.3910134051   -3.9177025491   -2.0386970604
 H   -1.6128302630   -2.5738862916   -2.8853933220
 H   -0.6360994389   -3.9786150637   -0.3773708436
 H    0.1986907414   -2.6170481657   -1.1209470294
 H   -1.8120967382   -2.3767334001    1.1175269141