14

 N   -0.0135185065   -1.1243964347    0.0798494131
 C    0.0151567141    0.0308552244    0.0429820994
 C    0.0303018178    1.4680364004   -0.0519156436
 C   -0.9393209436    2.1457394283   -1.0308967139
 C   -0.1939968908    3.3925405168   -1.4546964536
 C    1.0409008558    3.4399557894   -0.9476171339
 C    1.2978766713    2.2897931860   -0.0312776038
 N    0.4402551549    2.1911206699    1.1622506026
 H   -1.1432753439    1.4884863839   -1.8845019206
 H   -1.9086542856    2.3614662284   -0.5648789463
 H   -0.6471690757    4.1496310584   -2.0835705670
 H    1.7742889323    4.2161903602   -1.1272036449
 H    2.2832796820    1.8494969708    0.0734612028
 H   -0.1170017320    3.0384073077    1.2616285498