18

 C    0.1270240075    1.5203895645   -0.2168960158
 C    0.0214331877    0.0118464818   -0.0991771538
 C    1.3108747169   -0.8078781687   -0.0614318474
 C    0.5119984526   -0.6546818654    1.1857347625
 C   -1.1270045117   -0.6830551758   -0.7495763179
 O   -1.2757317179   -1.8921725166   -0.6958983480
 C   -2.1646920346    0.1315765373   -1.5151650242
 O   -3.1549463301   -0.6930332551   -2.0475053255
 H    1.0167334987    1.8776473377    0.3090480910
 H    0.2131576295    1.8452811359   -1.2592549550
 H   -0.7373359034    2.0276389906    0.2247690167
 H    1.2812905817   -1.7692330849   -0.5602113834
 H    2.2368149469   -0.2529062959   -0.1640798475
 H    0.8739613235    0.0085751284    1.9635269932
 H   -0.0549271966   -1.5130092347    1.5259141073
 H   -2.5934740817    0.8832140270   -0.8313369971
 H   -1.6481980838    0.7005703276   -2.3063641109
 H   -2.8996120649   -1.5901945236   -1.7739624743