21

 C   -0.1913803494    1.3832297786   -0.0212436279
 O    0.1674560289    0.0155642091    0.0402548781
 C    0.7344440574   -0.4862697976   -1.1284058956
 C    1.8756737964   -1.4374369198   -0.9517627957
 C    2.1199483403   -0.0902104290   -1.6131133350
 C    2.0834892431    0.0437531770   -3.1374089779
 C    0.6482661677   -0.2759669930   -3.5824140265
 C    0.1066891388   -1.6700864026   -3.3910201727
 C   -0.1684069782   -0.6111219600   -2.3512545302
 H    0.6752237154    2.0188278782   -0.2517001800
 H   -0.9705472822    1.5771614376   -0.7715525579
 H   -0.5803455844    1.6522586467    0.9636883785
 H    2.2451377030   -1.5286041350    0.0641013115
 H    1.9273362905   -2.3546334432   -1.5266748161
 H    2.7224507242    0.6156634553   -1.0515874341
 H    2.3239074923    1.0767362417   -3.4116372969
 H    2.8235612244   -0.5935650957   -3.6364795784
 H    0.2322903083    0.3169612667   -4.3901582353
 H   -0.7265207666   -1.9632937498   -4.0218578474
 H    0.7843521414   -2.4862787448   -3.1681755324
 H   -1.1897194313   -0.2725130106   -2.2223605780