20

 C   -0.0037236148    1.5278477001    0.0206555954
 C    0.0013194052    0.0221673358   -0.0127101664
 C    0.6310024884   -0.7728266126   -1.1961876468
 C    1.1792519621   -1.7661151195   -0.2109503554
 C    0.7953028922   -0.8701145780    0.9969111645
 C   -0.5018452064   -1.2372410277    1.7417199185
 C   -1.2680855983   -0.8090742735    0.4589475285
 C   -1.3014352594   -1.9852879156   -0.5257917004
 N    0.0512170031   -2.0991322248   -1.0976044417
 H    0.9990820235    1.9316372066   -0.1595977437
 H   -0.6695570545    1.9395659232   -0.7477306240
 H   -0.3435533912    1.9074508523    0.9905727873
 H    1.0083389513   -0.3965172316   -2.1412884720
 H    2.0510962972   -2.4085842167   -0.2705047398
 H    1.6626139115   -0.4844722451    1.5369828976
 H   -0.6405222848   -2.2688302248    2.0816616123
 H   -0.6786393087   -0.5599684392    2.5825019977
 H   -2.2247961732   -0.2950382895    0.5733412688
 H   -1.5925911321   -2.9265858459   -0.0480618029
 H   -1.9891497713   -1.8002040635   -1.3590048677