15

 C    0.0890792428    1.5901086024    0.2541955734
 C    0.0064159957    0.0763597298   -0.0143803917
 C   -1.3873642493   -0.4359338309   -0.1077307409
 C   -2.1571073285   -0.8866155872   -1.1419772730
 N   -1.8454798906   -1.0588782140   -2.4937036709
 N   -3.3743452913   -1.2432740017   -0.6110486752
 N   -3.3902109787   -1.0425207029    0.6371071689
 O   -2.1381413963   -0.5024689026    1.0046245698
 H    1.1330233849    1.9087747873    0.3222317256
 H   -0.3907372511    2.1605614251   -0.5468783981
 H   -0.4091892536    1.8447637855    1.1934261087
 H    0.5145089187   -0.1735992950   -0.9515992620
 H    0.5286203779   -0.4644604172    0.7836110156
 H   -1.6123587355   -0.1920403514   -2.9626665187
 H   -2.6189395949   -1.4972435972   -2.9788776316