17

 O   -0.2010145889   -0.0123189531   -0.1283541575
 C   -0.0831370302    1.1910519508   -0.1852287300
 C    1.1703910740    1.9172132024    0.0857538870
 C    1.1703024566    3.2532057671   -0.0182638559
 C    2.3626033409    4.1290942774    0.2165630476
 C    3.5308626188    3.4019468437    0.8439714234
 O    3.2692945453    2.7681351305    2.0983847328
 C    3.5340983511    1.9363534768    0.9627934988
 C    2.3818044930    1.1031184153    0.4547967434
 H   -0.9439015669    1.8436634373   -0.4558987458
 H    0.2449388193    3.7532934002   -0.2999271012
 H    2.6845591139    4.5704901581   -0.7387905621
 H    2.0788550321    4.9824713765    0.8480517003
 H    4.4856287073    3.9266500435    0.7988546317
 H    4.4953438425    1.4236352092    1.0068018372
 H    2.1012452538    0.3500900573    1.2008878819
 H    2.7160390473    0.5276239170   -0.4191240017