18

 C   -0.1138402475    1.5119462313   -0.1149889239
 C   -0.0592727601   -0.0083806800   -0.0170970498
 O    0.8660746675   -0.4663385376    0.9674828141
 C   -1.4199480527   -0.6233542893    0.2805918722
 O   -2.4002884877   -0.3675829725   -0.7799272952
 C   -2.5174629686   -1.7066114095   -1.0834001851
 O   -3.1466878467   -2.1953124951   -1.9628305256
 C   -1.5858585494   -2.1606258688    0.0536612926
 N   -0.5123360542   -3.0486988915   -0.3091438640
 H    0.8768311129    1.9154149322   -0.3404611520
 H   -0.8106025624    1.8197349179   -0.8992955776
 H   -0.4598652609    1.9500094479    0.8300551812
 H    0.3086207852   -0.4170014330   -0.9656962248
 H    0.7155141079    0.0403025707    1.7734231441
 H   -1.8091072951   -0.2550570628    1.2369929267
 H   -2.1655989762   -2.6125195943    0.8657546849
 H   -0.0388710481   -2.7386386498   -1.1510340120
 H    0.1824233561   -3.0762511958    0.4304117644