20

 C    0.2190379480    1.4978134795    0.0215381287
 N    0.0269258765    0.0749103372   -0.0618906400
 C   -1.1734572585   -0.7544482649   -0.1707184691
 C   -0.2333761656   -2.0034957965   -0.1655545211
 C   -0.2380356934   -2.8951650299   -1.3758964640
 C    0.4288556033   -4.2456375132   -1.3194960342
 C   -1.0737896745   -4.1540003852   -1.4003077296
 C    0.9216224828   -0.9669778862   -0.0638072546
 O    2.1242812125   -0.9971357758   -0.0118515417
 H    1.2938757597    1.6820300323    0.0926686938
 H   -0.1692994818    2.0115713287   -0.8668518710
 H   -0.2715940793    1.9209868447    0.9071066729
 H   -1.8568597649   -0.6683314892    0.6820761990
 H   -1.7343581360   -0.6076103802   -1.1014399969
 H   -0.3230626688   -2.5960091079    0.7504291491
 H   -0.1506711458   -2.3624683942   -2.3198108225
 H    0.9748542876   -4.5821188048   -2.1932377246
 H    0.8721104456   -4.5496412235   -0.3774449453
 H   -1.6470571311   -4.3991756801   -0.5120302601
 H   -1.5591733762   -4.4291235308   -2.3300770087