19

 C   -0.0338686513    1.5431895889   -0.0066978802
 C    0.0147916632    0.0424995225   -0.0078567681
 C    0.5885387192   -0.8150061075   -1.1113901324
 O    2.0122481462   -0.9111978777   -0.9534100258
 C    1.1831876706   -1.7519493524   -0.1367443144
 C    0.6470667166   -0.9537778560    1.0285010665
 C    1.3801072347   -0.6848670265    2.3109886898
 C   -0.8582705695   -0.8510329656    0.8557350139
 O   -1.6431416866   -0.2988245307    1.8654614527
 H    0.9554715031    1.9664893472   -0.2063270866
 H   -0.7221034332    1.9115917561   -0.7764890879
 H   -0.3818363993    1.9486538947    0.9494953111
 H    0.1890802265   -1.0114893555   -2.0999297041
 H    1.3381426145   -2.8219979323   -0.2165575917
 H    2.3708268227   -0.2635518356    2.1140190077
 H    0.8436617428    0.0166193973    2.9590079218
 H    1.5126524718   -1.6091702715    2.8854978927
 H   -1.4088944871   -1.6720066970    0.4024440887
 H   -1.1710697150    0.4307803914    2.2785476162