17

 O   -0.0042923294    0.0076109584   -0.1732632633
 C    0.0062893904    1.1963220343   -0.0692967898
 O    1.1493705822    1.9153617539   -0.0647908390
 C    1.0192034373    3.3186935388    0.0598722112
 C    0.4639272353    4.1204855973   -1.1473187169
 C    1.7168686329    5.0540293544   -1.0885891412
 C    2.2632525563    4.2383556416    0.1079971000
 O    1.8519233288    4.7766087280    1.3821229088
 C    0.7121098495    3.8915078937    1.4570619446
 H   -0.9008363035    1.8226182600    0.0327069512
 H    0.4299972254    3.5116722346   -2.0532536726
 H   -0.5114632282    4.5902170800   -0.9999386823
 H    2.3398144995    5.0015628363   -1.9841429472
 H    1.5272010624    6.0996647881   -0.8421499010
 H    3.2990057889    3.8937222925    0.1034350084
 H   -0.2340915138    4.4317490266    1.5810022200
 H    0.8253674560    3.1526475016    2.2601560792