18

 C    0.0154588391    1.5781360433    0.1002021029
 C    0.0665144742    0.0797161156    0.0963737347
 C   -0.8725967479   -0.8632606983    0.7973499319
 O   -1.6115055502   -1.8590223953    0.1669143347
 C    0.6023480359   -0.9619770422    1.1121737325
 C    1.3410701837   -1.6531727814   -0.0424810842
 N    0.7520685769   -0.6656218127   -0.9606182855
 C    0.6253780531   -0.6934554653   -2.3097498410
 O    1.1341205540   -1.5267905280   -3.0315916434
 H    1.0106178141    2.0066696242   -0.0570322928
 H   -0.6490436902    1.9606046850   -0.6825835817
 H   -0.3675938130    1.9381161185    1.0592926185
 H   -1.4560913483   -0.3994906961    1.5883652469
 H   -1.2914614065   -1.9519914632   -0.7378827963
 H    1.0119272964   -0.8002329325    2.1002696182
 H    2.4298439240   -1.5680027415    0.0066519191
 H    1.0652655876   -2.6904045099   -0.2556342986
 H    0.0212731972    0.1572651400   -2.6867331359