13

 N    0.0095234304    1.3255664111    0.0094808517
 N    1.1220112345    2.0837937347    0.0030605179
 N    2.2704944858    1.4932741894   -0.0113491079
 C    2.3844831165    0.1360755811   -0.0201355591
 C    1.2866552766   -0.6858894320   -0.0142164994
 N    1.1355967241   -2.0297766272   -0.0203910696
 C   -0.1976197744   -2.2061186613   -0.0084954603
 C   -0.9736924233   -1.0174860027    0.0056741987
 C   -0.0150635403   -0.0210183298    0.0020914088
 H   -0.8342863123    1.8846176296    0.0207731102
 H    3.4013042949   -0.2403084575   -0.0320711479
 H   -0.6062559546   -3.2109462766   -0.0102563080
 H   -2.0483447679   -0.9312415488    0.0165036389