18

 C    0.0409408470    1.5467175265   -0.0666963369
 N    1.5191465050    1.5370411734    0.2129587634
 C    1.5578148865    0.0828896307    0.2398590661
 C    1.6974010181   -1.1469972998   -0.7611520305
 C    1.7402619710   -2.0403331846    0.5137774838
 C    1.2647282877   -0.8828637067    1.4263291159
 O   -0.1802928247   -0.6590548246    1.2926949777
 C    0.0627810052    0.0008044813    0.0333474703
 C    0.2165759678   -0.9200437976   -1.2060638897
 H   -0.5310240091    2.0633130071    0.7101731670
 H   -0.2562925845    1.9315969873   -1.0506104407
 H    2.1320324332    2.0251784228   -0.4268734171
 H    2.4735339562   -1.3030573258   -1.5108636076
 H    1.1234115526   -2.9429380595    0.5119885882
 H    2.7753692978   -2.2956450613    0.7619986355
 H    1.5922986637   -0.8439267053    2.4663632512
 H    0.1334734532   -0.3567321949   -2.1405263243
 H   -0.4314808869   -1.7983521090   -1.2584661224