19

 C    0.4489640087    1.6836082337   -0.3374006299
 C    1.7565558443    1.2789278027    0.3661657252
 C    1.0010100754   -0.0224820308    0.7297512594
 C    1.5576068835   -1.3464988008    0.1563854514
 C    2.2509864532   -1.9983727845    1.3306648076
 O    3.0919095444   -1.0946979108    2.0679725304
 C    1.7753069630   -1.3750503004    2.5733084574
 C    0.7633101025   -0.3056623687    2.2313750455
 O   -0.1849221720    0.4423736866    0.0426044092
 H   -0.0740500255    2.5519599078    0.0808897777
 H    0.5031636703    1.7955609540   -1.4269303475
 H    2.6220244199    1.1418152069   -0.2831820594
 H    2.0473402293    1.8948348054    1.2179824948
 H    0.7183910460   -1.9711288061   -0.1736539619
 H    2.2132379775   -1.1858476401   -0.7046074295
 H    2.6028693058   -3.0254708838    1.2815890365
 H    1.7444467801   -1.9006062055    3.5240970402
 H    0.8541824239    0.5950427890    2.8457382252
 H   -0.2522871104   -0.6991638546    2.3621069475