23

 C   -0.0429799634    1.5484414698    0.4954161458
 C   -0.0125641462    0.0814444816    0.1058309030
 C   -1.3056538910   -0.4763391707   -0.4723573375
 C   -1.7109597017    0.1365408315   -1.8207815946
 C   -2.9926428300   -0.4932119082   -2.3950296299
 C   -3.3162458257    0.0483684306   -3.7676422898
 O   -4.3454132521    0.5917983378   -4.0758825460
 C    1.2875584302   -0.4798354442   -0.4234571228
 C    0.8148560005   -0.8453888246    0.9647421681
 H    0.9070042264    1.8542546246    0.9445167789
 H   -0.2193917933    2.1986230849   -0.3684677356
 H   -0.8351902410    1.7458141821    1.2276562292
 H   -1.2015731721   -1.5620038492   -0.5974493809
 H   -2.1203310404   -0.3296692984    0.2507532415
 H   -1.8644954292    1.2163621732   -1.7123214066
 H   -0.8875341694    0.0115856274   -2.5361828378
 H   -2.8460189620   -1.5792319562   -2.4936159733
 H   -3.8533566870   -0.3253586210   -1.7406807199
 H   -2.4960288863   -0.0849848123   -4.5135436617
 H    1.2445157618   -1.2447655040   -1.1924039582
 H    2.1369830219    0.1888663164   -0.5152704253
 H    1.3434011313   -0.4212005847    1.8120383039
 H    0.4526804086   -1.8548537065    1.1302480795