20

 C   -0.0610230503    1.4802330981    0.0292089424
 C    0.0942764385   -0.0180572747    0.0087496533
 N   -0.7502952358   -0.8583062821    0.8936419140
 C    0.7307556293   -0.8050822008    1.1017368648
 C    1.4366336833   -1.9474265537    0.4545861464
 C    1.2526630761   -1.9185427490   -0.8674414453
 C    0.4297809530   -0.7255055205   -1.3167643936
 C   -0.8223683462   -1.0943296032   -2.1327466451
 O   -0.5089764465   -1.7563844658   -3.3505351299
 H    0.8125816164    1.9734182651   -0.4107105457
 H   -0.9420138635    1.7975297147   -0.5414850346
 H   -0.1761676588    1.8518654861    1.0531847734
 H   -1.1921108006   -0.2442299067    1.5778941943
 H    1.1052649198   -0.3432159816    2.0097156791
 H    1.9910875925   -2.6981068763    1.0050279651
 H    1.6309978691   -2.6557288201   -1.5674285382
 H    1.0419280250   -0.0657660719   -1.9484970095
 H   -1.4975489389   -1.6875039785   -1.5046357698
 H   -1.3508942377   -0.1784579381   -2.4202433798
 H   -0.2786937846   -2.6654068509   -3.1374663012