14

 O   -0.0651272683    1.3320077723   -0.1970602825
 N    0.0335549926   -0.0350378111   -0.0559368766
 C   -1.0910219730   -0.6280342623    0.0742246751
 C   -1.1480819239   -2.1382070188    0.2180742830
 C   -2.5771388448   -2.3991441005    0.6614749193
 O   -2.9245932263   -1.6725782970    1.8352865200
 C   -3.3868875801   -1.1697695501    0.5645785743
 C   -2.4921589293   -0.0523614717    0.0819177106
 O   -2.8478905554    1.0443379764   -0.2660947606
 H    0.8592428109    1.6003428848   -0.2624077734
 H   -0.9507803226   -2.6288158791   -0.7428004535
 H   -0.4209313287   -2.5158915963    0.9418449701
 H   -3.0232187879   -3.3847847911    0.5649066440
 H   -4.4601821131   -1.1333020854    0.4123701101