18

 C   -0.1335078898    1.5944357974    0.0216964331
 C    0.0168088080    0.0765598323   -0.0374461977
 O   -1.2639610524   -0.5550688164   -0.0636597553
 C    0.8003662968   -0.4779640450   -1.2170612021
 C    2.2618856510   -0.1230157888   -1.3861623041
 C    1.8658726206   -1.3916040589   -0.6693838689
 N    1.7569234202   -1.3087027332    0.7592918576
 C    0.7819992283   -0.4614885017    1.2024008207
 O    0.5229306516   -0.1831242695    2.3552026735
 H    0.8313907990    2.1025432493   -0.0641778517
 H   -0.7837408970    1.9310835650   -0.7901068189
 H   -0.5778354352    1.8779620130    0.9807741901
 H   -1.6558223433   -0.4194676317    0.8081341995
 H    0.2240786838   -0.7596228610   -2.0890200261
 H    2.6683986548   -0.2085549750   -2.3883297609
 H    2.6906976013    0.6757571546   -0.7895907776
 H    2.0728349113   -2.3708928454   -1.0840631738
 H    2.4429053312   -1.6847617049    1.3951149924