19

 C   -0.0791195566    1.3988321256   -0.1067286722
 N   -0.0012925303   -0.0471966110   -0.0388345819
 C   -1.2874611127   -0.7305498018    0.0573989357
 C   -1.1277444290   -2.2144038315    0.1231017488
 C    0.0819315804   -2.7688405412    0.0919938471
 N    1.2565351134   -2.0320594128   -0.0013252059
 C    2.5365096509   -2.7219327395   -0.0287541019
 C    1.2407998442   -0.6373291287   -0.0696314072
 O    2.2763238772    0.0063822929   -0.1515875159
 H    0.9293310366    1.8005787807   -0.1757480168
 H   -0.6608520353    1.7123525591   -0.9841960243
 H   -0.5745679087    1.8002377097    0.7877367281
 H   -1.8278333933   -0.3536308563    0.9443392141
 H   -1.9127215062   -0.4402639221   -0.8060320560
 H   -2.0150190288   -2.8289378448    0.1964289033
 H    0.2290838400   -3.8420393240    0.1379724736
 H    2.5989146411   -3.3963685685   -0.8907143691
 H    3.3174251514   -1.9681957981   -0.1044729784
 H    2.6851527056   -3.3071750776    0.8862029189