20

 C   -0.0281301398    1.4519879315    0.0840988158
 C   -0.0183241480   -0.0626552120    0.0040673392
 C   -1.2494740849   -0.6509581328   -0.6581223540
 C   -1.2028029863   -2.1946348155   -0.7210158718
 N   -0.0102360662   -2.8087479582   -0.1459892268
 C    1.3110705430   -2.2364506343   -0.2803124534
 C    0.6306015319   -2.3112074317    1.0511762349
 C    0.6565103820   -0.7523783265    1.1659202584
 C    1.3482800661   -0.6763803165   -0.1876811369
 H    0.8768760291    1.8336018325    0.5679393257
 H   -0.0874683048    1.8951470278   -0.9167242964
 H   -0.8920600416    1.8067288110    0.6579822551
 H   -2.1374799608   -0.3177908818   -0.1073169029
 H   -1.3405403446   -0.2301597059   -1.6668723574
 H   -2.0609215446   -2.6279161918   -0.1972806616
 H   -1.2631974995   -2.5402063424   -1.7579979703
 H    2.1079950768   -2.8383686576   -0.7030793638
 H    0.7838185150   -2.9838472396    1.8879593072
 H    0.9183411926   -0.2328057963    2.0791175842
 H    2.2165982346   -0.0901729998   -0.4612219852