19

 O    0.0476965779    1.4598972409    0.0611323395
 C    0.0110531744    0.0484057448    0.1604233289
 C   -1.4005028881   -0.5290583773   -0.1299281792
 C   -1.9021132948   -0.1450046816   -1.4963836433
 C   -2.4206255383   -1.0073850435   -2.3688271174
 C   -2.5258304735   -2.4851366233   -2.0980332478
 C   -1.4644255369   -2.9427291610   -1.0815707921
 C   -1.3928617882   -2.0370732183    0.1344962180
 O   -1.2912824372   -2.4649863009    1.2619961476
 H   -0.4457151226    1.8216221604    0.8046310100
 H    0.7230590521   -0.3202907716   -0.5854706236
 H    0.3361972005   -0.3033512984    1.1482009859
 H   -2.0616864474   -0.1006952796    0.6392154018
 H   -1.8302608203    0.9114774176   -1.7376130362
 H   -2.7910592272   -0.6479551052   -3.3253631540
 H   -3.5311115674   -2.7305088187   -1.7263026770
 H   -2.4095886167   -3.0517971954   -3.0283879639
 H   -1.6177841043   -3.9697058287   -0.7425835728
 H   -0.4788638521   -2.8935900401   -1.5671822145