18

 C    0.0165044509    1.3715059639    0.0159239258
 O   -0.0553488816   -0.0414179953   -0.0733482007
 C   -1.3328884545   -0.5439855174   -0.0397671854
 C   -2.3966725293   -0.5315538514    1.0902274129
 N   -3.0624574901   -1.3784990488   -0.0043275407
 C   -2.5415354166   -0.3168913998   -0.9885756415
 C   -1.6641686596   -2.0503255755   -0.1537291391
 C   -1.4066631216   -2.7881388120   -1.3704066950
 C   -1.1690658692   -3.4260222776   -2.3614828083
 H    1.0735831750    1.6396145524   -0.0282567111
 H   -0.5103825939    1.8561967159   -0.8175843977
 H   -0.4063184797    1.7398083924    0.9610684211
 H   -2.1863464477   -1.0860233376    2.0082869251
 H   -2.9332813416    0.3980104350    1.2891581115
 H   -3.0863091027    0.6268986587   -0.9178793173
 H   -2.4669319792   -0.6725992415   -2.0163892233
 H   -1.4189466567   -2.6527977352    0.7258290586
 H   -0.9624683321   -3.9862989261   -3.2397873650