15

 C    0.0072190507    1.5585708097    0.0099894817
 C   -0.0297373233    0.0190602342    0.0026079807
 C   -1.3837911477   -0.5178498939    0.0120765402
 C   -2.5149930785   -0.9353685966    0.0202419386
 C   -3.8251178763   -1.4606004582    0.0302532157
 N   -4.9127774062   -0.7173921520    0.0420371964
 O   -5.9571552464   -1.5907030815    0.0483648048
 N   -5.5329517084   -2.8913522852    0.0407801660
 C   -4.2339445572   -2.8317085546    0.0292301568
 H    1.0429197030    1.9091823719    0.0023703839
 H   -0.5022062175    1.9638337471   -0.8678892333
 H   -0.4861915007    1.9549796452    0.9009627774
 H    0.4992867538   -0.3618366086   -0.8803971778
 H    0.5150846097   -0.3706493077    0.8720576551
 H   -3.6265291050   -3.7226350800    0.0210182736