20

 O   -0.0681318240    1.4409701533    0.0104857311
 C    0.0364920333    0.0224846811    0.0116015724
 C    0.8617213024   -0.4937222398    1.1909520628
 C    0.7512510183   -2.0224725019    1.3127703619
 C   -0.6210853090   -2.5852147041    0.9893627453
 C   -1.9638753187   -2.0825801499    1.3612941365
 C   -2.0918555856   -0.5682351568    1.4494722586
 C   -1.3849504335   -0.5199117335    0.0695461452
 N   -1.4682732416   -2.0294776617   -0.0873388507
 H    0.8224191253    1.8054810703    0.0374917199
 H    0.4832236980   -0.3345322998   -0.9327020074
 H    1.9140319878   -0.2064781774    1.0738241485
 H    0.5032805885   -0.0010215024    2.0998435326
 H    1.4541809755   -2.4893010248    0.6103786619
 H    1.0593315156   -2.3495868470    2.3128075423
 H   -0.6027906855   -3.6714804184    0.9047963210
 H   -2.7466969685   -2.7776272211    1.6527927722
 H   -3.1330080635   -0.2499444412    1.3702158278
 H   -1.6406360733   -0.0569016275    2.3026993877
 H   -1.9824384615   -0.0423995272   -0.7081564396