17

 C    0.0118254787    1.4826160589   -0.1564932375
 C    0.0011569048   -0.0152292235   -0.0415252078
 C   -1.1144247515   -0.7598743345   -0.0507800058
 C   -1.0856144328   -2.2282227115    0.0255595967
 C   -0.3926986592   -3.0062094955   -1.0983760299
 C    0.2831814019   -2.8296050865    0.2211952935
 O    1.4008495684   -1.9913405938    0.3586445860
 C    1.3350185755   -0.6437906312    0.1453508724
 O    2.3610271011   -0.0127939302    0.1661322408
 H    0.5945592754    1.8026724464   -1.0262291756
 H   -1.0044105488    1.8738858301   -0.2494640893
 H    0.4904181540    1.9374056314    0.7162639123
 H   -2.0856180381   -0.2749564874   -0.1199882273
 H   -1.9329708500   -2.7060265098    0.5059174383
 H   -0.7733359796   -3.9912262645   -1.3438653129
 H   -0.0294154024   -2.4236850175   -1.9374438618
 H    0.3999117325   -3.6916218509    0.8673638778