25

 C   -0.1116143826    1.5869368020    0.0067210141
 C   -0.0350122496    0.0582647907   -0.0012166063
 C    0.7324608265   -0.4996135602   -1.2042459574
 C    0.7645004972   -2.0320692499   -1.2563087385
 O   -0.5542237025   -2.5810882915   -1.2770515498
 C    1.6084197280   -2.5580990970   -2.4251410938
 C    1.7169774791   -4.0846632974   -2.4558282583
 C    2.4974775218   -4.5992376203   -3.6572612906
 O    2.5403877757   -6.0163911499   -3.5795671595
 H    0.8875162573    2.0367107499    0.0320625320
 H   -0.6182408153    1.9639969650   -0.8891004431
 H   -0.6629046473    1.9538532699    0.8781890496
 H    0.4458256999   -0.2904129492    0.9223949171
 H   -1.0426103966   -0.3707043321    0.0030495718
 H    0.2818612243   -0.1253485553   -2.1370092292
 H    1.7640227874   -0.1226722113   -1.1958968121
 H    1.1924598795   -2.4082373717   -0.3170718612
 H   -0.9817313222   -2.2757431212   -2.0857192794
 H    1.1669323751   -2.1943462423   -3.3661949263
 H    2.6089841352   -2.1093179314   -2.3672046569
 H    2.2077865728   -4.4438293158   -1.5428099598
 H    0.7150835786   -4.5247252258   -2.4638038744
 H    2.0091166932   -4.2662704105   -4.5887443382
 H    3.5136462915   -4.1700602049   -3.6555939365
 H    3.0375803329   -6.3439719801   -4.3345060236