23

 C    0.1422005309    1.6265216351   -0.2095952527
 C   -0.0889113056    0.1168571764   -0.0138052063
 C    0.5852294551   -0.4183590398    1.1649615938
 C    1.1567980794   -0.8336371305    2.1423971336
 C    1.8159461697   -1.3621834219    3.3194718481
 C    1.0186175319   -1.4745790745    4.6593280197
 C    1.7434007163   -2.8204112667    4.9374685064
 C    0.9665738991   -3.9568810626    5.5820335292
 C    2.0808201179   -2.8995747012    3.4229132559
 H    1.2077215301    1.8443639086   -0.3227956579
 H   -0.3797885094    1.9814287202   -1.1035157089
 H   -0.2263200747    2.1902886954    0.6517951516
 H   -1.1665530777   -0.0803416060    0.0587608534
 H    0.2534646347   -0.4226847341   -0.9067020278
 H    2.7518918561   -0.8209857626    3.4996955811
 H    1.1308195176   -0.6620046943    5.3810200016
 H   -0.0461239938   -1.6292668767    4.4607967033
 H    2.6615443744   -2.6289797583    5.5055453113
 H    0.0429254861   -4.1629787012    5.0292339903
 H    1.5551462458   -4.8811405331    5.6039883064
 H    0.6897537156   -3.7155065041    6.6146170979
 H    1.3178385470   -3.4582999781    2.8726862135
 H    3.0683194233   -3.2605891100    3.1259254364