13

 N   -0.1429808487    1.4083364275    0.0830928413
 C   -0.0395110515    0.1502934518   -0.0183366616
 N    1.1870247872   -0.5275856192   -0.1429948153
 C    1.4140466732   -1.5152103659   -0.8889446811
 O    0.6213741420   -2.1513107020   -1.8111409354
 C   -0.7329738642   -1.9655088183   -1.9320586124
 N   -1.5632057048   -1.4061018918   -1.1697197457
 C   -1.2625277575   -0.7292553349    0.0264928928
 N   -1.9661836167   -0.8063024912    1.0765391962
 H    0.7867075840    1.8348733079    0.0402532388
 H    2.3942301595   -1.9840911657   -0.9099262162
 H   -1.0577808677   -2.4555793944   -2.8460499606
 H   -2.7541946748   -1.4401439638    0.9172502192