13

 N    0.0928609006   -1.1171951662   -0.0716128693
 C    0.0410378918    0.0399904520   -0.0329936532
 C   -0.0306241603    1.4506412317    0.0228496302
 C   -0.9146382389    2.4418737350    0.8417347475
 C   -0.8298521646    3.4556079620   -0.2873951251
 C    0.2096082774    3.4643868787    0.8240574699
 C    1.0991273139    2.4941441850   -0.0083796059
 C    0.0677828897    2.4853832772   -1.1110942269
 H   -1.6927636531    2.2680455152    1.5708235783
 H   -1.5379506121    4.2156316786   -0.5846015162
 H    0.4527814940    4.2324431751    1.5440076273
 H    2.1634786383    2.3086987432   -0.0459431826
 H    0.1778645733    2.2918297824   -2.1689528340