20

 C   -0.4366229759    1.5590577845    0.2888403916
 C   -0.0692538059    0.0843895650    0.1504989676
 C    0.3689166589   -0.4595605431   -1.2189844216
 C    1.7106272574    0.0105015272   -1.6549031393
 O    2.1243137650    1.3405023458   -1.4702197188
 C    1.6704718605   -1.0374693977   -0.5847096615
 C    1.2516325379   -0.4956564935    0.7917740961
 C    2.2097093643    0.4057507955    1.5664901118
 H    0.3624085206    2.2105448775   -0.0657784147
 H   -1.3355556409    1.7812338914   -0.2978020255
 H   -0.6581055603    1.8086846670    1.3329823231
 H   -0.9103721382   -0.5177599614    0.5096328630
 H   -0.3078674096   -0.9269180975   -1.9262333518
 H    1.9973651671   -0.3952810385   -2.6272711380
 H    3.0832938538    1.3378649329   -1.3813006459
 H    2.1285617700   -2.0088225364   -0.7410118334
 H    0.9788006832   -1.3399828955    1.4331245004
 H    2.4771167115    1.2973493423    0.9972980117
 H    1.7624240925    0.7287048453    2.5133178533
 H    3.1323982981   -0.1346496707    1.8089034816