15

 O   -0.0310563322    1.4218680286   -0.0031522136
 C   -0.0150331595    0.0096209779    0.0161187370
 C   -1.4130758492   -0.5798714477    0.0392246180
 O   -2.0365240339   -0.1723843019   -1.1956762467
 C   -3.3163464097   -0.5172348858   -1.3666176448
 C   -4.1451031951   -0.2175193348   -2.4051940516
 O   -5.3307722580   -0.7830772514   -2.1491276681
 N   -5.2182218703   -1.4459589593   -0.9161705998
 N   -4.0385037338   -1.2772667528   -0.4832383683
 H   -0.5496485652    1.6829677889   -0.7719100376
 H    0.5378940562   -0.4041003888   -0.8417580163
 H    0.5093423414   -0.2917543831    0.9285009493
 H   -1.3903588878   -1.6737228876    0.1007102088
 H   -1.9901605342   -0.1888963920    0.8835934906
 H   -4.0353746384    0.3408678595   -3.3176584070