19

 C   -0.0188750017    1.5803003923   -0.0045215939
 C    1.4811994272    1.8474901495   -0.0704710215
 C    2.1969072589    0.8198231450    0.3942604147
 C    1.2561658607   -0.2302024605    0.9231749830
 O    1.6096614572   -1.5980069470    0.8151034394
 C    0.5430377695   -2.3567646734    1.3482110962
 O   -0.6901132669   -2.1530473499    0.7021111517
 C   -1.1372820775   -0.7914629605    0.7284688285
 C   -0.0226263684    0.0473116023    0.1221864437
 H   -0.4595752928    2.0702298880    0.8771244850
 H   -0.5644404994    1.9494454310   -0.8786689719
 H    1.8902386798    2.7897412160   -0.4168521591
 H    3.2738627136    0.7713265324    0.4963585972
 H    1.0708210457   -0.0186424155    1.9973859523
 H    0.7969787120   -3.4085579415    1.2070931081
 H    0.4402873579   -2.1262715410    2.4263106949
 H   -2.0675578152   -0.7693235014    0.1543899759
 H   -1.3599973800   -0.4789255236    1.7622755278
 H    0.1694949994   -0.3631153222   -0.8764825318