18

 C    0.2617103741    1.0656901481    0.3626162266
 O   -0.0962355382   -0.2970542260    0.2029222210
 C   -1.4194886498   -0.4905012816   -0.2034872836
 C   -1.6596706373   -1.9895665239   -0.3440812152
 C   -1.9776713079   -2.3851353829    1.1048783513
 C   -2.7563290239   -1.1461544756    1.6064724992
 O   -2.3451125573   -0.0475761465    0.7897756564
 C   -4.2167561645   -1.3175759503    1.4819269330
 N   -5.3586129755   -1.4696605647    1.3933772982
 H    1.3162967586    1.0864868348    0.6441397205
 H    0.1301891855    1.6232655695   -0.5766117827
 H   -0.3355518542    1.5485926097    1.1442130297
 H   -1.6355147124    0.1042486886   -1.1014941411
 H   -2.5187355929   -2.1663947240   -0.9972357278
 H   -0.7873177558   -2.4990409850   -0.7535033864
 H   -2.5551687533   -3.3052501227    1.1978273761
 H   -1.0557254540   -2.4845412694    1.6810282027
 H   -2.5336359911   -0.9200435482    2.6546963821