23

 C    0.0160013574    1.3890393504    0.0071456878
 O    0.0399898487   -0.0162967147   -0.0296483797
 C    0.6162029852   -0.5909890732    1.1248453172
 C    0.6203639090   -2.1216231049    0.9982854980
 C   -0.8174945890   -2.6401023951    0.8853019939
 C    1.5079442011   -2.5343941938   -0.2191586385
 C    2.8330062466   -2.9017814133    0.3986648279
 C    2.7625867894   -2.9903823847    1.7252548893
 C    1.3747361669   -2.6962587711    2.2389888577
 H    1.0293517200    1.8139795491    0.0880285601
 H   -0.4383514005    1.7350455442   -0.9247231361
 H   -0.5796107316    1.7664062890    0.8538471841
 H    1.6484797875   -0.2241994934    1.2576937389
 H    0.0428677212   -0.2935213306    2.0204421047
 H   -1.3205044191   -2.2051132421    0.0176688267
 H   -0.8313617749   -3.7301641282    0.7827608157
 H   -1.4013797405   -2.3801534131    1.7762054904
 H    1.0762166605   -3.3921775866   -0.7537765174
 H    1.5756173032   -1.7238171553   -0.9517876173
 H    3.7206994777   -3.0940101642   -0.1947203345
 H    3.5808697174   -3.2674141957    2.3812264351
 H    1.3736657247   -1.9921350283    3.0819771348
 H    0.8897702391   -3.6094353842    2.6115075909