16

 O   -0.0210245915    0.0003025219   -0.4047897064
 C    0.0933701193    1.0282413163    0.2171262255
 C    1.2232027236    1.9708751578    0.0627057765
 C    2.0483668787    2.0125937469   -1.1721701738
 N    2.7024516739    1.4691726390    0.0089609372
 C    3.0626828695    2.5989981113    0.9640147592
 C    3.3833491118    4.0009621014    0.4229368910
 O    1.9720713931    4.3580950154    0.4211357675
 C    1.6200302353    3.0956161878    1.0302239641
 H   -0.6726926000    1.3465671486    0.9599464874
 H    1.8173140506    1.2392837083   -1.8978230381
 H    2.3181412390    2.9814246619   -1.5787816051
 H    3.6277895917    2.2113353883    1.8082048628
 H    3.9464477648    4.6204239370    1.1310360278
 H    3.8428368723    4.0775317134   -0.5684408892
 H    1.0256549379    3.1984296047    1.9409767037