19

 C    0.5573934938    1.4406296308   -0.5189993257
 C    0.1097446395    0.0617354157   -0.0835028440
 C    1.1050910327   -1.0622453893    0.0859602439
 C    0.4065908673   -0.4901413711    1.2936309803
 C    1.1750227267    0.2967272559    2.3218942018
 C    2.3812292484   -0.2839142340    2.9539364811
 O    2.5012518628    0.7231463222    1.9539341771
 C    0.4020860641    1.2667776985    3.0656887610
 C   -0.2755233604    2.0527343792    3.6722400770
 H    1.5456432630    1.6849665530   -0.1233238772
 H    0.6073388132    1.4995324598   -1.6118467656
 H   -0.1414891918    2.2104153805   -0.1744483273
 H   -0.8594533180   -0.2333267597   -0.4782710142
 H    0.8389527498   -2.0623369247   -0.2378748883
 H    2.1522894397   -0.8054472628   -0.0321709792
 H   -0.3787138516   -1.0910022500    1.7442310953
 H    2.6595551892    0.0231074117    3.9599093090
 H    2.6919854246   -1.2828280463    2.6520852707
 H   -0.8641647931    2.7545473207    4.2098849742