21

 C   -0.0258291097    1.5459605564   -0.0042318298
 C    0.0118622246    0.0057317207   -0.0025823353
 C    0.8211789019   -0.5698618957   -1.2103245648
 C    1.3601158396   -1.9358603141   -0.7370340184
 C    1.5552912683   -1.7753943647    0.7647675508
 C    2.2476826272   -0.5221886557    1.2432394162
 C    0.7396479617   -0.5875491876    1.2168124647
 C   -1.3574148500   -0.5207076280   -0.0260200274
 C   -2.4816834721   -0.9479151439   -0.0431437242
 H    0.9903398401    1.9474469346    0.0552885908
 H   -0.4974646104    1.9242422564   -0.9161449923
 H   -0.5957278635    1.9226100968    0.8498982270
 H    0.2048691094   -0.6427030977   -2.1084751284
 H    1.6449610062    0.1131282884   -1.4399242571
 H    0.6158134100   -2.7187589051   -0.9201233215
 H    2.2746215564   -2.2229837519   -1.2671904731
 H    1.6264511664   -2.6684077518    1.3756378447
 H    2.7163912300   -0.5563584570    2.2207028756
 H    2.7758802954    0.1014423703    0.5293479193
 H    0.2034482579   -0.5918970563    2.1587342366
 H   -3.4739439793   -1.3254723542   -0.0587148734