19

 O   -0.3193988592    1.5303385219    0.2800498080
 C   -0.0041133177    0.1368041528    0.2412251975
 C   -1.3169682277   -0.5638861109   -0.0854785520
 O   -2.2938665155   -0.2224843144    0.8899271960
 C   -1.8407436087   -0.2893531275   -1.5103974913
 O   -2.6536643799   -1.4066121583   -1.8659934168
 C   -2.5072377242   -2.4340398142   -0.8937681688
 C   -1.2492156708   -2.0986555441   -0.0909064018
 O   -0.0500194996   -2.4672017501   -0.7596763005
 H    0.4364531359    2.0074915697    0.6327215985
 H    0.7556021905   -0.0872161919   -0.5149843265
 H    0.3570660814   -0.2128253301    1.2185304048
 H   -2.2129898222    0.7322863958    1.0102125858
 H   -2.4419661781    0.6244634283   -1.5411032919
 H   -1.0121475258   -0.1946864832   -2.2244021632
 H   -3.3809876336   -2.4642578598   -0.2283274561
 H   -2.4253167306   -3.4026522695   -1.4046577140
 H   -1.2841868601   -2.4964885481    0.9311164339
 H   -0.1047459539   -3.4009252965   -0.9837906216