17

 O   -0.2568740768    0.0486689146   -0.0643118607
 C    0.0065860759    1.2138919540    0.0801165609
 C    1.3697552005    1.8267662221   -0.1450700277
 C    1.3143733501    2.9811025686   -1.1608225514
 N    2.5631543383    3.7153707762   -1.2177255183
 C    3.4710935367    3.7515136854   -2.2255229835
 C    4.5076490339    4.5564219344   -1.8009087270
 C    4.1263075161    4.9598747206   -0.5056151840
 N    2.9488648001    4.4482849499   -0.1539010173
 H   -0.7742741272    1.9414092636    0.4054298263
 H    1.7166560845    2.2482983639    0.8072878017
 H    2.0688863065    1.0490038780   -0.4620512872
 H    1.1053410027    2.6052245539   -2.1656478350
 H    0.5177816427    3.6821610613   -0.8900689049
 H    3.3076215966    3.2153580305   -3.1472078318
 H    5.3996220326    4.8144690363   -2.3477449349
 H    4.6551562965    5.6033339769    0.1822476550