10

 N    0.0511765992    1.3395418917    0.1602462928
 C   -0.0471346269   -0.0246487616    0.0471980751
 N   -1.1240440101   -0.7479157014    0.0102903533
 C   -0.6362913480   -2.0544299879   -0.0208430754
 C    0.7113374868   -2.0411985751   -0.0091415110
 O    1.1132335421   -0.7166095962    0.0371327720
 H    0.8794901277    1.7398888991   -0.2552407358
 H   -0.8002914960    1.8146105134   -0.1000211577
 H   -1.3016756023   -2.9025864727   -0.0538524781
 H    1.4957697874   -2.7760947594   -0.0297085353