19

 C    0.2545619646    1.5477755570   -0.2038048692
 C    0.0861473591    0.0663386323    0.0606879249
 O    0.7869446919   -0.7538459016   -0.9094141117
 C    1.3478859184   -1.5945029678    0.1220058574
 C    2.8673293834   -1.5533567775    0.1215035853
 C    3.2224204872   -0.2703767752    0.8838513373
 O    4.2398253907    0.3608997675    0.7783535316
 C    2.0505116463    0.0666588315    1.8203377486
 C    0.8211231864   -0.6334294295    1.2355522635
 H    1.3083957373    1.8387893805   -0.2187892393
 H   -0.1775886427    1.7977859246   -1.1777867186
 H   -0.2648991640    2.1380888263    0.5588964743
 H   -0.9839230374   -0.1881719586    0.0606213243
 H    0.9257256480   -2.6046296828    0.0932866430
 H    3.2866269985   -2.4056994262    0.6734096121
 H    3.2967847872   -1.5560271349   -0.8823305550
 H    2.2960853845   -0.3496602214    2.8059756146
 H    1.9578526695    1.1469528791    1.9490518126
 H    0.1667859111   -1.0582462932    1.9965242045