21

 C   -0.1223978917    1.5287898209    0.0489078302
 C   -0.0047136213    0.0002626725    0.0067150477
 C   -1.4179507096   -0.5545248423   -0.2099627677
 C    1.1855112575   -0.6394314992   -0.7894406006
 O    1.2957795823   -0.5347227201   -2.1619033448
 C    2.1743132388   -0.1183150753    0.3057372445
 C    0.9306535446   -0.7119483204    1.0447914603
 O    0.6616792944   -0.7157483452    2.3991845084
 C    1.0452230322   -1.9348163494    0.0751357509
 H    0.8258120961    2.0608626967    0.1173178730
 H   -0.6305365945    1.8849051673   -0.8535049174
 H   -0.7328371697    1.8301008800    0.9069601771
 H   -1.8007632478   -0.2246840077   -1.1817417964
 H   -1.4949992262   -1.6407744376   -0.1780215805
 H   -2.0916907169   -0.1582869758    0.5571281510
 H    2.0892450536   -1.0018655414   -2.4445075892
 H    3.1025512462   -0.6882249159    0.4117475123
 H    2.3614774685    0.9503717392    0.3764886052
 H    1.3608483325   -1.1996964231    2.8515478169
 H    0.1744587750   -2.5687137551   -0.0734427425
 H    1.9551550358   -2.5340168183    0.1783261815