18

 C   -0.1297797086    2.0722803510   -2.4620414219
 C   -0.3570002900    0.7497192608   -1.7496656427
 N    0.4090502587   -0.4823834595   -2.1777842180
 C    1.7838341430   -0.4217432340   -1.6603770314
 C    2.6648280565    0.7964981437   -1.4540469233
 O    3.1095081261    1.3868417533   -2.6641105588
 C    0.6978053943   -0.8166646378   -0.7158127498
 C   -0.0341705330    0.4292475353   -0.2713701322
 O   -0.3859116248    0.8667440299    0.7848049139
 H    0.9254905347    2.2964084002   -2.6168497889
 H   -0.6097156478    2.0517276652   -3.4452545284
 H   -0.5890672170    2.8796251088   -1.8823135739
 H   -1.4170481522    0.4743795190   -1.8448587646
 H    2.3446036956   -1.2744781450   -2.0471215855
 H    2.1514744138    1.5882050713   -0.9048843299
 H    3.5145949411    0.4785858850   -0.8289619421
 H    3.4961588807    0.6996294966   -3.2170324324
 H    0.6077950388   -1.8111766237   -0.2935023703