18

 O   -0.0585596570   -0.0462103553    0.1769819006
 C   -0.0942108663    1.1473721127    0.0741269825
 C   -1.1960797319    2.2282653346   -0.0347184761
 C   -0.0440848746    3.2428765631    0.2010760625
 C    0.2074518428    3.8358137561    1.6101421542
 C    1.5956247966    3.3074956240    2.0142451056
 C    1.7205556630    1.8688847507    2.4593006896
 C    2.0148464718    2.2332247725    1.0256982446
 N    0.9200158680    2.1154307381    0.0972356492
 H   -1.6987956807    2.2857295805   -1.0019236800
 H   -1.9431032405    2.1664032162    0.7596092180
 H    0.0836922019    3.9927519500   -0.5848905176
 H    0.1931270487    4.9286919085    1.5940482696
 H   -0.5627472731    3.5138959175    2.3199244249
 H    2.3265606048    4.0171717476    2.3836924746
 H    2.5648166049    1.6106968045    3.0898967323
 H    0.8216814042    1.2956767940    2.6600358648
 H    3.0223331074    2.1678492247    0.6315004307