19

 O   -0.0742991793    0.0205561003   -0.6139676920
 C   -0.0138498617    1.1144154629   -0.1214508417
 C   -1.2751713250    1.9788636299   -0.0221399263
 C   -1.2876353108    3.2572586213    0.8054238150
 C   -0.0989191843    4.2169790965    0.5147079651
 C    0.6465492153    3.5572574785    1.7066000070
 C   -0.7238516718    3.0582162318    2.2379902187
 C    1.5967020860    2.4477437937    1.2885661458
 O    1.2151496643    1.6123841648    0.1846677813
 H   -1.5176238996    2.2145577530   -1.0670560174
 H   -2.0648199025    1.3003468418    0.3165379741
 H   -2.2846983058    3.7003990734    0.7384470052
 H    0.3715989110    4.1553070662   -0.4702598617
 H   -0.3559467016    5.2582813313    0.7223282735
 H    1.2049208282    4.2237738711    2.3713800165
 H   -1.1595331797    3.7578272994    2.9555597683
 H   -0.7683254079    2.0495331355    2.6624497738
 H    2.5477198304    2.8801639097    0.9631043944
 H    1.8048338845    1.7918295686    2.1447249703