18

 O   -0.4429560873    1.5187474585   -0.2737356589
 C    0.0059166875    0.1968186853    0.0253926988
 C   -1.1339425165   -0.8483030271    0.1840767740
 C   -1.0987833276   -1.7289984866   -1.0897115627
 C    0.2351999822   -1.3862312450   -1.7163046205
 C    0.7527201851   -2.1107528904   -2.9352065515
 C    0.8990352813   -3.5529317067   -2.7139493378
 N    1.0042460441   -4.6881743649   -2.5267743079
 C    0.8438910864   -0.3769526995   -1.0921072373
 H   -0.8309161936    1.4995601527   -1.1557752538
 H    0.5702328163    0.3167292003    0.9553856614
 H   -0.9467695633   -1.4659093717    1.0668099626
 H   -2.0900660787   -0.3428057213    0.3375144668
 H   -1.1754277595   -2.7969522868   -0.8582505163
 H   -1.9210790654   -1.5123557980   -1.7859781150
 H    0.0634985084   -1.9741391577   -3.7800804177
 H    1.7205270880   -1.7030974589   -3.2443388541
 H    1.7986607127    0.0537437677   -1.3746111801