17

 C   -0.0257184986    1.4491941503    0.0040204237
 N    0.0058792094    0.0046460258    0.0605877842
 C    0.0273184502   -0.7822696641   -1.0727961397
 O    0.0242491874   -0.4432986785   -2.2291709123
 O    0.0540910830   -2.0837615221   -0.6348152266
 C    0.0486830350   -2.0784559522    0.7664248025
 N    0.0723328061   -3.2805242186    1.4650982143
 C    0.0193388976   -0.8101726876    1.2032874213
 C    0.0024775895   -0.2801591198    2.5918643555
 H    0.8535233276    1.8876360178    0.4878562968
 H   -0.0279177775    1.7258971636   -1.0512202753
 H   -0.9269488495    1.8484205958    0.4813007488
 H   -0.7341701243   -3.8619571192    1.2554197606
 H    0.9046437353   -3.8264678000    1.2609479318
 H    0.0187937204   -1.1188284931    3.2899267034
 H    0.8707972188    0.3575264173    2.7957247158
 H   -0.8950243004    0.3178827946    2.7894350754