25

 C   -0.4976546156    1.4725725361    0.1008370588
 C   -0.0545526081    0.0061466885    0.0330825770
 C   -1.3072598113   -0.8727031950   -0.1672247095
 C    0.9587222315   -0.2621578397   -1.1040237361
 C    1.7271231152   -1.5501825727   -0.7021166304
 C    1.4457267359   -1.7586054472    0.8082249071
 C    0.7370393918   -0.4689757183    1.2967745295
 C    1.7681932293    0.5556785535    1.7929748761
 O   -0.2021682590   -0.7190424532    2.3425543258
 H    0.3516064000    2.1609271275    0.1370606981
 H   -1.0927156967    1.7342626924   -0.7807982668
 H   -1.1187675390    1.6485434546    0.9854393709
 H   -1.8277072101   -0.5668540481   -1.0811843609
 H   -1.0602857057   -1.9334342127   -0.2678795678
 H   -1.9953073154   -0.7720612244    0.6743626008
 H    0.4581878446   -0.3581052085   -2.0723545321
 H    1.6511658294    0.5817809118   -1.1967111485
 H    1.3861289492   -2.4127730688   -1.2810239887
 H    2.7965995757   -1.4475468638   -0.9058061069
 H    0.7708589426   -2.6024552012    0.9731895962
 H    2.3563772696   -1.9616314836    1.3811571656
 H    2.4880759187    0.8309865518    1.0162467727
 H    1.2813788099    1.4644627367    2.1539763773
 H    2.3415626637    0.1258661939    2.6239068263
 H    0.2923857436   -0.9313940297    3.1404742754