21

 C    0.0385682468    1.3425836407    0.0137471396
 O   -0.0620784154   -0.0646039896    0.0053319717
 C   -1.3577494713   -0.5901115629    0.0086004116
 C   -2.2986278079   -0.2787261170   -1.1925525236
 C   -3.4518510235   -1.1665093217   -0.7450244001
 C   -2.8477411595   -2.3410327491    0.0055847697
 C   -1.3409443439   -2.1354691714   -0.0005463879
 C   -3.4444317096   -1.1754425281    0.7758008972
 C   -2.2868486901   -0.2929076132    1.2224543219
 H    1.1050171184    1.5809987682    0.0093799801
 H   -0.4245507965    1.7991852392   -0.8724370593
 H   -0.4147117326    1.7877908046    0.9107508534
 H   -2.5785302539    0.7778052971   -1.2560490252
 H   -1.8540275406   -0.5841930503   -2.1453274725
 H   -4.3708056461   -1.2587351852   -1.3091227959
 H   -3.3076329294   -3.3203256613    0.0020670539
 H   -0.8470621701   -2.5279454495   -0.8948581866
 H   -0.8383982584   -2.5383632818    0.8842544290
 H   -4.3578408209   -1.2743412415    1.3477212656
 H   -1.8330104246   -0.6095061379    2.1672084421
 H   -2.5660488509    0.7627921807    1.3010584054