20

 C   -0.1173627647    1.6455205126    0.1767511167
 C    0.0092102555    0.1316103386    0.1146003169
 C    1.1411894422   -0.5858827198   -0.6955786581
 C    2.1434361230   -0.1643866754    0.4192064623
 C    0.8674176184   -0.6672227354    1.1645578336
 C    0.6541020818   -0.7323574708    2.5882490169
 N    0.4696493873   -0.7872096717    3.7292405988
 C    0.8755571041   -1.8748560342    0.1545425510
 C   -0.3311747816   -2.7764514668   -0.0460792447
 H    0.8321646211    2.1676398097    0.3112797627
 H   -0.5709031270    2.0173111388   -0.7484832934
 H   -0.7759194910    1.9352992766    1.0024092568
 H   -0.9826832631   -0.2972920531   -0.0359637671
 H    1.3061475456   -0.5379939557   -1.7719986942
 H    3.0341072744   -0.7857177339    0.5361528004
 H    2.3860749527    0.8922012061    0.5153527696
 H    1.7729785278   -2.4912177289    0.2722317280
 H   -1.2716703249   -2.2417159916   -0.1937962585
 H   -0.1731354192   -3.4149301763   -0.9219354737
 H   -0.4565469625   -3.4346163387    0.8200972760