17

 O    0.0727178652    0.9252282891   -1.2642622545
 C    0.0606423133    1.4062078232   -0.1511566625
 N    1.0837307446    1.3380378743    0.7431723870
 C    2.3663358226    0.7347725885    0.4313929520
 C    3.4240518193    1.7945934929    0.1169305674
 N    3.6983373524    2.7364382002    1.2450869182
 C    5.1665489859    2.4781274860    1.2089069434
 C    4.9006545387    1.3590668424    0.1892265979
 O    5.5472465197    0.4875066614   -0.3061525551
 H   -0.8107006633    1.9505234506    0.2643455031
 H    1.0102306171    1.8527761457    1.6066380942
 H    2.6935875812    0.1304079822    1.2835348882
 H    2.2233535002    0.0800354421   -0.4304100202
 H    3.1835801487    2.2854615706   -0.8359054839
 H    3.4616846624    3.6970444333    1.0277703075
 H    5.7828636324    3.2857672850    0.7923118070
 H    5.5985516096    2.1672172726    2.1662131103