19

 C    0.3111693065    1.2441230989   -0.1149602491
 C   -0.3186000589   -0.1120376615   -0.0579071793
 C   -0.5475264980   -0.9178750756   -1.1306039553
 C    0.7463758493   -1.2712594885   -1.8974730011
 C    0.7894991530   -2.4287836044   -0.8191531015
 C    0.8445255221   -2.1384310195    0.7213048259
 C   -0.6460828894   -2.3765052255    0.8690219387
 C   -0.1570746729   -0.9806752279    1.1235314893
 C   -0.7556515104   -2.3748452112   -0.6620813780
 H    1.3257061373    1.2354688906    0.3081397042
 H    0.3623557657    1.6161824911   -1.1416576673
 H   -0.2638957589    1.9720669690    0.4713132384
 H    0.6317358744   -1.7082780488   -2.8961821807
 H    1.5328412920   -0.5132468817   -1.9156106130
 H    1.2854781332   -3.3657577611   -1.0863605010
 H    1.6503570530   -2.3986156971    1.3946325943
 H   -1.1955904052   -2.9686614514    1.5880926736
 H   -0.0656504500   -0.6197396435    2.1432198295
 H   -1.4228168730   -3.0305253818   -1.2175356377