21

 C    0.0130728569    1.5412030080   -0.2394252848
 C    0.0712568475    0.0401223915   -0.0588306700
 C    1.4000110929   -0.6842538141   -0.0074343896
 O    2.5943653280    0.0450224891   -0.0102427581
 C    0.5534724246   -0.5927599832    1.2349536249
 C    1.0383946184    0.2456397506    2.4291825062
 C    0.7885642999   -0.6638113424    3.6070363286
 C    0.1686535077   -1.7910438226    3.2659417554
 C   -0.1240835422   -1.8592351553    1.7872238242
 H    0.9089320536    2.0236247098    0.1588949337
 H   -0.0654141455    1.8047753306   -1.3005724600
 H   -0.8563866991    1.9716314933    0.2694395618
 H   -0.7278492817   -0.5030611288   -0.5606591107
 H    1.4694565816   -1.6604441593   -0.4905061985
 H    2.7340807571    0.3908766593   -0.8979668094
 H    2.0930149627    0.5227418745    2.3252920659
 H    0.4820556298    1.1879576136    2.5335753123
 H    1.0824725126   -0.3922985854    4.6152391917
 H   -0.1205644089   -2.5805603034    3.9509265819
 H   -1.2071929568   -1.8640191632    1.5949104739
 H    0.2700356308   -2.7748498526    1.3255902204