16

 N    0.2230851063    1.2767981404    0.5001428583
 C    1.1847659954    2.1789989084    0.0271917077
 C    1.1861358101    2.8727283164   -1.1284903676
 N    0.2948943894    2.9511097809   -2.1603824941
 C    0.0042538903    2.0415198446   -3.0206164694
 C    0.5525851615    0.7089352959   -3.1587793900
 C    0.6171245994   -0.3029809890   -2.2553613468
 N   -0.0694202357   -0.5104177830   -1.1029326451
 C   -0.3185738251    0.1466961605   -0.0422040616
 H   -0.0437606330    1.4168400702    1.4634792334
 H    1.9360531154    2.4394354712    0.7657278742
 H    1.9808306783    3.6144769077   -1.2076640739
 H   -0.6647328306    2.3717083924   -3.8222796467
 H    0.8946351138    0.4662372389   -4.1632773287
 H    1.1105204028   -1.2134381019   -2.5982632286
 H   -1.0662014384   -0.2800080836    0.6306528889