22

 C    0.0270264098    1.6327574388   -0.0951574639
 C    0.0131799204    0.1087840547    0.0568289236
 C   -1.4005385038   -0.5083168781    0.0542411270
 C   -2.0582595769   -0.5357721797   -1.3707851916
 C   -1.6171894540   -2.0131837711   -1.5206273080
 C   -1.4312204718   -2.0907853076    0.0174876613
 C   -0.2846168978   -2.8958592032    0.6064750364
 C   -2.2150234446    0.0771008974    1.1139208922
 N   -2.8693788287    0.5229161879    1.9577513907
 H    1.0551888942    2.0058021696   -0.1060203020
 H   -0.4509680010    1.9504026269   -1.0274354215
 H   -0.4996632254    2.1168240709    0.7323910186
 H    0.5840007852   -0.3486179812   -0.7590671914
 H    0.5192713323   -0.1709237952    0.9874397701
 H   -3.1431331302   -0.4274335800   -1.3180530730
 H   -1.6669821477    0.1884227527   -2.0880364310
 H   -2.3324221188   -2.7052781989   -1.9691482502
 H   -0.6659773959   -2.1086138833   -2.0527001849
 H   -2.3720704510   -2.4125155686    0.4745945473
 H    0.6799893637   -2.6164254587    0.1724085887
 H   -0.2195183801   -2.7663219359    1.6920365400
 H   -0.4379000681   -3.9625174876    0.4099288815