18

 C   -0.0419559487    1.6744658114   -0.1536156395
 C    0.0374379236    0.1462697377   -0.0516017571
 O    0.7795744527   -0.2500890205    1.0968722165
 C   -1.3775965289   -0.5016974042   -0.0217188175
 C   -2.0914150806   -0.1680960094    1.2035544668
 C   -2.6123097841    0.1153780146    2.2508184289
 C    0.7517945884   -0.3996112287   -1.3041785156
 N    1.9036296965   -1.0665393528   -1.0613681817
 O    0.2784050702   -0.2220375578   -2.4125365800
 H    0.9625573031    2.0999817463   -0.0824521446
 H   -0.4819829303    1.9662211963   -1.1096108965
 H   -0.6514290312    2.0776117824    0.6605803104
 H    0.2332211058   -0.0676825442    1.8713915698
 H   -1.9299415072   -0.1800232760   -0.9092087715
 H   -1.2648537657   -1.5900343944   -0.0911637006
 H   -3.1126283528    0.3591199524    3.1555386560
 H    2.2187788174   -1.1976114923   -0.1155753617
 H    2.4117782020   -1.4557275107   -1.8375073219