12

 O   -0.2065371868   -0.0210721899    0.0019045229
 C   -0.0907441169    1.1672132428    0.0102394929
 N    1.1489029897    1.8560686606    0.0024700617
 C    1.2268991278    3.2556160541    0.0130405188
 O    0.3085094468    4.0276591782    0.0287773632
 C    2.7166195921    3.5538807358   -0.0011045307
 O    3.3550002990    2.2787867575   -0.0181924844
 C    2.4453048229    1.2670554074   -0.0162546334
 O    2.7224905599    0.1146284339   -0.0285817957
 H   -0.9182175632    1.8937701669    0.0251363823
 H    2.9940236601    4.1262984797   -0.8911181365
 H    3.0136749486    4.1122715628    0.8914722090