20

 C   -0.0804310395    1.5749654847    0.1154210772
 C   -0.0309233316    0.0681627699    0.0607463484
 N    1.2683221769   -0.5505910807   -0.3296922045
 C    0.8011602844   -0.7395282358    1.0227207733
 C    1.5134119082   -0.2079583526    2.2741380057
 C    0.8803482004   -1.3819836437    3.0779527762
 C    0.4410195045   -2.0528129645    1.7432836840
 C   -1.2453821686   -0.6095402631   -0.4660912288
 O   -2.2757455063   -0.0505631566   -0.7509495942
 H    0.8724510386    1.9778709423    0.4626115157
 H   -0.2890951123    1.9839920095   -0.8772523401
 H   -0.8784618278    1.9101201738    0.7842858833
 H    1.1106467101   -1.3906558241   -0.8882041095
 H    2.6000860980   -0.2841062597    2.1782336460
 H    1.2612076365    0.8045208643    2.5968103225
 H    1.5571334087   -1.9594950585    3.7095128971
 H    0.0278723362   -1.0626522812    3.6812223671
 H   -0.5894416059   -2.4084999606    1.6832487794
 H    1.1074549810   -2.8689910454    1.4450613830
 H   -1.1287510814   -1.7109940077   -0.6039430018