20

 C   -0.0955917575    1.5128679775   -0.0550605442
 C    0.1045021361    0.0173584171   -0.0635237736
 C    1.2971770759   -0.6401136579   -0.8068377956
 C    1.1485191622   -1.7983520955    0.2206755310
 C    0.5572308049   -0.7504521622    1.2064154246
 C    0.0209765012   -2.7196313917   -0.2442218789
 C   -1.2108928457   -1.9222456331   -0.6533659462
 N   -2.2584058425   -2.4969637703   -1.0700456531
 O   -1.1308645625   -0.5611094595   -0.5492630814
 H    0.8076838804    2.0137363611    0.3039487890
 H   -0.3198687874    1.8765079852   -1.0625636845
 H   -0.9297089260    1.7855207653    0.5987815990
 H    1.1634071282   -0.8613179589   -1.8693104529
 H    2.2180923400   -0.0706525118   -0.6587688619
 H    2.0395942561   -2.3538268536    0.5177338132
 H    1.3350068133   -0.2023352423    1.7439366873
 H   -0.2231983564   -1.0680777569    1.9033506231
 H    0.3313745975   -3.3284653531   -1.0997928639
 H   -0.2734294322   -3.4185337124    0.5456470404
 H   -2.9735411957   -1.8021015770   -1.2948457518