20

 C    0.2677682873    1.4351530214   -0.2536031290
 N    0.4529398035    0.0007714132   -0.0849624506
 C    0.5843606160   -0.7260572714   -1.0920125164
 O    0.5902711355   -0.4054181090   -2.4465660893
 C    0.8919516423   -1.7991915714   -2.8101447178
 C    2.2164203376   -1.8546644298   -3.5463389768
 O    2.1425628132   -1.1290831123   -4.7583903157
 C    0.8051393669   -2.2093193740   -1.3136923708
 C    1.9805575643   -2.8668246297   -0.5986873102
 H    1.0165039784    1.9644914158    0.3454054343
 H    0.3393534923    1.7778601246   -1.2925675956
 H   -0.7144578284    1.7193756490    0.1403186959
 H    0.0933750571   -2.1872294010   -3.4492424916
 H    3.0227742413   -1.4762682884   -2.9005651166
 H    2.4545177953   -2.8911554178   -3.8091491234
 H    1.8650462908   -0.2351421902   -4.5255875538
 H   -0.1112634334   -2.7734414633   -1.1147159169
 H    2.9153738035   -2.3233656661   -0.7576815183
 H    1.7880172545   -2.8822297118    0.4774640416
 H    2.1195322619   -3.8993336778   -0.9337976392