16

 O   -0.0010505001    1.5182678219   -0.2066438355
 C   -0.0121253147    0.1424745846   -0.1253626748
 C   -1.1970667500   -0.8533984867    0.0864891930
 C   -0.3085141237   -1.6496400434    0.9521726483
 N   -0.3398748691   -1.8735927567   -0.6006522560
 C    0.5591776770   -0.7415361893   -1.2106799749
 C    2.0924013220   -0.7389835169   -0.9317040827
 C    2.0590517231   -0.8931209823    0.5900914959
 C    0.7935312391   -0.6274891585    0.9806056858
 H    0.0641620042    1.8768153133    0.6861330497
 H   -2.2719127630   -0.8002963669   -0.0286535144
 H   -0.4920414405   -2.5394710652    1.5405804924
 H    0.2452815135   -0.6161587072   -2.2490818811
 H    2.6398791611   -1.5924498362   -1.3471282496
 H    2.5379309082    0.1687923106   -1.3590246283
 H    2.7178677428   -1.5921749611    1.0961492722