20

 C   -0.0067292589    1.4952751029   -0.2837497825
 C    0.0614251075    0.0651236552    0.2684322113
 C   -1.2906924966   -0.6177330689    0.2408568777
 N   -1.9697464096   -1.1277592043   -0.9530426107
 C   -0.9347410757   -1.7943477313   -1.8331578854
 C   -0.5138687464   -2.7996462082   -0.7359278417
 C   -1.5078924896   -2.0922440201    0.1771816342
 C   -2.5044431483   -2.7727770645    1.0233575552
 O   -2.4403852008   -3.9371716462    1.3385670198
 H    0.9708697929    1.9826520492   -0.2268089220
 H   -0.3288307435    1.5006543278   -1.3296634778
 H   -0.7187476040    2.1040462825    0.2832690169
 H    0.8111264136   -0.5106078590   -0.2808112356
 H    0.4009982729    0.0862562459    1.3112350622
 H   -2.0234915468   -0.1068388047    0.8671544908
 H   -1.4428151816   -2.2558340346   -2.6807815425
 H   -0.1705708410   -1.1092477163   -2.2108722871
 H   -0.8212935940   -3.8242311787   -0.9467517603
 H    0.5304401429   -2.8057631811   -0.4140426667
 H   -3.3448916731   -2.1203017855    1.3517764443