19

 C    2.5659715123    0.1002794090    0.9491286657
 C    1.2932822901   -0.7007350751    0.6331908657
 C    0.1109572642   -0.0167170926    1.3064875960
 O   -0.3495982141   -0.3400595743    2.3702193688
 N    1.0626139381   -0.6896818327   -0.8070292477
 C    1.7740974942   -1.6672681594   -1.6261974179
 C    0.2973352871   -1.7685372200   -1.4471507067
 C   -0.3272440220   -2.9168562918   -0.6836537233
 H    3.4270313415   -0.3585424066    0.4542442060
 H    2.4743782350    1.1279064820    0.5847492553
 H    2.7507315218    0.1176984880    2.0264863907
 H    1.3864430833   -1.7057986764    1.0692888018
 H   -0.2887914965    0.8460624155    0.7266328743
 H    2.2090568231   -1.2921361592   -2.5490989406
 H    2.3782529979   -2.4158861980   -1.1136204660
 H   -0.3276316494   -1.3940981948   -2.2567537365
 H    0.3591137753   -3.3664307173    0.0378467609
 H   -1.2243709663   -2.5957905858   -0.1432704231
 H   -0.6271370057   -3.7020032905   -1.3854269933