16

 N    0.0831213535    1.2848273489   -0.1441607209
 C    0.1159951437    0.0167423844   -0.0683726216
 C    1.2336749654   -1.0271703273   -0.0803356002
 N    0.5818601885   -2.3392836367    0.0347607078
 C   -0.6682435688   -2.0920140561    0.1049740596
 N   -1.0422037496   -0.7534705099    0.0547852673
 C   -2.3788937155   -0.2099326058    0.0899642472
 C   -2.9474630597   -0.1213230906    1.5029286140
 O   -4.1197052617   -0.1977469086    1.7527537664
 H    1.0191053430    1.6724743615   -0.2444709251
 H    1.8196708022   -0.9715214864   -1.0047814390
 H    1.9304069701   -0.8723427648    0.7514418556
 H   -1.4385538315   -2.8517985698    0.1946280539
 H   -2.3133850453    0.8115174728   -0.3062778545
 H   -3.0646238348   -0.7844303187   -0.5395244128
 H   -2.1785018695    0.0308507872    2.2933353823