23

 C   -0.3602435959    1.3531648697   -0.1220247572
 O   -0.0526319028   -0.0168467962   -0.0363790678
 C    0.5234578043   -0.5278850334   -1.2215994455
 C    0.7776577076   -2.0196933144   -1.0152618737
 C   -0.5382052830   -2.7911000838   -0.8631691577
 O   -1.0005310469   -3.0155347179   -2.1918788257
 C    0.1230212453   -3.1199248355   -3.0627495636
 C    1.3819501830   -2.7441414640   -2.2442016663
 C    2.4463752119   -2.0011392751   -3.0518853618
 H    0.5380891430    1.9638486073   -0.3071073655
 H   -1.0849880166    1.5608099291   -0.9252434136
 H   -0.7977982620    1.6518193899    0.8338321632
 H   -0.1549149524   -0.3651442212   -2.0763061530
 H    1.4635501611    0.0032233245   -1.4418276251
 H    1.4123383526   -2.1347721387   -0.1308953888
 H   -0.3699342866   -3.7463215797   -0.3397472054
 H   -1.3038162089   -2.2283627587   -0.3246021041
 H    0.1961359759   -4.1381569196   -3.4692986199
 H   -0.0301843042   -2.4352421742   -3.9082122848
 H    1.8296697498   -3.6717170393   -1.8674804940
 H    2.0528179173   -1.0794141157   -3.4923030290
 H    3.3096072787   -1.7382887293   -2.4318105048
 H    2.8108893991   -2.6259790637   -3.8742988559