15

 O    0.1539410722    1.4022827968   -0.2195024073
 C    0.0343613811   -0.0026925354   -0.0351189252
 C    0.6649007499   -0.5161770908    1.2520237631
 C   -0.1661279262   -1.2963023507    1.9445592570
 C   -1.5049982342   -1.3978947364    1.2844095290
 C   -2.2601682197   -0.0845954362    1.2101043506
 C   -1.4020452769   -0.5330756624    0.0485944732
 H   -0.3460370421    1.8259276965    0.4871447212
 H    0.5414196492   -0.4258580469   -0.9114151367
 H    1.6674750621   -0.2252634972    1.5434524687
 H    0.0554932809   -1.7735851908    2.8930189448
 H   -2.0592808544   -2.3292135384    1.2993084057
 H   -3.3342187005   -0.1210553545    1.0604240082
 H   -1.9240002719    0.7220042895    1.8554137279
 H   -1.9075523495   -0.8024443030   -0.8703290401