14

 C    0.0669161893    1.5090930229    0.0023088280
 C   -0.0461557519    0.0291837316   -0.0457855885
 C   -1.1031214001   -0.8321716544    0.0563434504
 N   -2.4468228633   -0.5607560858    0.3017816189
 C   -0.4854288982   -2.1144613962   -0.0681730390
 N    0.8249940641   -2.0271779731   -0.2301845913
 O    1.0922676607   -0.6877197827   -0.2257393598
 C   -1.1564796075   -3.3669134442   -0.0333909797
 N   -1.7818087791   -4.3401839197   -0.0021223309
 H    0.9627262184    1.8068744061    0.5543400813
 H    0.1301464270    1.9512456698   -0.9989991769
 H   -0.8054291444    1.9312193707    0.5084721916
 H   -2.8149569062    0.2191786151   -0.2253876774
 H   -3.0428420688   -1.3701303899    0.1872531832