18

 C    0.0506261877    1.5942097982   -0.0431507116
 C    0.0348136591    0.0631190502    0.0370079951
 C    0.7128290756   -0.6353573373   -1.1737017581
 C    1.4630427287   -1.8749833019   -0.6096054979
 C    2.8286945870   -2.0515532464   -1.2452504016
 O    3.2380192329   -3.0649723625   -1.7479444071
 C    1.5628788791   -1.5470228390    0.8707485768
 C    0.7971865419   -0.5121108638    1.2084838460
 H    1.0778594095    1.9711528828   -0.0965187397
 H   -0.4853405338    1.9461636872   -0.9307090218
 H   -0.4272790368    2.0428847860    0.8339882382
 H   -1.0154664506   -0.2577649752    0.1110557232
 H    0.0091363482   -0.9048132263   -1.9643992637
 H    1.4424387617    0.0562840020   -1.6151008891
 H    0.9126935947   -2.8102584449   -0.7694222805
 H    3.4590488890   -1.1304417102   -1.2042989175
 H    2.1641580034   -2.1392017792    1.5516463213
 H    0.6799626625   -0.1302369196    2.2177660980