20

 O   -0.0933498462    0.0493442692    0.7120240434
 C   -0.0550749632    1.1502711140    0.2277203596
 C   -1.3390283584    1.9758532161    0.0274154085
 N   -1.9695525211    1.8241965410   -1.2799846372
 C   -1.3710862342    2.4805698376   -2.4410326012
 C    0.0102404588    1.9767674285   -2.9289346809
 C    1.2393465353    2.7177974473   -2.3764604361
 C    1.2800525881    2.8866574140   -0.8593765274
 O    1.1451516102    1.6354117485   -0.1771749913
 H   -2.0278464876    1.5903009445    0.7830752099
 H   -1.1975793955    3.0413581175    0.2279810822
 H   -2.1157372399    0.8381886938   -1.4699104793
 H   -2.0916964245    2.3595144174   -3.2573979009
 H   -1.3306518409    3.5588628395   -2.2358784456
 H    0.0911956012    0.9069343541   -2.7013676357
 H    0.0470240896    2.0513768565   -4.0220146089
 H    2.1444789334    2.1910905045   -2.6994064562
 H    1.2918782255    3.7248527711   -2.8115219334
 H    2.2534335686    3.2780728079   -0.5507877359
 H    0.5241183109    3.5995131570   -0.5208252236