19

 C    0.1777353486    1.6145454498   -0.0338478347
 C    0.0919889780    0.0886957290    0.0426527726
 C    0.6781715313   -0.6469943257   -1.1545409525
 N    2.1507850806   -0.5450375795   -1.2217796356
 C    1.5251649170   -1.7772875840   -0.6948533421
 C    1.5390313807   -1.8200334394    0.8206693226
 C    0.8518626126   -0.5263892456    1.2148523000
 N    0.8644118826    0.0433821380    2.3506655113
 O    1.5951054448   -0.7029722959    3.2942642576
 H    1.2124711374    1.9204435647   -0.2086131374
 H   -0.4424867648    1.9988347544   -0.8503438142
 H   -0.1617807605    2.0636657108    0.9021532127
 H   -0.9639457893   -0.2087119110    0.1311116281
 H    0.1112735299   -0.6945835777   -2.0788667144
 H    2.4574650209   -0.7020568120   -2.1783874721
 H    1.6116097075   -2.6960603218   -1.2652323706
 H    0.9767134282   -2.6829762989    1.2003475093
 H    2.5438569016   -1.8752394794    1.2481819107
 H    1.5579850128   -0.1359762859    4.0716744589