18

 C   -0.3516147315    1.3380607309   -0.1541247908
 N    1.0462404231    0.8931217107   -0.0657333805
 C   -0.0356412988   -0.1101405134   -0.0451770997
 C   -0.1908650548   -0.8164077087    1.2599575528
 O   -1.3210480495   -1.6909615368    1.4074561325
 C   -0.0198088981   -2.2681020533    1.4588347493
 C    0.3453110872   -3.2627000161    0.3985297368
 C   -0.6820543402   -4.0955398534   -0.2448529547
 O   -0.0558933966   -3.0176294326   -0.9460451854
 H   -0.7112205808    1.8823938511    0.7153308085
 H   -0.7332479717    1.7009039477   -1.1046564580
 H    1.4811303995    0.9091976449   -0.9838434279
 H   -0.1933260922   -0.7264597414   -0.9220105116
 H   -0.0056299305   -0.1780029088    2.1259917576
 H    0.2888199305   -2.5989337140    2.4544229256
 H    1.3529808369   -3.6684741403    0.5017570440
 H   -0.4281265003   -5.0923075403   -0.6005001769
 H   -1.7239121622   -3.9261773561    0.0163380483