16

 C    0.4258282826    1.5801344058    0.0463344169
 C    0.0866639944    0.0978751144   -0.0829124171
 O    0.6986259226   -0.4166007346   -1.2771368017
 C   -0.0959694895   -0.7553936958   -2.3099277853
 O    0.3287230711   -1.1859529469   -3.3387445141
 C    0.5732571688   -0.6932909045    1.1167494510
 C    1.2997405022   -1.9632418363    1.0143169643
 O    1.9794440375   -0.7413683855    1.3246459339
 H    1.5096970461    1.7036508334    0.1050279672
 H    0.0499939323    2.1392384087   -0.8144808563
 H   -0.0232814426    1.9960254388    0.9534573560
 H   -1.0026294803   -0.0363003870   -0.1546183826
 H   -1.1711684012   -0.5924186518   -2.0962487412
 H   -0.0093111078   -0.4981041275    2.0197842082
 H    1.2357045721   -2.6814102318    1.8303170891
 H    1.5208642119   -2.3741129993    0.0332438119