19

 C    0.0021437240    1.4564868348    0.0046788414
 C   -0.0127621219   -0.0576428815   -0.0309833634
 C    0.3713129809   -0.7070739481   -1.3680380209
 O   -0.2074858748   -2.0220445743   -1.3461833884
 C   -0.8325642697   -2.1758722961   -0.0873836964
 C    0.0913984987   -2.1918862868    1.1371960470
 C   -0.6876945856   -1.0881084500    1.8208649216
 C    0.6372157663   -0.7604159008    1.1810551895
 C   -1.3211357185   -0.7934276713    0.4182572705
 H    1.0094629135    1.8481813113   -0.1802705694
 H   -0.6638585446    1.8775102201   -0.7568378940
 H   -0.3208643350    1.8266513405    0.9832218056
 H   -0.0324333487   -0.1575447634   -2.2301364426
 H    1.4607915965   -0.7787519648   -1.4884185718
 H   -1.5589419269   -2.9873049350   -0.1428356604
 H    0.6248690336   -3.0227098656    1.5799376015
 H   -1.0479269628   -0.9949612368    2.8332968049
 H    1.5819596655   -0.5266562721    1.6564910915
 H   -2.3102980004   -0.4000328202    0.1942864836