21

 O    0.8569104384    0.4660644172   -0.7691442458
 C    0.0539900534   -0.3200281360    0.0743693820
 C    0.0550956136   -0.0621179712    1.6045690496
 C   -1.4739544328   -0.3644014239    1.6074340306
 C   -1.4864393127   -0.1240006728    0.0776928317
 C   -1.8694073600   -1.7644141183    2.0940207300
 C   -2.2494473351   -1.4991240671    3.5564399408
 C   -2.9210631725   -0.1266496818    3.4431662008
 O   -2.2712589255    0.5430703114    2.3619248373
 H    0.6540221815    1.3908562938   -0.5924328765
 H    0.3216248719   -1.3553888937   -0.1555250064
 H    0.7128521724   -0.6617752659    2.2397552723
 H    0.2161057733    0.9996495013    1.8190535633
 H   -1.7437093806    0.9206676299   -0.1267373952
 H   -2.1026850138   -0.7749181749   -0.5480459213
 H   -2.7415838970   -2.1211950922    1.5335751220
 H   -1.0693004032   -2.4988238464    1.9739857588
 H   -2.9057528119   -2.2606871495    3.9842259426
 H   -1.3512890495   -1.4356400366    4.1801943483
 H   -3.9941180568   -0.2287985668    3.2218559766
 H   -2.8200581031    0.4820774535    4.3481131983