20

 C   -0.1449207522    1.4897997307   -0.1444117247
 C    0.0298557398   -0.0359075116    0.0370521290
 C    0.8106850698   -0.3198980445    1.3413494596
 C   -1.3551190949   -0.7186063869    0.0965825339
 C    0.7921291304   -0.5663851543   -1.0981593129
 C    1.4290199874   -0.9954539200   -2.0287426265
 C    2.2546317579   -1.4599075482   -3.1337554536
 N    1.6783625748   -2.4558240818   -3.8714075660
 O    3.3595447344   -1.0105184283   -3.3712395765
 H    0.8251839730    1.9914567731   -0.1920260815
 H   -0.6907269927    1.7154187253   -1.0647505672
 H   -0.7075624793    1.9016681000    0.6999890535
 H    0.2566367081    0.0763988344    2.1987796079
 H    0.9509770452   -1.3943461033    1.4885943691
 H    1.7963142232    0.1523386613    1.3176072679
 H   -1.9238103156   -0.5323052489   -0.8189190530
 H   -1.2538840922   -1.8003754392    0.2220571787
 H   -1.9289200217   -0.3268348435    0.9429323377
 H    0.7334915723   -2.7531613011   -3.7034309328
 H    2.1653818022   -2.7833731831   -4.6894444227