22

 C   -0.4666387883    1.5961160846    0.2225611201
 C   -0.0315292033    0.1463831554   -0.0302965973
 C    0.8300968290   -0.4096790848    1.0550534770
 C    1.1236197157   -1.7737538566    1.5559785069
 C    2.6232550063   -1.4937563376    1.6692587078
 C    3.4078959134   -1.8900033404    0.4241424104
 C    2.2104315849    0.0060348269    1.7282450814
 C    1.4045896565    0.0706113643    3.0315073898
 N    0.3490924575   -0.8005543292    2.4155449696
 H    0.3997262898    2.2613015320    0.3029484206
 H   -1.0957126819    1.9645120424   -0.5932342073
 H   -1.0377272550    1.6706598536    1.1528346978
 H   -0.9156366614   -0.4969063688   -0.1189107719
 H    0.5012176834    0.0785682337   -0.9880029476
 H    0.6237445336   -2.7090319382    1.3333745422
 H    3.1264780376   -1.8696250316    2.5696884091
 H    2.9363895612   -1.4975921053   -0.4836370094
 H    4.4322153788   -1.5045447216    0.4670877713
 H    3.4672093064   -2.9792585840    0.3233170134
 H    2.9055398407    0.7849240903    1.4157261362
 H    1.8675055127   -0.3245903172    3.9442758910
 H    0.9649515325    1.0501009022    3.2362182292