17

 O    0.3331648771    1.1158190141    0.1359987605
 C   -0.0024505153   -0.2442084944    0.3781128965
 C   -1.4635573039   -0.5112079615    0.0761604339
 C   -1.8465536140   -0.9344639165   -1.3362481468
 C   -1.9139954764   -1.9380715729   -0.2363569057
 C   -2.4803027338    0.3303229919    0.7739644127
 O   -3.6233094668    0.4676190489    0.3870625855
 C   -2.1577752254    1.0107995020    2.1140820220
 O   -1.3663868710    0.5979535307    2.9190051920
 H    0.1644801190    1.2975132640   -0.7951089830
 H    0.6191345242   -0.9299597046   -0.2181653953
 H    0.2167353182   -0.4171907741    1.4321804419
 H   -2.7812536856   -0.5397793227   -1.7160081288
 H   -1.0383634044   -1.0132280834   -2.0559307574
 H   -1.1529504807   -2.7087953181   -0.1771815505
 H   -2.8923489386   -2.2287012809    0.1280534848
 H   -2.8317872425    1.8710885674    2.3089834978