20

 C    0.9191836010   -1.0005942309    0.8974775168
 C    0.0167202125   -0.0379121592    0.1130654478
 C    0.6523865869    0.3609699343   -1.2361638230
 C   -1.3874250080   -0.5707621094   -0.1034826484
 C   -1.6841154659   -2.0614862959   -0.1475801566
 C   -1.0113348905   -2.7705012100   -1.2347031270
 C   -0.4662425519   -3.3629157984   -2.1275166906
 N   -2.4247786986    0.1608028649   -0.2599914040
 O   -2.1260171193    1.5325123524   -0.2118693138
 H    1.8919350701   -0.5312553805    1.0746462393
 H    0.4930860364   -1.2536517018    1.8739980071
 H    1.0954319920   -1.9301062665    0.3476732637
 H   -0.1010655283    0.8799303677    0.6987072319
 H    0.7749555345   -0.5120914969   -1.8830780751
 H    0.0289018458    1.0936021965   -1.7534754096
 H    1.6391012257    0.8053741744   -1.0682428958
 H   -1.3973283304   -2.5205746676    0.8074454098
 H   -2.7680693369   -2.1764734546   -0.2450694802
 H    0.0102689714   -3.8871005525   -2.9185671476
 H   -2.9970960465    1.9294961840   -0.3152878847