12

 O    0.0431656774    1.3370851740    0.0080993195
 C   -0.0633916774    0.0097697085    0.0011082478
 C   -1.1280673680   -0.7936667693    0.0025707202
 N   -0.6111615753   -2.1197212291   -0.0078739947
 C   -1.3878995097   -3.2805973534   -0.0103193922
 O   -0.9645284379   -4.4015377989   -0.0191097612
 C    0.7891490861   -2.0699905140   -0.0153038436
 O    1.6054623151   -2.9333382870   -0.0251399268
 O    1.1049274071   -0.7072255608   -0.0095733427
 H    0.9797461350    1.5706030892    0.0030947211
 H   -2.1805935794   -0.5803539047    0.0096679093
 H   -2.4633775230   -3.0207603444   -0.0028779966