19

 C   -0.0000546409    1.4355701801    0.0015738589
 C    1.4807785976    1.9294439564    0.0022832021
 C    2.1945454470    0.6725816319    0.4815176355
 O    3.5422914919    0.5057618348    0.1158865492
 C    4.0464580217   -0.7205717183    0.6455231344
 C    3.0545329979   -1.8628472798    0.6991362905
 C    1.7688580606   -1.7445909070    0.3631992938
 C    1.3247480810   -0.4109756392   -0.1471594602
 O    0.0115834744    0.0034373260    0.1823256111
 H   -0.5838430073    1.8628390527    0.8221032754
 H   -0.5016353286    1.6878669326   -0.9415857980
 H    1.8179303596    2.1870640241   -1.0061297862
 H    1.6319298421    2.7976242908    0.6466988372
 H    2.0842230032    0.5860696006    1.5750002632
 H    4.9038498985   -0.9933003807    0.0185409233
 H    4.4414399551   -0.5521041720    1.6637558633
 H    3.4606257022   -2.8073360942    1.0527776120
 H    1.0735180179   -2.5766483096    0.4068081279
 H    1.4642533863   -0.3755061491   -1.2443520435