21

 O   -0.0452953510    1.3813978897    0.1376341308
 C    0.0315112591   -0.0251935596   -0.0061990093
 C    0.2145998584   -0.5897397900   -1.4461367171
 C   -0.9524544444   -1.5778605362   -1.1709166778
 C   -1.3706848533   -0.6821291607    0.0427279126
 C   -1.7868964605   -1.2897553578    1.3427242751
 C   -1.0230858249   -1.2315021439    2.4348966098
 C    0.3438952398   -0.5907827227    2.4378097005
 C    0.9701816256   -0.6399374647    1.0360697819
 H    0.8517811719    1.7337370479    0.1245781947
 H   -0.0610205698    0.1699974030   -2.1819433245
 H    1.1895091556   -1.0099628391   -1.7086140689
 H   -1.6893596988   -1.7123803868   -1.9647581627
 H   -0.6024473150   -2.5613149779   -0.8472277633
 H   -2.1081816201    0.0559153732   -0.2927837595
 H   -2.7598077139   -1.7756233746    1.3806647604
 H   -1.3799271296   -1.6557270045    3.3700748939
 H    0.2683103972    0.4544830683    2.7683493138
 H    0.9948929374   -1.0940169109    3.1615341753
 H    1.1722653781   -1.6847275068    0.7731221989
 H    1.9370515682   -0.1182649061    1.0133040054