18

 N    0.3045528565   -1.1818859913    0.3734170601
 C    0.1531230622   -0.0544170407    0.1637832971
 C   -0.0642781512    1.3544786092   -0.1005457121
 C    0.0856798967    2.3254758278    1.0591216484
 C    1.1181944432    2.2862043699   -0.0347969303
 O   -0.9840087344    1.6261923753   -1.1123740136
 C   -2.2993327884    1.1994957460   -0.8449775730
 C   -3.2728498095    2.1472964902   -0.1970030052
 C   -3.3639809389    1.8286294083   -1.6773599316
 H   -0.6119507743    3.1532307438    1.0668838225
 H    0.3384872943    1.9221928506    2.0325375785
 H    2.0909867392    1.8586045066    0.1745104294
 H    1.1061097549    3.0806142460   -0.7716716560
 H   -2.3747208083    0.1392121820   -0.6140003026
 H   -4.0176005924    1.7410150948    0.4783035988
 H   -2.9104063693    3.1340280993    0.0660221733
 H   -3.0442836412    2.6020483480   -2.3664243851
 H   -4.1729313193    1.2038294640   -2.0375650387