13

 N    0.0320238558    1.2421749013    0.0089989059
 N    1.2029606714    1.8603213075    0.0009101176
 C    2.0604944685    0.8191314159   -0.0133072273
 C    3.4670609609    0.7551969989   -0.0275089311
 C    3.9983483115   -0.5111635666   -0.0397613349
 C    3.1490792083   -1.6587371286   -0.0377608416
 N    1.8324771751   -1.6357153137   -0.0246686639
 C    1.3083944328   -0.3928177496   -0.0126164763
 N   -0.0061493415   -0.0779361370    0.0020739645
 H   -0.8249804631    1.7758412212    0.0203872828
 H    4.0806210654    1.6486941454   -0.0285960493
 H    5.0718863572   -0.6623250712   -0.0511708772
 H    3.6109117377   -2.6438958634   -0.0477701392