14

 O   -0.2707705369    0.3227600278    0.7752104106
 C    0.3238174969    0.6992874382   -0.2018868722
 C    1.4000536871    1.7327601619   -0.1605620764
 N    2.3170905283    1.7512660054   -1.3177308705
 C    1.4438186239    2.8906043813   -1.1183986821
 C    0.3734690155    3.1414945685   -2.1732498089
 C    0.8661401759    4.0269488133   -3.2287085960
 N    1.2718226326    4.7360702605   -4.0454234248
 H    0.1175040153    0.2895175825   -1.2146651807
 H    1.7855665459    1.9253565493    0.8377406061
 H    3.2704414244    1.9439343390   -1.0253121253
 H    1.8730286828    3.8022869414   -0.7071949722
 H    0.0594915309    2.1965407177   -2.6248170451
 H   -0.5099944327    3.6001794231   -1.7145694324