14

 O   -0.0827566633    1.3212610813   -0.0063689098
 N    0.0277223755   -0.0747987923    0.0337822939
 C   -1.1196815143   -0.6386873591   -0.0012662866
 C   -2.4744820085   -0.0688079717   -0.0346876236
 C   -3.3877875592   -1.0505209031    0.0476945626
 C   -2.7267099395   -2.3913159750    0.0899637471
 N   -1.9642712356   -2.6737641122   -1.1606914793
 C   -1.2646610344   -2.1277704399    0.0365808652
 H    0.8386726744    1.5994326904    0.0256179794
 H   -2.6661731672    0.9893682610   -0.1356723531
 H   -4.4623838231   -0.9158768329    0.0410525601
 H   -3.1570420935   -3.2181867796    0.6434125002
 H   -1.7659346342   -3.6737483255   -1.1980963862
 H   -0.5238164271   -2.7343939013    0.5417597800