19

 C   -0.1345209788    1.5896029509    0.0029089080
 C   -0.0139808150    0.0618330997   -0.0382822090
 C   -1.3876473073   -0.5969321767    0.0537880125
 C    0.7708909702   -0.4332473726   -1.2618485586
 C    2.2408704209   -0.0121115112   -1.1708255711
 N    2.8267958958   -0.2559430976    0.1426013764
 C    2.0389586393   -0.4115081301    1.1196298816
 O    0.6868650717   -0.3589953299    1.1668554981
 H    0.8473077752    2.0693756993   -0.0011375243
 H   -0.6978318020    1.9505780085   -0.8634759552
 H   -0.6592758539    1.9004840019    0.9103940584
 H   -2.0032459876   -0.3156516789   -0.8060389838
 H   -1.2909990720   -1.6859235327    0.0706136500
 H   -1.9024328534   -0.2829546985    0.9663052849
 H    0.7092111587   -1.5272179966   -1.2921353810
 H    0.3056810740   -0.0564553563   -2.1789944346
 H    2.8357287418   -0.5553826504   -1.9134798425
 H    2.3609388527    1.0517740656   -1.4157220425
 H    2.4285381596   -0.6330976843    2.1124863827