16

 C   -0.0450469165    1.6083420327   -0.0203057019
 C    0.1433830251    0.0950197910    0.0390209474
 C    1.3823281656   -0.7177632715   -0.2022789036
 C    2.6669376035   -0.1544944297    0.4696709309
 O    2.3539311093    1.0735281236    1.1451619909
 C    2.0430832725   -0.1598303725    1.7851746487
 C    0.7045478640   -0.7293948958    1.1955020749
 C   -0.0050700101   -1.7940402490    1.8123318215
 N   -0.5718277084   -2.6592944069    2.3349767894
 H    0.7453968927    2.0919211854   -0.5955733291
 H   -1.0033135466    1.8340777401   -0.4974270601
 H   -0.0476944538    2.0577597174    0.9734654640
 H   -0.7086269724   -0.4469568149   -0.3677517732
 H    1.4079724463   -1.5512293419   -0.8921761908
 H    3.6894614315   -0.3163202682    0.1554054538
 H    2.4244442672   -0.3483278297    2.7804853271