16

 C   -0.0795572990    1.5140336735    0.2163845810
 C   -0.0760694215    0.0338846566    0.0560177650
 N   -1.0349528330   -0.7640244706    0.3088649558
 C   -0.5711942459   -2.1137884816   -0.0114063278
 C   -1.0491931720   -2.6317787179   -1.3994592309
 C    0.3472279142   -2.3011805290   -1.9657897283
 O    0.8373152510   -2.3387996545   -3.0528338168
 C    0.8793958776   -1.8893139777   -0.5575916951
 O    1.1101924350   -0.4863972001   -0.4017569608
 H    0.7297269724    1.8222287645    0.8853987793
 H    0.0940863810    1.9992013985   -0.7491363595
 H   -1.0374433018    1.8365221668    0.6223619047
 H   -0.7263888560   -2.7950184718    0.8264245059
 H   -1.2754404104   -3.7024576603   -1.4427078871
 H   -1.8787910708   -2.0767448386   -1.8456022825
 H    1.7358101091   -2.4483411477   -0.1758281429