17

 C    0.0566270783    1.4851232415   -0.0151325949
 C    0.0307910258   -0.0133164260    0.0021619652
 C    0.6090576886   -1.0075932628   -1.0656907299
 O    2.0137935096   -0.9284065190   -1.2417610288
 C    0.0226370317   -1.9897191654    0.0153146917
 C    0.6145320957   -1.0063292041    1.1079202599
 O    1.9676184859   -0.9988791646    1.4155462317
 C   -1.1437144633   -0.9983430306    0.0133116797
 O   -2.3371157720   -0.9886298322    0.0271640518
 H    1.0848491962    1.8563246830    0.0416528295
 H   -0.3992077273    1.8794896796   -0.9290856171
 H   -0.4969901890    1.8894867738    0.8379903192
 H    0.1088039327   -1.0097809910   -2.0408717590
 H    2.2941069341   -1.6812878380   -1.7730065473
 H    0.0118367013   -3.0769102971    0.0077405474
 H    0.0754535243   -0.9998989124    2.0578811587
 H    2.4493339174   -0.9687713447    0.5762510220