18

 O    0.0115250769    1.3786753433   -0.0394240413
 C    0.0314020838   -0.0192286606    0.0109273015
 C   -0.4306755763   -0.7884436576   -1.1968660258
 C   -1.2673202873   -0.7824620580    0.0748819016
 C   -1.1259368830   -1.9018429215    1.0857807336
 C   -0.1521790352   -3.0265704990    0.8304840930
 C    0.2824438774   -1.8420370868    1.6552124963
 C    1.0155867947   -0.6711799127    0.9970310272
 H    0.6844905447    1.6634290661   -0.6669580739
 H   -0.8206478143   -0.1879275769   -2.0127424837
 H    0.0879222813   -1.6863841375   -1.5142156038
 H   -2.2096297886   -0.2488807033    0.0381287014
 H   -1.9817933696   -2.1012988776    1.7200242863
 H   -0.3240922808   -3.9552611554    1.3649056641
 H    0.2552598764   -3.1732569786   -0.1637389973
 H    0.4624342865   -2.0093767768    2.7114138987
 H    1.9583916788   -0.9696749089    0.5226067196
 H    1.2562622949    0.0829041019    1.7529533025