18

 C    0.0299424640    1.4574475650   -0.0781548079
 N   -0.0001674222    0.0191726314   -0.0702792097
 C   -1.0997444022   -0.9445012649   -0.0925502112
 C   -0.0263621314   -2.0737399851   -0.0386748813
 C    0.0228899892   -3.0333648226   -1.2362563754
 C    1.1276385288   -3.9813827495   -1.1636412482
 C    2.0276883315   -4.7730049181   -1.0860814606
 C    1.0072417270   -0.9147568027   -0.0312909120
 O    2.2049373911   -0.8064215761   -0.0089935648
 H    1.0782740822    1.7648931887   -0.0569104357
 H   -0.4401945898    1.8664462183   -0.9810881295
 H   -0.4796261888    1.8773559202    0.7980814424
 H   -1.7677464284   -0.8856872579    0.7743886689
 H   -1.6977150510   -0.9174875616   -1.0122087887
 H   -0.0292435640   -2.6345069332    0.8988231251
 H   -0.9253639928   -3.5844927724   -1.2886696358
 H    0.0920270842   -2.4525791606   -2.1654925223
 H    2.8356828724   -5.4589019789   -1.0239117232