19

 C    0.1767428956    1.4886557680   -0.6158977660
 N    0.1401683881    0.1037387724   -0.1826362259
 C   -0.8996834093   -0.5240004933    0.1079353019
 C   -1.1023673211   -1.9574634096    0.5789963862
 C   -2.6283998584   -1.6643161776    0.6337205547
 C   -3.2944921308   -1.7478888532    1.9985415420
 N   -2.3250611116   -0.2873246078    0.1627570971
 C   -3.2213693124    0.6870471742   -0.1792685618
 O   -2.9780753551    1.7949158637   -0.6020254438
 H    0.6688654463    1.5312304262   -1.5945305385
 H   -0.8025974213    1.9701716104   -0.6817276367
 H    0.8169980541    2.0484167409    0.0759118397
 H   -0.7961311669   -2.7133827725   -0.1460210904
 H   -0.6452880574   -2.1791844244    1.5458328612
 H   -3.2016354969   -2.2240163993   -0.1128733714
 H   -2.7232446399   -1.1865965973    2.7445452267
 H   -4.3130346434   -1.3480276938    1.9748608243
 H   -3.3533524646   -2.7923592045    2.3216409113
 H   -4.2581556050    0.3296681473   -0.0177506007