19

 C    0.0404837893    1.0674361265   -0.5171756027
 O   -0.1543698029   -0.3261549688   -0.3514181414
 C   -1.3862641005   -0.6487435680    0.2159328607
 O   -2.4767351303   -0.3456544222   -0.6330642879
 C   -2.5941642772   -1.3986475423   -1.6003383058
 C   -2.1985720098   -2.6808044683   -0.8543430062
 C   -0.8502726171   -3.3706885038   -1.1665774720
 O   -0.2776199465   -2.9277643083    0.0832171380
 C   -1.4618601358   -2.1870826864    0.4081867041
 H    1.0301398724    1.1996586927   -0.9592614702
 H   -0.7175610356    1.5060835527   -1.1765604977
 H    0.0082735390    1.5907403968    0.4504532351
 H   -1.5560571035   -0.0719919120    1.1359934885
 H   -3.6289388430   -1.3972567314   -1.9503450452
 H   -1.9345061874   -1.2104221099   -2.4575830405
 H   -3.0360126518   -3.3594909112   -0.6959525980
 H   -0.8791347425   -4.4640938642   -1.2281689018
 H   -0.3084534357   -2.9696944663   -2.0323022627
 H   -1.8545909712   -2.4475119557    1.3956482456