17

 C   -0.4539058786    1.5256652867    0.2463897838
 C    0.0318242944    0.0826236070    0.1233937142
 N    1.3343151006   -0.0982175817   -0.5637795229
 C    1.7348822407   -1.1648747517    0.3802025819
 C    0.6626755363   -0.6496331995    1.3789343503
 C    1.2263782796    0.3003816434    2.4092441041
 O    0.8594155697    0.3441685082    3.5543490987
 C   -1.0319305686   -0.7596834271   -0.4545507548
 N   -1.8426588663   -1.4246985508   -0.9427715160
 H    0.3483851099    2.1591681244    0.6288946404
 H   -0.7542012782    1.9063241981   -0.7340710426
 H   -1.3159913338    1.5888795238    0.9166115943
 H    1.2866863791   -0.3517395962   -1.5452975161
 H    1.5168114145   -2.1862763819    0.0467650137
 H    2.7803171656   -1.1058036956    0.6998701660
 H    0.0238263246   -1.3821686475    1.8689795801
 H    2.0372892504    0.9634406704    2.0339163150