19

 C    0.1979423038    1.2387161109    0.1608018262
 O   -0.0992079122   -0.1048774908   -0.1870843192
 C    0.5844839960   -0.5489757254   -1.2903976592
 C    0.3075160416   -0.2171644056   -2.7579909555
 C    1.1908567992   -1.4599663119   -3.0614529797
 C    0.9187797197   -1.9769254936   -1.5852810293
 C    2.0496164374   -1.0269847377   -1.1874642175
 C    2.6206211537   -1.0441268672   -2.6027364388
 O    3.6183408402   -2.0167790281   -2.8208347742
 H    1.2666978460    1.3684597644    0.3793461730
 H   -0.0831693432    1.9355338111   -0.6406780059
 H   -0.3849544530    1.4720829001    1.0541059239
 H   -0.7440972501   -0.3894143436   -3.0047438324
 H    0.6359103928    0.7451585533   -3.1678612498
 H    1.0623688140   -2.0348364924   -3.9759700612
 H    0.5530424263   -2.8984873743   -1.1574915062
 H    2.5760438638   -0.9829383399   -0.2416824368
 H    3.0206491397   -0.1144623060   -3.0220635420
 H    3.3433258044   -2.8196514333   -2.3614916755