19

 C    0.1195675460    1.5506085667   -0.1280426909
 C    0.0509991421    0.0395814161   -0.0419864272
 C    1.1668207644   -0.7566300793   -0.6216710953
 N    1.0197181493   -0.6464046001    0.8408927405
 C   -1.3077088341   -0.6142575005    0.0124393553
 C   -2.5890642086    0.1312747771    0.2285638501
 C   -2.3300744480   -0.5224461697   -1.1218723406
 C   -2.0885531938    0.2905110421   -2.2794967517
 N   -1.8960335681    0.9382134555   -3.2195111519
 H    1.1612631998    1.8762583736   -0.2079941206
 H   -0.4111162002    1.9369846891   -1.0029567760
 H   -0.3108404789    2.0146712623    0.7665821687
 H    0.9767562631   -1.7474621697   -1.0254711188
 H    1.9721238123   -0.2175918863   -1.1133215377
 H    1.6878252581    0.0279248407    1.2069899827
 H   -1.2545617639   -1.6026136523    0.4570527968
 H   -3.3580225553   -0.3123153471    0.8502225991
 H   -2.5565416738    1.2137133005    0.2554030252
 H   -2.8800859703   -1.4310739586   -1.3425514376