19

 C    0.0534496571    1.5101702523    0.0407625459
 C   -0.0324982612    0.0157880616   -0.0404071606
 C   -0.8856465031   -0.8171617370    0.8331675903
 N    0.5754922262   -0.9307962955    1.0008552844
 C    1.0091641880   -1.8338518063   -0.1219445622
 C    0.5109736111   -0.8253995978   -1.1859259677
 O   -0.4629079951   -1.2632068779   -2.1229133399
 C   -0.0849981984   -1.4168989782   -3.4076269911
 N   -0.8902683095   -1.8974336192   -4.2511969733
 H    1.0501779619    1.8697411875   -0.2371771303
 H   -0.6752599731    1.9740566435   -0.6340642053
 H   -0.1590009346    1.8548535242    1.0565356260
 H   -1.3689700521   -0.3098959921    1.6624617745
 H   -1.4415625442   -1.6578342001    0.4250242020
 H    2.0919777951   -1.9725604956   -0.1121555973
 H    0.5118774748   -2.8084738323   -0.1273664055
 H    1.3359408801   -0.3298848013   -1.7100949349
 H    0.9431092741   -1.0793672591   -3.6032350579
 H   -0.4539344171   -1.9259150367   -5.1702883572