21

 C   -0.0450678679    1.4812621734   -0.1969665852
 C    1.3085094591    0.8768055022    0.0853828627
 C    1.9738708082    0.9674757508    1.4448085928
 C    2.7596793327   -0.3095383593    1.7763379249
 C    1.9470030877   -1.5693590906    2.0148154679
 O    0.9717796713   -1.5635534384    3.0614896703
 C    0.5164277978   -1.7900432430    1.7183227429
 C   -0.4328317411   -0.7475641153    1.1328858873
 C    0.1051748721   -0.0188623530   -0.0856986401
 H   -0.5512471752    1.9945629407    0.6153416144
 H   -0.2231246757    1.9171235282   -1.1740298805
 H    2.0100841357    0.8847926048   -0.7459546791
 H    2.6585825070    1.8235327539    1.4674667698
 H    1.2339675833    1.1503818751    2.2300023373
 H    3.4608964469   -0.5251008009    0.9585383509
 H    3.3788594424   -0.1472341252    2.6686402729
 H    2.5702136468   -2.4682853728    2.0262204342
 H    0.2257849946   -2.8274240596    1.5393023573
 H   -1.3840327025   -1.2317516201    0.8845227988
 H   -0.6581966722   -0.0327931235    1.9294193270
 H    0.0517145491   -0.5806211872   -1.0142524364