20

 C   -0.2244516630    1.5670789735    0.0608226996
 C    0.0557541237    0.0713972864   -0.0125509092
 C   -1.2374592752   -0.7173831272   -0.1885231769
 C    1.1815779287   -0.4188460440   -0.9738182147
 C    1.8725498845   -1.0139724915    0.2576153181
 C    2.1205990842    0.0497611717    1.2601206350
 N    0.7662070860   -0.5117465115    1.2056120941
 C    2.4412892160   -2.3188468404    0.3274524075
 C    2.9316184509   -3.4177201117    0.3454218278
 H    0.6851438470    2.1652348734    0.1585624517
 H   -0.7379727210    1.8988742152   -0.8479300670
 H   -0.8721465145    1.7906440184    0.9152576873
 H   -1.7284765996   -0.4516756752   -1.1308285837
 H   -1.0365056835   -1.7923821560   -0.1911824168
 H   -1.9267173165   -0.5073108428    0.6353810021
 H    0.8384203372   -1.1695930027   -1.6867363954
 H    1.7593254729    0.3415326992   -1.5073486990
 H    2.6518305799   -0.2375384514    2.1618887590
 H    2.3165646486    1.0647359947    0.9232385226
 H    3.3608427237   -4.3883983982    0.3739557878