19

 C   -0.2774107722    1.4921215594   -0.0867089126
 C    0.0066507586    0.0108593620    0.0126582609
 C    1.3402967314   -0.5758225881   -0.3295589751
 O    2.3617774698    0.3228145279   -0.6444439418
 C    3.3682070367    0.4320486482    0.3540452540
 C    2.7754934782    1.0124562737    1.6427417774
 C    1.6254868650    0.1474417479    2.1492573220
 O    1.3891584532    0.0242566577    3.3312402179
 C    0.8707640341   -0.6260150429    1.1168706482
 H    0.6391382313    2.0821130046   -0.0449714081
 H   -0.7631476045    1.7139717419   -1.0426428076
 H   -0.9455919423    1.8226484248    0.7143682523
 H   -0.8421668595   -0.6193116078   -0.2393404305
 H    1.3924930573   -1.5094316964   -0.8871316460
 H    3.8274844271   -0.5487528536    0.5486453888
 H    4.1374314917    1.0889634259   -0.0605227598
 H    3.5182254256    1.0890712286    2.4421053912
 H    2.4037515529    2.0243817217    1.4409235398
 H    0.4894459056   -1.5634251554    1.5069050990