23

 C    0.0014068739    1.5466912414    0.0228207579
 C   -0.0467489566    0.0105415675   -0.0028475766
 C   -1.5196485739   -0.4424530430    0.0323435461
 C    0.6520728652   -0.4980252436   -1.2841293687
 C    0.6433330068   -2.0283867473   -1.4177587761
 C    1.1227592212   -2.7104969554   -0.1574789800
 O    2.3469721531   -2.2235978763    0.3964757194
 C    1.1333358489   -1.9903723122    1.1288660823
 C    0.6956036501   -0.5399581529    1.2416247074
 H    1.0315333987    1.9116056332   -0.0533870281
 H   -0.5676858192    1.9727886230   -0.8110172682
 H   -0.4251737451    1.9400389186    0.9526007984
 H   -2.0457288825   -0.1465567567   -0.8822403213
 H   -1.6157263486   -1.5272974917    0.1376714488
 H   -2.0419322325    0.0156655871    0.8794271502
 H    0.1730824558   -0.0527907254   -2.1640867030
 H    1.6911997350   -0.1501409421   -1.2784767934
 H   -0.3662372912   -2.3928287822   -1.6441696175
 H    1.2764415147   -2.3363367513   -2.2588568709
 H    1.0300156859   -3.7980537824   -0.1410635303
 H    1.0677505176   -2.5801342669    2.0438343238
 H    1.5957181656    0.0577178242    1.4310567692
 H    0.0559341772   -0.4254064957    2.1249208705