23

 C   -1.1254979310    1.0342871853   -0.0100451566
 C   -0.1075035275   -0.0941212048   -0.0723588870
 C    1.1813955929    0.1066880313   -0.9205518432
 C    2.0342462995   -0.5323909726    0.2143503069
 C    3.1631124384    0.3299793364    0.8030806930
 C    2.4540642445    1.1765959332    1.8451296888
 C    3.1609397895    2.2891391057    2.5540056706
 C    1.1919741659    0.7742047035    2.0318899164
 C    0.7999333966   -0.3936027998    1.1692556291
 H   -0.6550744309    1.9705213383    0.3087765507
 H   -1.5820250331    1.2061836190   -0.9915567417
 H   -1.9337418533    0.8088680170    0.6954566795
 H   -0.6072990482   -1.0214806203   -0.3745743527
 H    1.2077196475   -0.3855393938   -1.8962111809
 H    1.4220607746    1.1651807526   -1.0648046047
 H    2.3391296572   -1.5563771839   -0.0086082192
 H    3.9581427352   -0.2710347733    1.2682732383
 H    3.6566255809    0.9437696003    0.0363844052
 H    3.5117306876    3.0511256396    1.8459201514
 H    2.5151442268    2.7791397002    3.2878595441
 H    4.0535092262    1.9213152932    3.0769568535
 H    0.5127672033    1.2279573110    2.7477454942
 H    0.4924523776   -1.2616133282    1.7640519943