18

 O    0.0449885647    0.0083486093    0.3481928508
 C   -0.0409484728    1.1717494963    0.0684220104
 C   -1.1741572726    2.2104609265   -0.1182713141
 C   -0.0370712759    3.2432196813   -0.3606483162
 C    0.2566243763    4.3532623558    0.6432838728
 C    1.7410291134    4.7678344934    0.5159533301
 C    2.6721190645    3.5754647030    0.4878145234
 C    2.2474214391    2.3411870579    0.1941191162
 N    0.9240550366    2.1419676024   -0.1883262031
 H   -1.8536327313    2.0277540474   -0.9526068247
 H   -1.7524733653    2.3701549859    0.7950283887
 H   -0.0128073305    3.6359320213   -1.3840948599
 H   -0.4012990902    5.2130283146    0.4840003483
 H    0.0708174273    3.9779170204    1.6568359555
 H    1.8803470889    5.3815861106   -0.3857883663
 H    2.0086718099    5.4190015694    1.3562877529
 H    3.7152669717    3.7297437276    0.7391202002
 H    2.8690327462    1.4545296569    0.2305077951