20

 C    0.0340686806    1.5133745383   -0.3315281283
 C    1.4675244581    1.6124625096    0.3130386925
 C    1.4082833372    0.0929262106    0.6345655836
 C    0.8469657529   -0.3904099276    2.0009248766
 C   -0.5864541845   -0.4895188920    1.3563470027
 C    0.0074825877   -0.0039091488    0.0046609797
 C    0.5258189304   -1.0384953430   -1.0329111371
 C    1.9593509507   -0.9393991194   -0.3882868347
 H   -0.7362949299    2.1074240885    0.1694401378
 H   -0.0061456091    1.7469227672   -1.3997527031
 H    2.2631315935    1.9037610222   -0.3793634481
 H    1.5323805915    2.2642664637    1.1895486031
 H    1.2576289525   -1.3408118420    2.3550200947
 H    0.9347297818    0.3354317227    2.8150135394
 H   -1.0112040578   -1.4976916346    1.3347417248
 H   -1.3338840094    0.1785528683    1.7948870316
 H    0.0603302046   -2.0265582647   -0.9670921677
 H    0.4676903393   -0.7104981202   -2.0751903972
 H    2.7365890317   -0.5536387967   -1.0549187620
 H    2.3293331082   -1.8697091321    0.0532063315