20

 C   -0.6573422145    1.3200171723    0.2479217570
 C   -0.2369146883   -0.1442068964    0.1740476922
 O   -1.3498586273   -1.0048990225    0.3509407987
 C    0.7329884633   -0.4431998059   -1.0104620315
 C    1.9212649793   -0.3473612532   -0.0135258626
 C    0.9204150264   -0.5479310403    1.1431971589
 C    1.0772674611    0.2500258064    2.4213050205
 N    0.1387668691   -0.0560657068    3.3714269313
 O    1.9390736428    1.0913994252    2.5908600566
 H    0.2069005358    1.9876590782    0.1967169682
 H   -1.3185273478    1.5642847130   -0.5929724432
 H   -1.1919665653    1.5243462334    1.1804685555
 H   -2.0827439353   -0.6699872755   -0.1775755539
 H    0.5805786172   -1.4639582689   -1.3698332204
 H    0.7169004314    0.2460070133   -1.8591366451
 H    2.7176185642   -1.0863922686   -0.1098080824
 H    2.3679941722    0.6478140376    0.0311309893
 H    0.7880302553   -1.6089475257    1.3754712313
 H   -0.6651612450   -0.6105293269    3.1244996953
 H    0.0781348553    0.5404509016    4.1813253843