15

 O    0.0129504387    1.2801399832    0.0431028943
 N    0.0107946534   -0.0933763315   -0.0139869723
 C   -1.1509364052   -0.6234430632   -0.0018384827
 C   -1.2839244337   -2.1295797928   -0.0034472762
 O   -1.1786400342   -2.6595201944    1.3117722482
 C   -2.7330318218   -2.2984217982   -0.4627769677
 O   -3.4094828163   -1.0689161488   -0.1435460563
 C   -2.5188543878   -0.0464926708    0.0403549059
 N   -2.8394958880    1.1625530779    0.2256726103
 H    0.9538753680    1.4899277656    0.0004045796
 H   -0.5693117561   -2.6076914580   -0.6835793127
 H   -0.3479043016   -2.3410972305    1.6830446953
 H   -2.7962764840   -2.4687774348   -1.5431305620
 H   -3.2273865062   -3.1118732739    0.0703852223
 H   -3.8574855252    1.2586778601    0.2050189040