15

 C   -0.0164413596    1.4770479270   -0.0447600708
 N    1.3366313525    2.0528762027    0.0293903553
 C    2.3523518612    1.3187277448    0.2516094788
 N    2.3841297960   -0.0509692404    0.4731643077
 C    1.1836804109   -0.7244125050    0.2300712818
 C    0.0547702072   -0.0109713090   -0.0077322842
 O   -0.9944658652   -0.8568335333   -0.2043504850
 C   -0.5050573562   -2.1211342800   -0.0872930173
 C    0.8297421570   -2.1095878555    0.1835576457
 H   -0.6159872929    1.8866964864    0.7839223410
 H   -0.5009325506    1.8418281289   -0.9620286357
 H    3.3346531923    1.7890278664    0.3014940430
 H    3.2617507465   -0.5325337976    0.3648541893
 H   -1.2206597190   -2.9149788478   -0.2204280543
 H    1.4662494497   -2.9686181675    0.3259899148