19

 C   -0.0048144644    1.5384454350    0.0073995035
 C    0.0410235738    0.0389139751    0.0043626194
 C   -0.8513948681   -0.8573902189    0.8197624797
 C    0.6409207793   -0.9581158940    1.0163451717
 C    1.2880963739   -1.7604195689   -0.1201818981
 O    1.1027663916   -3.1515872463   -0.2062229456
 C    0.6028701442   -0.8067600235   -1.1260535797
 C    0.1224388520   -1.0414615998   -2.4873537217
 O    1.3031872232   -0.2588811761   -2.2250900593
 H    0.9429710050    1.9594771428   -0.3413938112
 H   -0.7955542999    1.9122622793   -0.6535597880
 H   -0.2046897561    1.9234845469    1.0123042301
 H   -1.3881023918   -0.3725483391    1.6295638547
 H   -1.4197708309   -1.6563061726    0.3451576961
 H    1.1008613020   -0.7540744553    1.9757773190
 H    2.3687921251   -1.5957560582   -0.1613819184
 H    0.1743525992   -3.3395264675   -0.0319614805
 H    0.3049787302   -2.0054446827   -2.9597367622
 H   -0.7303267682   -0.4818890362   -2.8696753697