16

 O    0.0710167796    1.4421233651    0.0222331342
 C    0.0432468257    0.0249890870    0.0148334763
 C    0.6282556963   -0.5890252803    1.2938112713
 C   -0.5777559109   -0.7263899397    2.2353582143
 O   -0.5676930523   -0.8488230902    3.4374180169
 N   -1.6900744672   -0.6872409246    1.4307446640
 C   -1.4232806982   -0.5148697813    0.0247765467
 C   -2.3892811143    0.4353720165   -0.6546420104
 O   -3.3323130385    0.9351036134   -0.0990535810
 H   -0.3155215983    1.7546536256    0.8493976350
 H    0.5711588017   -0.2704228061   -0.8932300669
 H    1.0432174748   -1.5862137827    1.1096379252
 H    1.4130472110    0.0287264234    1.7331464920
 H   -2.6246419968   -0.6756439746    1.8083422161
 H   -1.4679985390   -1.4679236419   -0.5323152356
 H   -2.1733014635    0.6150912404   -1.7286769880