21

 C    0.0587608855    1.5151189098    0.0355296892
 C    0.0205725945   -0.0035729814   -0.0024372035
 C    0.7056453542   -0.5851453330   -1.2408016173
 O    0.7180596467   -2.0078104265   -1.1943070606
 C    1.3445003901   -2.4666662196   -0.0225763340
 C    1.8504832511   -3.8685048586   -0.0747741995
 C    2.8322348828   -2.7098193733   -0.0829267486
 C    0.6958969435   -1.9007942961    1.2175964955
 O    0.6736586555   -0.4812779973    1.1711230011
 H    1.0924329309    1.8741268950    0.0188400311
 H   -0.4724817706    1.9376655736   -0.8227957547
 H   -0.4135960129    1.8807364080    0.9508403135
 H   -1.0256387607   -0.3570550622    0.0024490386
 H    0.1660046782   -0.3093644016   -2.1517111827
 H    1.7343015723   -0.1964054770   -1.3032947943
 H    1.7727332161   -4.4813332584    0.8172151391
 H    1.6979834965   -4.3993924943   -1.0075221690
 H    3.3270618481   -2.4901330021   -1.0221095728
 H    3.4292984614   -2.5266600930    0.8039437226
 H   -0.3326103878   -2.2910014207    1.3005206449
 H    1.2489847848   -2.1797830213    2.1188622314