14

 C    0.0054961460    1.4277020268    0.0277881229
 N   -0.0662418020   -0.0172441274   -0.0523149867
 C   -1.2608908745   -0.6649704782    0.0091756689
 N   -2.3786542774   -0.0415711660    0.0582516950
 C   -1.1486811459   -2.1437906755    0.0002834745
 N   -0.0398843466   -2.8273714912   -0.0331477441
 O   -0.4259672181   -4.1195572086   -0.0186451027
 N   -1.8244428488   -4.1665233036    0.0241353913
 N   -2.2462323216   -2.9865073266    0.0358464801
 H    1.0422034998    1.7364097979   -0.1171630045
 H   -0.6173198708    1.8788627587   -0.7495973189
 H   -0.3517825320    1.8001955144    0.9954886997
 H    0.7741751387   -0.5603624763    0.0441867403
 H   -3.1558773967   -0.6984526644    0.0681974042