18

 C    0.2771031074    1.5849045517    0.0494604775
 C   -0.2599844308    0.1783134814   -0.2365264995
 C    0.5154217180   -0.5098326040   -1.3343302951
 N    1.7944928814   -1.1165792838   -0.9595939079
 C    0.6846509098   -2.0006425112   -1.4048289670
 C    0.1142035009   -2.8939609719   -0.4410242206
 C   -0.3936710627   -3.6683163961    0.3398471338
 C   -0.9613519708   -4.5334539229    1.2218516881
 C   -1.4671168113   -5.3026172695    2.0039710353
 H    1.3277606671    1.5398681934    0.3520039524
 H    0.2082840059    2.2274045955   -0.8357722579
 H   -0.2879540332    2.0655333507    0.8533670990
 H   -0.2071354653   -0.4352254935    0.6679047283
 H   -1.3168727943    0.2271886323   -0.5272613373
 H    0.4679886326   -0.0168364109   -2.3061208317
 H    2.4730953742   -1.0333196334   -1.7123098124
 H    0.7598777933   -2.4194562523   -2.4068604526
 H   -1.9097487722   -5.9779925453    2.6930864276