20

 C    0.0720193824    1.5166506378   -0.1663314797
 C    0.0703273351    0.0215238676   -0.1009754244
 C    0.0297886495   -0.8322773010   -1.1248678337
 C   -0.0170276380   -2.2741440507   -0.6939557777
 C    0.3262479709   -2.1954352102    0.8131073434
 C    0.0569266375   -0.7297276445    1.2307334370
 C    1.1169918980   -0.2021827836    2.2061835986
 N    0.6491247379    0.6693486164    3.1477519032
 O    2.2930866170   -0.5015239474    2.1310450710
 H    0.9644284186    1.9379657370    0.3114895512
 H    0.0424681828    1.8675903567   -1.2012091543
 H   -0.7936028153    1.9421263733    0.3591627582
 H   -0.0075682338   -0.5295855660   -2.1666834939
 H   -1.0160410967   -2.6994439815   -0.8683104020
 H    0.6847160913   -2.9097261419   -1.2461526298
 H   -0.2321795675   -2.9129152757    1.4195249044
 H    1.3924865195   -2.3824187019    0.9618374506
 H   -0.9350375469   -0.6149977676    1.6949673800
 H   -0.3297930975    0.8617254081    3.2622313341
 H    1.3006083752    1.0443435951    3.8178695640