19

 O    0.0844774030    1.3061177064   -0.4432687916
 C    0.0524209057    0.0367676031    0.1876394272
 C   -1.3552897750   -0.5151521240    0.2335713864
 C   -2.3790583298    0.2569046267    1.0420504001
 C   -3.7287859267   -0.4633315621    1.0342351921
 O   -3.5769066793   -1.8110610761    1.4543390345
 C   -2.8619708543   -2.6040715492    0.5268765461
 C   -1.6141653485   -1.9392087916   -0.0301435840
 O   -1.8252227721   -0.9565838754   -1.0591530365
 H   -0.2618922499    1.1783280589   -1.3341013490
 H    0.7082461743   -0.6840104216   -0.3228973001
 H    0.4376891026    0.1876382091    1.2017596420
 H   -2.0171822523    0.3416552683    2.0737506267
 H   -2.4721125264    1.2724305738    0.6425823336
 H   -4.4198348908    0.0005876822    1.7427303641
 H   -4.1765490533   -0.4182055822    0.0307139296
 H   -2.5810735434   -3.5167682355    1.0622897243
 H   -3.5063968926   -2.8925708499   -0.3204279253
 H   -0.7745068513   -2.6063191609   -0.2284373701