16

 C   -0.0258157076    1.5388906192    0.0029188426
 C    0.1424442880    0.0334884093   -0.0490598641
 C    0.7381523813   -0.7545272672   -1.1755177333
 C    1.9138852634   -0.0045823087   -1.8124960566
 C    2.6162788164   -0.0644926672   -0.4258045562
 O    3.7437680725    0.1322970282   -0.0722601580
 C    1.4321124528   -0.7345633052    0.2231302624
 O    1.5090391462   -1.7348966895    1.1644235595
 H    0.8204937480    2.0725740013   -0.4356486455
 H   -0.9292912765    1.8447740374   -0.5357497370
 H   -0.1261980224    1.8799199235    1.0387055715
 H   -0.6799094240   -0.5089388788    0.4173808095
 H    0.2329586273   -1.6015687574   -1.6203362725
 H    2.4768808662   -0.6041055394   -2.5337865155
 H    1.7174003717    0.9801068944   -2.2432584162
 H    1.3357591966   -1.3598688999    2.0345855595