21

 C    1.1264762904    1.1714540645   -0.2525437076
 O    1.1192322488   -0.1504932164   -0.8079388640
 C   -0.0952913514   -0.6443283020   -1.0744218160
 O   -1.1312773376   -0.0614403557   -0.8698762071
 C   -0.0587526701   -2.0543078881   -1.6458076490
 O    1.2301014946   -2.4398215982   -2.0268857817
 C    1.3892106534   -3.8315057912   -2.2988883853
 C    0.7227062906   -4.2394497223   -3.6157812533
 C    2.8907100563   -4.0924429857   -2.3085546678
 H    0.6499572807    1.8788205737   -0.9357728711
 H    0.5923829911    1.1919342958    0.7008121321
 H    2.1766184280    1.4250718607   -0.1091533163
 H   -0.4675414853   -2.7197550824   -0.8653942719
 H   -0.7785350626   -2.0676142916   -2.4769538994
 H    0.9284853044   -4.4031543606   -1.4744390789
 H    0.8884541049   -5.3035633940   -3.8110581232
 H   -0.3582373845   -4.0728102538   -3.5967294140
 H    1.1450613008   -3.6653307426   -4.4468042172
 H    3.3370933329   -3.7837078903   -1.3600020602
 H    3.0963734190   -5.1552713059   -2.4655818852
 H    3.3685336556   -3.5242750740   -3.1128601228