17

 C   -0.0031052507    1.5430680144    0.0792502789
 C   -0.0666697268    0.0162179428    0.0371074114
 C   -1.4996387206   -0.5036175937    0.1094930624
 O   -2.4593613028    0.1418971674   -0.2689405348
 N   -1.6261293468   -1.7751440500    0.6110434799
 C   -2.9087520714   -2.4322909744    0.7298149803
 C   -3.0462378966   -3.6134612370   -0.2185806808
 O   -3.6359328831   -4.6272045303    0.0449839886
 H    1.0204322021    1.8916246020   -0.0825084176
 H   -0.6491815225    1.9675691127   -0.6915083163
 H   -0.3461110220    1.9250255212    1.0451491767
 H    0.3597456246   -0.3518289277   -0.9057245604
 H    0.5363237319   -0.4275505048    0.8383222970
 H   -0.8041039607   -2.2498698765    0.9466146092
 H   -3.1140582382   -2.7659792932    1.7520565242
 H   -3.6598539647   -1.6826156741    0.4491757868
 H   -2.5469583816   -3.4576413989   -1.2027251056