14

 O   -0.1399833994    1.3872915621    0.3028334442
 C   -0.0516189224   -0.0080472228    0.1207742491
 C   -1.4526232183   -0.5534126645   -0.2680247815
 O   -0.9720830278   -0.8206013967   -1.6524768462
 C    0.2995959594   -0.6105656939   -1.2014191341
 N    1.4014229250   -1.1966038827   -1.4116155635
 C    2.1797804171   -0.9628284822   -0.1711324352
 C    1.1293592515   -0.6172247782    0.9390909451
 O    1.2537691074   -0.7419179860    2.1215924964
 H    0.7447729515    1.7637739866    0.3710122514
 H   -1.7709691766   -1.4870366512    0.1976255902
 H   -2.2305132186    0.2097031931   -0.2566776650
 H    2.7318786037   -1.8681195476    0.0969624760
 H    2.9155950175   -0.1531090262   -0.2660609570