23

 C   -0.1877968249    1.4728879157   -0.0482129525
 C    0.0545935352   -0.0403140172   -0.0311061648
 C    0.9679464997   -0.4865535038   -1.1681408922
 C    2.3781059841   -0.6057256588   -0.6123619488
 C    2.3159227916   -0.2483221723    0.8654531319
 C    0.8361032668   -0.5358276596    1.2155571905
 C    0.6422356139   -2.0557638935    1.3609980776
 C    1.1029909579   -2.8024874094    0.0761091388
 C    1.6051914625   -1.8465859414   -0.9984758640
 H    0.7518191556    2.0322620509    0.0092070788
 H   -0.6947342215    1.7782396308   -0.9702305586
 H   -0.8154834790    1.7813941013    0.7949434083
 H   -0.9204643036   -0.5445127308   -0.0785615270
 H    0.7848099545   -0.1086135108   -2.1688506284
 H    3.2438540650   -0.3180921731   -1.1985547282
 H    3.0015724787   -0.8368719343    1.4868171770
 H    2.5691030599    0.8072819009    1.0151189491
 H    0.5156710492   -0.0270911919    2.1298106585
 H    1.2058700572   -2.4119923592    2.2302734558
 H   -0.4124788396   -2.2686730836    1.5671662408
 H    1.8984857649   -3.5170903316    0.3174330372
 H    0.2799403175   -3.4001668043   -0.3323175443
 H    1.9258910245   -2.3283594540   -1.9182167957