21

 C    0.9813717043    1.3725100834    0.2548452997
 C    0.8864308620    0.2471938810   -0.7429939224
 C   -0.2318855455    0.4584421378    0.2425157281
 C   -0.4951791161   -0.4577527219    1.3861128655
 C   -0.0785945476   -1.7241524835    1.4467762638
 C   -0.3051065630   -2.6036363134    2.6456877676
 O   -0.7901777764   -1.9079931084    3.7771133811
 C   -1.8197076676   -0.9946348961    3.4414140265
 C   -1.2914320233    0.1199331200    2.5370889182
 H    1.6839549586    1.2543991888    1.0726557234
 H    0.8617462651    2.3926411942   -0.0931825289
 H    0.6990059900    0.4917224095   -1.7826165037
 H    1.5443136073   -0.6022471806   -0.6003192127
 H   -1.1305974987    0.9214306842   -0.1620657204
 H    0.4478780543   -2.1792072976    0.6121342763
 H   -0.9915292145   -3.4295777285    2.3771522380
 H    0.6364482935   -3.0716161266    2.9593343770
 H   -2.6482369038   -1.5207407842    2.9379973619
 H   -2.1983320894   -0.5974636477    4.3875232186
 H   -0.6674163492    0.8152737472    3.1145960809
 H   -2.1324323001    0.7126347026    2.1523616815