19

 C   -0.0883247502    1.5239462678   -0.0331524110
 C    0.0358400816    0.0173795703    0.0305561916
 O   -1.1115756305   -0.6591790137   -0.3961283851
 C    1.3651386849   -0.6730806166   -0.2313049733
 C    0.7566331082   -0.6744451251    1.1614727917
 C    1.3939415928    0.0813411026    2.3040595314
 O    0.1280539230   -1.8651886590    1.6103156857
 C    0.8929797123   -2.9703258204    1.7177191054
 O    0.4777826687   -3.9988876566    2.1606006948
 H    0.8191746125    2.0344625794    0.2963754298
 H   -0.2783882379    1.8352728399   -1.0675010894
 H   -0.9271832589    1.8662418567    0.5805123039
 H   -1.2115825933   -0.5004908777   -1.3414127235
 H    1.3129332667   -1.5960642989   -0.7976606120
 H    2.2577577212   -0.0785374184   -0.3975150482
 H    1.8499926111    1.0149052570    1.9695297239
 H    0.6482517387    0.3125852873    3.0707241800
 H    2.1796457856   -0.5247838092    2.7680817914
 H    1.9242034637   -2.8171085753    1.3487302730