18

 C   -0.0831685474    1.5122064969    0.0605024394
 C    0.0257642163    0.0211393455    0.0183447384
 C    0.8185905465   -0.8517183303   -0.9717027972
 C    1.0587309419   -2.1467169369   -0.2810431759
 C    0.9280001021   -1.9981607021    1.2136375925
 C   -0.1271907929   -0.9054864443    1.2195971162
 O   -0.6161716232   -0.3383715225    2.3871356974
 C   -1.0180221370   -1.0760087737    0.0062548560
 N   -0.2482617053   -1.9064653084   -0.9894206639
 H    0.8903114895    1.9744849104    0.2634922963
 H   -0.4545324051    1.9163328193   -0.8875829176
 H   -0.7670665450    1.8174618537    0.8570328566
 H    1.3056368400   -0.5169998457   -1.8814304348
 H    1.6757010905   -2.9155461349   -0.7315902324
 H    0.5808954490   -2.9169301324    1.7007529342
 H    1.8638822853   -1.6801305867    1.6847870714
 H   -1.2328977384   -0.9588965139    2.7913665539
 H   -2.1009280368   -1.0575375143    0.0040233893