14

 C    0.0312411069    1.5081635190    0.0188432273
 C    0.0046004104    0.0145968787   -0.0207907230
 C   -0.1329001581   -0.8099229821   -1.1147989575
 N   -0.0956907418   -2.0899889359   -0.6242734826
 C    0.0612630612   -2.0020425097    0.7349015865
 N    0.1241543773   -0.7373943039    1.1204475436
 C    0.1381325280   -3.1506154068    1.5547697375
 C    0.2001740146   -4.1483763566    2.2256352997
 H    0.9719215111    1.8723776634    0.4449048376
 H   -0.0770621100    1.9308245144   -0.9836574017
 H   -0.7780496789    1.8982838210    0.6448718320
 H   -0.2502480762   -0.6044530036   -2.1660599306
 H   -0.1688208073   -2.9434008266   -1.1523583170
 H    0.2567787830   -5.0179516113    2.8324525682