14

 N    0.1563696225   -1.1354161861   -0.1194109599
 C    0.0447643344    0.0155209269   -0.0473704025
 C   -0.0198829765    1.4267446942    0.0370208830
 C   -1.1249408378    2.1956304583    0.0558480356
 C   -0.7242450757    3.6587778649    0.2273674984
 N    0.7256226310    3.6781050993   -0.0030077266
 C    1.2165846411    2.3084806868    0.1935666701
 C   -2.4722960396    1.7668316118   -0.0042741440
 N   -3.5916373121    1.4721277795   -0.0545207224
 H   -1.2513133074    4.3279911409   -0.4580083972
 H   -0.9720128988    3.9819023897    1.2486944037
 H    0.8961042873    3.9472190100   -0.9647459424
 H    1.6296351390    2.1720464248    1.2033526324
 H    2.0108711825    2.0582565090   -0.5148755179