17

 C   -0.0583075264    1.4917619339   -0.0112467292
 O    1.1739614620    0.7575833048    0.0550647464
 C   -0.0404352580    0.0275286252    0.0201782921
 C   -0.4709718888   -0.8137608712    1.2506052530
 C   -1.6360274415   -1.6187131620    0.6827576788
 C   -1.5163309717   -1.6736701198   -0.6405439185
 C   -2.2520482624   -1.4673539229   -1.9403522199
 O   -1.3144788996   -0.3839795423   -2.2446505911
 C   -0.4058502245   -0.8373047804   -1.1826600264
 H   -0.3194628614    2.0462049468    0.8891548690
 H   -0.2486061007    2.0026522095   -0.9529803791
 H    0.3673030526   -1.4312405317    1.5990349189
 H   -0.7749291906   -0.1873243279    2.0953480671
 H   -2.4788422332   -1.9452294505    1.2802346960
 H   -2.1691655456   -2.2718147387   -2.6821339145
 H   -3.2904468824   -1.1258770044   -1.8791796464
 H    0.4747198822   -1.3204629584   -1.6251528563