18

 O    0.0463199508    1.4087709318   -0.0732646108
 C    0.0808136989    0.0102054824    0.1517119574
 C   -1.3124280089   -0.5630216282    0.0661169307
 C   -2.3462621709   -0.3529247636    1.1962603224
 C   -2.7944389834   -1.8417977072    1.0401934848
 C   -1.7230484593   -2.0617227525   -0.0643345219
 C   -2.1762637649   -1.6696890430   -1.4773226264
 O   -1.8894765769   -0.2687387354   -1.2395761883
 H   -0.4340359930    1.5283075561   -0.9021273543
 H    0.7324208051   -0.5003448099   -0.5764768193
 H    0.5053610334   -0.1447758758    1.1494076731
 H   -1.8927216136   -0.1329676144    2.1663939569
 H   -3.0949250821    0.4091305050    0.9735865977
 H   -2.6239820141   -2.4438483582    1.9351552989
 H   -3.8264170968   -1.9992079173    0.7150371962
 H   -1.0372568896   -2.9020521620    0.0400173310
 H   -1.5533503975   -2.0710793255   -2.2869776475
 H   -3.2322615971   -1.8388031522   -1.7226979507