18

 C   -0.0280189895    1.5501872949    0.0176853144
 C   -0.0085991774    0.0435392807   -0.0088132307
 C    0.7009479509   -0.8064948039   -1.1271621071
 C   -0.2532370477   -1.9581893255   -0.6652335803
 C    0.2475732718   -2.2116303399    0.7735242143
 C    0.4270622641   -0.7294704333    1.2602201155
 C   -1.2353693079   -0.7976716673   -0.4253306990
 O   -2.3890172135   -0.5719850937   -0.6459438304
 H    0.9707235745    1.9593199437    0.2059631463
 H   -0.3903683808    1.9587294026   -0.9307411351
 H   -0.6918287521    1.9134229236    0.8094546407
 H    0.4923319786   -0.4461737642   -2.1364370424
 H    1.7714100445   -0.9835509477   -0.9909910389
 H   -0.4974351117   -2.8119956396   -1.2933363126
 H   -0.4754698063   -2.7689523508    1.3746273084
 H    1.1892983088   -2.7670727589    0.7788072201
 H    1.4627688913   -0.5001741016    1.5287430819
 H   -0.2025868677   -0.4885852390    2.1216652251