18

 C   -0.0181823898    1.5054473245   -0.0351657898
 C    1.4038696345    2.0852800412    0.0133311675
 C    2.0923438863    1.7325307318    1.3439780976
 C    1.8816852054    0.2917268388    1.6861810681
 N    2.5377644309   -0.4520214058    2.5649755694
 C    1.9107059700   -1.6545958514    2.4638573922
 N    0.9185072604   -1.7080202767    1.5889188719
 N    0.9094556752   -0.4424325249    1.1003060307
 C    0.0053012581   -0.0245542954    0.0408672099
 H   -0.6045724964    1.9035965019    0.8021123918
 H   -0.5300092053    1.8033523696   -0.9550543990
 H    1.9889352941    1.6821656513   -0.8229631483
 H    1.3766889659    3.1713061814   -0.1144330221
 H    3.1653844966    1.9408779487    1.3103084940
 H    1.6839398308    2.3536684364    2.1521984231
 H    2.1908571647   -2.5163118883    3.0517020641
 H   -0.9838648442   -0.4378328893    0.2527302951
 H    0.3474738126   -0.4553363938   -0.9082535062