25

 C    0.1269863081    1.4539402973   -0.2571023381
 C   -0.0325817230   -0.0643060893   -0.0421824278
 C   -1.5220919652   -0.3585208471    0.1943398713
 C    0.5161804917   -0.8781614155   -1.2518934639
 C    1.9909068808   -1.2026864616   -0.9651537054
 C    3.0572797697   -0.1007246951   -1.2416112809
 C    3.2616769567    0.0945011631    0.2886197255
 C    2.1970631493   -1.0058982559    0.5777847009
 C    0.8366352463   -0.5723168634    1.1466337456
 H    1.1625947742    1.7520549329   -0.4334632962
 H   -0.4625368274    1.7850841404   -1.1196211190
 H   -0.2302537889    2.0068176593    0.6191617502
 H   -2.1290394831   -0.0453531394   -0.6630463117
 H   -1.6956055381   -1.4284803043    0.3539595782
 H   -1.8968592871    0.1762438879    1.0747639940
 H   -0.0463273602   -1.8163417002   -1.3316854830
 H    0.3763434058   -0.3476301561   -2.2010113806
 H    2.2686623053   -2.1801949749   -1.3660850469
 H    3.9444163030   -0.4649907183   -1.7659464690
 H    2.6871080002    0.7727021760   -1.7854058467
 H    4.2656752446   -0.1581180137    0.6390434310
 H    3.0159267265    1.0867939652    0.6766639737
 H    2.6010856788   -1.8628962428    1.1216032540
 H    0.9293682931    0.1801983874    1.9384435398
 H    0.3450971689   -1.4428002517    1.5978701451