17

 O   -0.0501214987    1.4153251171    0.0322912251
 C    0.0813312035    0.0072536579    0.0157300185
 C   -1.3302664771   -0.5941341036   -0.0425670814
 C   -1.3332254230   -0.4471299472   -1.5816223706
 O   -1.9233232452   -1.7502890681   -1.7768491798
 C   -1.2340605496   -2.0830590297   -0.5277558641
 C    0.2269356026   -2.1306607290   -1.0464627250
 O    0.3946670200   -3.0186615913   -2.1161589975
 C    0.2451048221   -0.6209260847   -1.3940140921
 H    0.8036027465    1.7958633207   -0.1976461567
 H    0.7740868964   -0.3396662422    0.7949513394
 H   -2.1457876471   -0.2895455365    0.6096888008
 H   -1.7585309831    0.3554124202   -2.1768285863
 H   -1.6605745378   -2.9392082352   -0.0078626035
 H    0.9607704493   -2.3939187020   -0.2800530281
 H   -0.4043551355   -2.9153914363   -2.6536266914
 H    0.9862181167   -0.2715484701   -2.1108887072