18

 C    1.0734703935    0.7992438095    0.5228604667
 N   -0.1270555726    0.2967864125   -0.1278130163
 C   -1.0529512338   -0.3299587857    0.8161719168
 C    0.1289370571   -0.4458820068   -1.2857255264
 C    1.2402458402   -1.0392978693   -1.8161903619
 N    0.9551308234   -1.6006160578   -3.0610219371
 C   -0.3053347268   -1.3485677917   -3.2524142691
 O   -1.0529814118   -1.6993102396   -4.3156395487
 N   -0.8801641479   -0.6605707108   -2.2292070536
 H    1.6815955362    0.0010534750    0.9837046598
 H    1.6915015207    1.3248789434   -0.2086294380
 H    0.7869776907    1.5008449478    1.3122959131
 H   -1.3551839003    0.4044938398    1.5691805060
 H   -1.9503823988   -0.6706655224    0.2943364856
 H   -0.6087959251   -1.1984603070    1.3318953263
 H    2.2293862711   -1.1000097232   -1.3923983135
 H   -0.4600301425   -2.1774820770   -4.9089915096
 H   -1.8040764835   -0.2638670667   -2.2193403501