18

 C   -0.0639755651    1.5912967863   -0.1697733337
 C    1.5061238424    1.4790026805    0.1145445015
 C    1.1342472207    0.2173717602    0.9406093299
 C    1.1610951474   -1.3235641662    1.1525416667
 C   -0.4422555522   -1.1697087630    1.0420810589
 N   -0.9950445151   -0.7449040812    2.3173723306
 C   -0.3314977348    0.2148138658    2.8135029879
 O    0.7479419372    0.7860687339    2.2440864921
 C   -0.0808035459    0.0413695364    0.0826185385
 H   -0.5627500823    2.1861901451    0.5947143680
 H   -0.3728518140    1.9308602506   -1.1599507098
 H    2.0564582141    1.2389336128   -0.7974313503
 H    1.9952917941    2.2959567482    0.6489179013
 H    1.5770501670   -1.8623988489    0.3010079785
 H    1.5524920581   -1.7155292345    2.0939624897
 H   -1.0124958668   -2.0045330750    0.6349754482
 H   -0.5844644338    0.6781207884    3.7642628365
 H    0.2551432392   -0.4176786794   -0.8517179248