18

 C   -0.0894989971    1.5758322934    0.0253216027
 C    1.4118204467    1.2313347456    0.0283546117
 C    1.2531244410    0.0422299397    1.0041929457
 C    1.8867508337   -0.9327949160    0.0060234282
 C    1.2310981546   -2.2870593077   -0.0403521244
 C   -0.1019321022   -2.3720870152   -0.0573471914
 C   -0.9509291469   -1.1161325526   -0.0214423099
 C   -0.0056180141    0.0480877634    0.0720615955
 N    1.1807808967    0.0507271590   -0.9449074714
 H   -0.4865991524    2.0797427593    0.9108701899
 H   -0.4823384154    2.0096597655   -0.8990661436
 H    2.2718123575    1.8913641463   -0.0959227676
 H    1.2755415544    0.0411229645    2.0998433868
 H    2.9745520245   -0.9553023701   -0.1037038303
 H    1.8521029759   -3.1767871299   -0.0664905111
 H   -0.6098362727   -3.3311053500   -0.0993897860
 H   -1.5719933030   -1.0411106913   -0.9239291680
 H   -1.6420361711   -1.1362696339    0.8322861533