15

 N    0.0139883234    1.2887673346    0.2821619038
 C    0.0844286938   -0.0271905144   -0.0552318325
 O    1.1132830487   -0.5819899347   -0.3762551958
 C   -1.2731953112   -0.7717154999   -0.0289178500
 N   -1.1221899663   -2.1634117268   -0.3666382144
 C   -1.4508342650   -2.9965780748    0.6995202922
 O   -1.2790314534   -4.1922255197    0.7532576540
 C   -2.0438924981   -2.0941547935    1.7340302507
 C   -1.9255591303   -0.8279068212    1.3370838824
 H    0.8521403635    1.8435692321    0.2204060119
 H   -0.8566707465    1.7526222530    0.4734104306
 H   -1.9359158001   -0.2516662343   -0.7405019570
 H   -0.3536502043   -2.4301915485   -0.9649863407
 H   -2.4649216231   -2.4709468793    2.6549263949
 H   -2.2522026010    0.0597599173    1.8634840698