17

 N   -0.0806798183    1.4339056717   -0.1535226340
 C    0.0583758104   -0.0027553985   -0.0370289612
 C    0.8526663436   -0.5098845129    1.2088598117
 C    1.0536755425   -2.0656757521    1.1776158969
 N    2.4595538884   -2.1559192050    0.7724282173
 C    3.0091716308   -0.9053119720    0.9367057218
 N    2.2181674566    0.0725447766    1.1698824621
 C    0.1566893828   -0.0789218631    2.4288701799
 N   -0.4298872111    0.2480641539    3.3695868837
 H   -0.6451412214    1.7938353941    0.6109893723
 H    0.8362419189    1.8629030732   -0.0639576168
 H   -0.9357531979   -0.4642192338   -0.0279860447
 H    0.5916862703   -0.3858503711   -0.9153110969
 H    0.8797876498   -2.5225443445    2.1575350174
 H    0.3927523022   -2.5419930200    0.4472054749
 H    2.9971088141   -2.9748044519    1.0131637496
 H    4.0815073783   -0.7795297045    0.8168803859