21

 O   -0.0794344151    0.0056011326   -0.0576517646
 C    0.0386770424    1.2024936502    0.0329529115
 C    1.3359626997    1.9542360915    0.0264545668
 C    1.4709812574    2.9637505342    1.1992309123
 C    2.5518450163    3.9676554216    0.6831983676
 C    2.8930555067    3.4262164753   -0.7217846573
 C    3.6884726307    2.1089677625   -0.5711086890
 C    2.6178282034    1.0997974181   -0.0450816160
 C    1.5191702284    2.9069483124   -1.1933777870
 H   -0.8623795503    1.8566428362    0.1210888685
 H    0.5176615194    3.4692146459    1.3885445199
 H    1.7609462278    2.4612063967    2.1258991873
 H    2.1474024161    4.9825222357    0.6243234342
 H    3.4300483855    4.0054879019    1.3340185568
 H    3.3715329017    4.1603988931   -1.3733495519
 H    4.0901330610    1.7859226337   -1.5362951133
 H    4.5370393180    2.2194859354    0.1103236911
 H    2.8731288858    0.6766984583    0.9300918516
 H    2.4724522099    0.2601935195   -0.7286674855
 H    1.5559402871    2.3699479740   -2.1459369127
 H    0.7517161181    3.6852964713   -1.2506966303