16

 O   -0.1924376678    1.5070765510    0.3648063282
 C    0.0224227594    0.1452874400    0.1336240763
 C    0.3265962230   -0.8120446161    1.3368854401
 C   -0.8283343817   -1.7404998471    0.8657133657
 C   -2.1698628606   -1.3934479122    1.5474390194
 O   -2.3877262746   -0.2924066864    0.6432152793
 C   -1.2526875338   -0.6612062888   -0.1758395678
 C   -3.2143436350   -2.4195301140    1.4316618933
 N   -4.0175511764   -3.2455620364    1.3427216036
 H    0.6608201201    1.9420605230    0.4578130756
 H    0.7497464052   -0.0284013945   -0.6744616210
 H    1.3198753044   -1.2643531585    1.3316561702
 H    0.1489560045   -0.3513740202    2.3120884330
 H   -0.6142315137   -2.7813165516    0.6383579335
 H   -2.1083364590   -1.0659003090    2.5921398136
 H   -1.5408207038   -0.8309871992   -1.2151724731