20

 C   -0.0625320563    1.5515138602    0.2878809025
 C   -0.0657193027    0.0636680683   -0.0654128917
 N   -1.4058359901   -0.4963138355   -0.1028893444
 N   -2.0948511604   -0.6840431544    1.0560015687
 C   -3.2548268841   -1.1626145418    0.6329573149
 C   -4.3582219394   -1.5337335635    1.5660918753
 N   -3.3492450569   -1.2899034061   -0.7233502144
 C   -2.1739625922   -0.8614612658   -1.1561973072
 C   -1.7486280219   -0.7932875012   -2.5852821061
 H    0.9648232811    1.9241417311    0.3403768435
 H   -0.6038519130    2.1354676130   -0.4625843634
 H   -0.5416555968    1.7074080634    1.2571738825
 H    0.3896585129   -0.1075195408   -1.0443989827
 H    0.5088275676   -0.5042887838    0.6722481204
 H   -5.2612092194   -0.9545231779    1.3482824663
 H   -4.6189245502   -2.5913517736    1.4575256301
 H   -4.0577162587   -1.3470599168    2.5985304776
 H   -1.5112830421    0.2302419519   -2.8947519655
 H   -0.8653151356   -1.4118589100   -2.7786237921
 H   -2.5678462019   -1.1597287669   -3.2046012643