21

 C    0.0183031264    1.5613426745   -0.1149678485
 C   -0.0156662558    0.0408715722    0.0068836325
 C    0.2370521911   -0.6003332091   -1.3687377138
 C   -0.2811174362   -2.0337217230   -1.3915210658
 O    0.0370067079   -2.7038537735   -0.1814770367
 C   -0.1612853907   -1.8980590982    0.9442402933
 C    0.7506004953   -0.6553610922    1.1905870612
 C   -0.3627943950   -0.1747683405    2.1584042389
 C   -1.1220859829   -0.6610281455    0.8962073729
 H    0.9559302504    1.8778786702   -0.5870799704
 H   -0.7984621007    1.9111914181   -0.7571295373
 H   -0.0608869484    2.0878490448    0.8376290569
 H   -0.2578840659   -0.0242838039   -2.1597914950
 H    1.3135050180   -0.5711186670   -1.5822809064
 H   -1.3741676126   -2.0264131238   -1.5278048439
 H    0.1519122764   -2.6231853675   -2.2045453958
 H   -0.2831760323   -2.5682892989    1.7987723110
 H    1.8297862899   -0.6538709780    1.3590170726
 H   -0.5045590313   -0.7733869762    3.0629342205
 H   -0.4071173703    0.8869039205    2.3919339316
 H   -2.2030433633   -0.6580215529    0.7403899619