16

 C   -0.2631406330    1.5504373959   -0.0400596385
 C    0.0552645070    0.0599444593    0.0267256620
 N    0.8298876852   -0.4394802940   -1.1099480168
 C    1.9619894250   -1.1235447413   -0.7883480398
 O    2.8685079215   -1.4641762761   -1.5184652913
 C    1.9245298271   -1.3905524512    0.7197182294
 O    3.1853897643   -1.4322069607    1.3029758870
 C    0.9850082411   -0.2932545130    1.2156827056
 O    0.9637227189    0.2407322699    2.2873991326
 H    0.6499756454    2.1368508334   -0.1757896393
 H   -0.9486697169    1.7701609436   -0.8639244748
 H   -0.7337204250    1.8595156153    0.8960557524
 H   -0.8794385576   -0.5094985026    0.1417877953
 H    0.6618177349   -0.1398533401   -2.0589266236
 H    1.3697461522   -2.3412232241    0.8562544924
 H    3.7970157802   -1.6317826244    0.5778017573