18

 C    0.1610794735    1.4337813183    0.0998329614
 N    0.0966758800   -0.0148253085    0.0448321172
 C    0.0976652739   -0.7835776054   -1.1089156384
 C   -0.0153845332   -2.0866536249   -0.6809712125
 N   -0.1191472183   -3.2612559099   -1.4326277922
 N   -0.0837799024   -2.1333231715    0.6851343742
 C   -0.0254621142   -0.8737251513    1.0931796797
 C   -0.0769611971   -0.4495420997    2.5262575302
 O    1.0775658189    0.2805985206    2.9484208106
 H    0.8507431223    1.7989373449   -0.6658569510
 H   -0.8219675454    1.8860591883   -0.0743368862
 H    0.5353508391    1.7339089120    1.0787686110
 H    0.1837661016   -0.3379609455   -2.0857054989
 H    0.4532356140   -3.2604335699   -2.2661544152
 H    0.0969598949   -4.0676245937   -0.8605241136
 H   -0.9194168659    0.2248660850    2.7163987642
 H   -0.2318853087   -1.3555694307    3.1241398279
 H    1.8436258370   -0.2785732179    2.7787292916