21

 C    0.0327714979    1.5627246522    0.3095834956
 C   -0.0202918654    0.0594595418    0.1586082041
 C    1.1852277643   -0.7067333381   -0.3555120499
 C    0.7743172599   -0.8265322640    1.0928715150
 O    1.5962647409   -0.2100217736    2.0641109276
 C    1.6199947543   -1.0042703778    3.2617940211
 C    1.1712801321   -0.1620735918    4.4565286347
 C    0.7263269530   -2.1777414810    2.9469975462
 C    0.2484258623   -2.0607661225    1.7119120397
 H    1.0020998152    1.8795934394    0.7017983202
 H   -0.1314388905    2.0612196684   -0.6520329798
 H   -0.7352376961    1.9156882662    1.0064546713
 H   -0.9890070898   -0.3364893268   -0.1384357246
 H    1.0382887406   -1.5532245383   -1.0185864216
 H    2.0895003014   -0.1353732993   -0.5397897138
 H    2.6582443466   -1.3339957853    3.4341442033
 H    0.1371682649    0.1688930409    4.3242554348
 H    1.2383316156   -0.7428569805    5.3828380231
 H    1.8108240604    0.7194148928    4.5573477148
 H    0.5264808782   -2.9722291099    3.6543118586
 H   -0.4231369459   -2.7370196229    1.1987212296