14

 O   -0.1529047311   -0.0041416174    0.3044386032
 C   -0.0631414626    1.1692827097    0.1038469704
 C   -1.2049344750    2.1853354746   -0.2060954131
 N   -0.7400285156    3.4862466080    0.3144597617
 C    0.5113158173    3.3639163088    0.4665096198
 O    1.3762639907    4.1548722875    1.1246789808
 C    2.5564935039    3.3393205869    1.3299883499
 O    2.1990398038    1.9898534507    1.0990383559
 C    1.1863895190    2.0782835177    0.1143145355
 H   -1.3969124958    2.2120542390   -1.2874192026
 H   -2.1360524921    1.8820104759    0.2811857467
 H    3.3313913137    3.6788886750    0.6278852917
 H    2.8826761306    3.4515370439    2.3651337183
 H    1.6068905331    2.0786159197   -0.9068044982