17

 O   -0.0894320946    1.3283000312   -0.0326600000
 C    0.0173535929   -0.0432436991   -0.0408255917
 C    0.4141277215   -0.9987766144    1.1492121193
 C   -1.0296983549   -1.0044144998    1.6921585167
 C   -1.2050173013   -0.9869818560    0.1587974283
 C    0.0393275100   -1.9156030494   -0.0590829916
 C    0.6884109593   -0.9662192117   -1.1044370688
 C    0.1776824271   -0.9609925517   -2.4592067169
 C   -0.2530215364   -0.9510900385   -3.5825008744
 H    0.7943238105    1.7094723539    0.0146798724
 H    1.3648523244   -1.0069771471    1.6855093473
 H   -1.3537459694   -1.9102981506    2.2131396236
 H   -1.3544358778   -0.1103027647    2.2307179469
 H   -2.1136228208   -0.9859054769   -0.4415862288
 H    0.0353162462   -3.0027959078   -0.0640763446
 H    1.7854490570   -0.9599702911   -1.0886796202
 H   -0.6332929436   -0.9413377462   -4.5738071576