16

 N   -0.0316740151   -1.1069812935   -0.0824171605
 C   -0.0117357802    0.0481552496   -0.0415175504
 C    0.0305097794    1.4960158630    0.0377576712
 O   -0.4303724021    2.1586350535   -1.1635545207
 C    0.8285965927    2.8817871046   -1.3029334876
 C    1.3440992863    2.3176775788    0.0347702258
 C    0.8999381800    2.9873730084    1.3553308963
 C   -0.4611298620    3.6167372101    1.2603375151
 C   -0.3748676100    2.1270432459    1.3952674346
 H    1.3807051539    2.5329443964   -2.1822367259
 H    0.6755385035    3.9635223388   -1.3675660342
 H    2.3152909334    1.8291702409    0.0577222285
 H    1.5789987390    3.2206498740    2.1648971697
 H   -0.7831083734    4.1281960531    2.1613222969
 H   -0.8307377140    4.0564122774    0.3411594678
 H   -0.8220993915    1.5740071389    2.2109102533