16

 O    0.0506768368    1.4538116218    0.0250437101
 C    0.0541340962    0.0688350543    0.0029309784
 C   -0.5199439797   -0.7181811611    1.2065864014
 C   -0.9831866872   -0.0090360139    2.3574313226
 N   -1.3618125222    0.5838819716    3.2772808528
 C   -1.2710677512   -0.5779254929   -0.1172318799
 C   -2.6265529529    0.0595404094   -0.3678072694
 C   -2.8671186073   -1.2058880194   -1.2236205124
 O   -1.5278133551   -1.7002930984   -0.9331224154
 H    0.6700292670    1.7605746583    0.6973698837
 H    0.8967977375   -0.4156995986   -0.4907363020
 H   -0.0675886797   -1.6869608415    1.3933325789
 H   -3.2609773274    0.1727946208    0.5115286476
 H   -2.5840459403    1.0014440580   -0.9146975619
 H   -3.6331762923   -1.8938125078   -0.8531717782
 H   -3.0038496322   -1.0424809407   -2.2965193164