18

 C    0.1044628342    1.5497378896    0.0020545486
 C    1.3417962006    0.6644006053    0.0430581837
 C   -0.0244930485    0.0646543135   -0.0479956569
 O   -0.5790800159   -0.7032475493    1.0398328396
 C   -1.0498755665   -1.7083585210    0.1060304779
 C   -2.4850870054   -1.5287207179   -0.4138843353
 C   -2.8292948507   -0.1081445509   -0.5790711100
 N   -1.9919492397   -0.7289500142   -1.6253151097
 C   -0.5715036257   -0.8910951277   -1.0942848200
 H   -0.1855632459    2.0354539943    0.9279763645
 H   -0.1058467624    2.1199560444   -0.8966907824
 H    1.9853984492    0.6241216639   -0.8299014355
 H    1.8530903929    0.5698789039    0.9948428940
 H   -0.7228741035   -2.7170064812    0.3607420875
 H   -3.2047347512   -2.3334879132   -0.5266213909
 H   -3.8269302291    0.1166843867   -0.9437472264
 H   -2.4112538490    0.6288102007    0.0963766134
 H    0.0934541567   -1.2520206367   -1.8763822619