15

 C    0.0651009405    1.5756368125    0.0031665677
 C    0.0423846663    0.0293111970   -0.0004544225
 C    0.6792982157   -0.4975754820   -1.2178162410
 N    1.1661302095   -0.8997030529   -2.1850064141
 C    0.6761644982   -0.5521134561    1.2321314420
 C    0.2296596015   -1.4107364465    2.1863323332
 C    1.3330145126   -1.5111275333    3.0763813363
 N    2.3482999925   -0.7790449147    2.6926872947
 O    1.9313948217   -0.1646343201    1.5141510299
 H    1.0928089755    1.9413732281    0.0338171455
 H   -0.4207206581    1.9617913108   -0.8953589138
 H   -0.4658966735    1.9465716018    0.8830818402
 H   -0.9983234847   -0.3129498328   -0.0123414292
 H   -0.7287398973   -1.8984256145    2.2460777920
 H    1.4197049796   -2.0925923774    3.9832998392