21

 C    0.0701695913    1.5312140092    0.4101631890
 O    0.6983948240    0.3010869129    0.0863965555
 C    0.7145662387   -0.6070567641    1.1415831615
 C   -0.5695919062   -1.3675031046    1.5367248892
 O   -1.7344586092   -1.0864196015    1.5427040801
 C    0.2224449451   -2.6734866726    1.6993951759
 C    1.3687275897   -2.0056096645    0.8610026138
 C    1.2655746747   -2.3779552628   -0.6204819673
 C    2.7872057153   -2.1826478984    1.3925648185
 H    0.5899046608    2.0363924290    1.2392979303
 H    0.1277294287    2.1611324479   -0.4802047106
 H   -0.9797944526    1.3839851370    0.6872499887
 H    1.1563707658   -0.1612167626    2.0527351431
 H    0.5012788567   -2.8537856700    2.7431053090
 H   -0.2454233808   -3.5746332470    1.2964781612
 H    0.2442399777   -2.2628825288   -0.9963730862
 H    1.9108185886   -1.7370326566   -1.2271755011
 H    1.5687250015   -3.4194767769   -0.7714335448
 H    3.1211336934   -3.2205444215    1.2849015225
 H    3.4915992681   -1.5483149857    0.8433324567
 H    2.8521705087   -1.9181133183    2.4535600752