16

 O   -0.0482269350    1.2699093652   -0.2550741878
 C    0.9475026002    2.1750098407    0.0117259702
 C    2.2166058914    2.1697694220   -0.3979865624
 C    2.9703241447    1.1332286379   -1.0909205143
 C    3.3462044826   -0.0579846748   -0.5874760986
 N    3.1747421362   -0.5311187090    0.6918417421
 C    2.0628789101   -0.7912832201    1.2642606244
 C    0.7126514102   -0.8720358326    0.7099071610
 C   -0.0929898645   -0.0444041356    0.0287406806
 H    0.5200173689    3.0540120685    0.4835887600
 H    2.7400726006    3.1077924037   -0.2118989232
 H    3.4174564148    1.4218045895   -2.0397470273
 H    4.0275009358   -0.6704989626   -1.1763505746
 H    2.1462097899   -1.1618170742    2.2911077898
 H    0.2380381638   -1.8303971535    0.9182039261
 H   -1.0531068895   -0.4211769951   -0.3119304259