19

 C   -0.4387756673    1.4474719313    0.1932754090
 N   -0.0288670419    0.0637972799    0.0375931599
 C    0.4301750430   -0.4055465131   -1.2632352476
 C    1.7851165581    0.1214071464   -1.6502291796
 C    1.6832932639   -1.0094126210   -0.6510280808
 C    1.1876501836   -0.4965441233    0.7037625409
 C    2.1376765851    0.4350091338    1.4815597401
 C    1.5751343772    0.9152809643    2.7421047625
 N    1.1189166901    1.2834693371    3.7382231963
 H    0.3033969778    2.1938169031   -0.1396714856
 H   -1.3488507718    1.6064251816   -0.3946557022
 H   -0.6793890717    1.6470335264    1.2410117876
 H   -0.2687479908   -0.8285080572   -1.9767734017
 H    2.1364237675   -0.1823286280   -2.6315370672
 H    2.1065815922    1.1165069987   -1.3564781690
 H    2.1214448502   -1.9834742549   -0.8220435531
 H    0.8942204697   -1.3141282884    1.3723119254
 H    3.0517810545   -0.1274862886    1.7055788897
 H    2.4372664308    1.2963664820    0.8777285153