18

 C    0.0218867060    1.5284591356    0.0001024675
 N    1.2498688333    0.7214770154   -0.0891933680
 C   -0.0523480415    0.0427709561    0.0296801902
 C   -0.2958142530   -0.7126330272    1.2831543517
 C    0.2638517746   -0.3683731170    2.6737437416
 C    0.3452281333   -1.9002334169    2.9873494725
 C   -0.2197643740   -2.1877988937    1.5901623598
 N   -1.5044453212   -1.5245927071    1.3842954298
 H   -0.0805590616    2.0946056585    0.9218704422
 H   -0.3411934502    2.0398793651   -0.8874210736
 H    1.5778765142    0.6845077257   -1.0501140782
 H   -0.4621884884   -0.4410372753   -0.8543194415
 H    1.2493290029    0.0971887386    2.6203214163
 H   -0.3883695381    0.2408925198    3.3091516293
 H    1.3752076378   -2.2404646267    3.1160655176
 H   -0.2545232683   -2.2737060858    3.8246483102
 H    0.0240577837   -3.0281697953    0.9494157588
 H   -2.0158196394   -1.3728319799    2.2527307838