17

 C   -0.8617862223    1.6724339168    0.5366851423
 C    0.5627733935    1.5701816820   -0.2169299128
 C   -0.0780892685    0.4534931904   -1.0903669732
 C    0.5685339851   -0.8869608606   -1.4768942393
 C    0.5976209536   -1.5253225790   -0.0736845885
 O    1.5824730228   -0.7428403053    0.6196975653
 C    0.8978684526    0.4777544200    0.8469489849
 C   -0.5185664320    0.1701151680    0.3707521441
 O   -0.6949281365   -1.2203040208    0.5404351944
 H   -1.6800201954    2.0713900847   -0.0650144977
 H   -0.8490009162    2.0895302260    1.5460650189
 H    1.1517527556    2.4292124199   -0.5384943000
 H   -0.8625805815    0.7900861190   -1.7694818527
 H    1.5765707735   -0.8477884653   -1.8933990398
 H   -0.0859602259   -1.4267588453   -2.1670486621
 H    0.8084315907   -2.5872587973    0.0361507491
 H    1.0680976510    0.8143685669    1.8709980972