16

 N    0.1589827537    1.4829416448    0.0235935670
 C   -0.0200375238    0.0336715004   -0.0121085599
 C    0.6187524474   -0.6133188698   -1.1811238734
 N    1.1144540048   -1.0923039963   -2.1096738998
 C    0.5241337718   -0.5424311736    1.3022610819
 C    0.7530640351   -2.0630049396    1.4191456663
 C    2.2416963267   -1.6822814150    1.5615736181
 O    1.9334864557   -0.2709931727    1.4357254508
 H    1.1495042065    1.6796935083    0.1440845242
 H   -0.1257522641    1.9004893394   -0.8565557441
 H   -1.0939364311   -0.1886831315   -0.0605916499
 H   -0.0484318517   -0.0795981875    2.1148532062
 H    0.2992780991   -2.5287939858    2.2941281557
 H    0.5058859249   -2.6418743808    0.5282346611
 H    2.6998498779   -1.9061156586    2.5311339459
 H    2.9014444770   -2.0243253017    0.7581032500