16

 O   -0.1598349464    1.3323640896    0.4229412554
 N   -0.0122113331   -0.0616792761    0.3975939192
 C   -1.0594322157   -0.6237710466   -0.0374202988
 C   -2.4513479834   -0.1775651230   -0.4589297338
 C   -2.8267900724   -1.6876556617   -0.6173390798
 O   -3.9249106195   -2.1720168221    0.0840940886
 C   -2.4782921649   -2.2950349993   -1.9918789150
 O   -1.1080678314   -2.5267393292   -1.5859296518
 C   -1.3647623068   -2.0911833855   -0.2285932658
 H    0.6887076478    1.6222999607    0.7758738448
 H   -2.9949181876    0.3080096212    0.3583130029
 H   -2.5169838304    0.4492539044   -1.3528400184
 H   -4.6958316630   -1.6400703947   -0.1413786391
 H   -3.0048681153   -3.2381579766   -2.1831107381
 H   -2.5495388764   -1.6419795033   -2.8698718634
 H   -1.0681161715   -2.8223277678    0.5250354032