19

 C    0.8562749254    1.8741322506   -0.4372972409
 C    0.2670739421    0.5215384272   -0.0417009924
 C    0.5263026192   -0.5705443796   -1.0474002659
 O    0.9510719641   -0.3746990527   -2.1673105021
 C    0.2049287903   -2.0301295012   -0.6594089981
 O    0.2586823308   -2.8432189883   -1.7923796845
 C    1.1749005215   -2.5034883669    0.4553997824
 C    2.1891179663   -3.5477855701    0.0577689505
 O    1.0943652384   -2.0405948299    1.5693526006
 H    1.9467354854    1.8231912327   -0.5015683427
 H    0.4845829391    2.1941118304   -1.4135504016
 H    0.5933762812    2.6345333823    0.3025517734
 H    0.6168824566    0.1750283045    0.9370259367
 H   -0.8265030116    0.5854606845    0.0626134999
 H   -0.7977334283   -2.0470447376   -0.2072625878
 H    0.5963265279   -2.2651131839   -2.4991127869
 H    2.7840733050   -3.1886673962   -0.7887808004
 H    2.8316579424   -3.7727506059    0.9093099178
 H    1.6809515943   -4.4503414099   -0.2936183881