21

 C    0.3017003467    1.3430866388   -0.5210294005
 C    1.4284433801    1.9782417782    0.3332291355
 C    2.0604384048    0.8172608311    1.0883832696
 C    2.4624769307   -0.3927750026    0.2871251965
 C    3.2954853428   -1.4762817119    0.9771449676
 C    2.3844664345   -1.9938234504    2.0742825876
 C    1.1854360152   -1.4059136770    2.0470661444
 C    1.1026748168   -0.3672513739    0.9874157843
 C   -0.1455610805    0.0815051875    0.2545238703
 H   -0.5220667841    2.0373478974   -0.7065924042
 H    0.6931836546    1.0528980612   -1.5013585329
 H    2.1409914527    2.5397629800   -0.2819566728
 H    1.0056013174    2.6841714548    1.0580376472
 H    2.5760931759    1.0171437156    2.0233109327
 H    2.5399210981   -0.2954868971   -0.7909487163
 H    3.5701948853   -2.2753791574    0.2754011197
 H    4.2406468129   -1.0875301021    1.3798854047
 H    2.7063818908   -2.7314622544    2.8006144046
 H    0.3672147308   -1.6122797139    2.7287856974
 H   -0.9260544687    0.3320299502    0.9853971630
 H   -0.5622495666   -0.6847016944   -0.4089302883