16

 C   -0.0322524039    1.5512417344   -0.0547147268
 C    1.4281396088    1.9670552970    0.0657000363
 C    2.1840515099    1.3277611991    1.2010185684
 O    1.4751944419    0.4479020060    2.0383109038
 C    0.8432089452   -0.4936369555    1.2065726875
 C    0.0049119021    0.0337401207    0.0715929481
 C    1.4286355997   -0.4627205808   -0.1887279691
 C    2.3243841386    0.7540674107   -0.1924397484
 H   -0.6509354003    2.0090716208    0.7263495083
 H   -0.4433466257    1.8509131083   -1.0255440369
 H    1.7314810447    2.9572198532   -0.2569620815
 H    2.9701739305    1.8572024206    1.7258020928
 H    0.5727390890   -1.3994674490    1.7357336761
 H   -0.8513675950   -0.5513258776   -0.2462684469
 H    1.6678659490   -1.3484406761   -0.7608010289
 H    3.2395161656    0.7864957383   -0.7673142130