14

 O   -0.1983273902    1.2815778968    0.5183504928
 N   -0.0402746619   -0.0905044741    0.3518434072
 C   -1.1301741435   -0.6553523747   -0.0370011305
 C   -2.3595692174    0.0577076500   -0.4411537804
 N   -3.5750366952   -0.3353613110   -0.3322006285
 C   -3.9488440074   -1.5471323075    0.2030641961
 C   -3.2457495994   -2.7083214151    0.2533295165
 N   -1.9772579295   -2.9762175950   -0.2092255515
 C   -1.0561408979   -2.0956872379   -0.3467240072
 H    0.6815157258    1.5621508686    0.7932018082
 H   -2.1888446000    1.0199269937   -0.9240674420
 H   -4.9881245966   -1.5803561463    0.5205318884
 H   -3.7721269078   -3.5910124212    0.6083851860
 H   -0.1010103089   -2.4311258963   -0.7536276951