17

 C   -0.0451262311    1.5882190716   -0.0103519097
 C    0.0674818805    0.0534994214   -0.0142385146
 C    0.7193976977   -0.4912620880    1.2188396186
 N    2.0314577878   -0.7346115123    1.2766491325
 N    2.2090650157   -1.1708104808    2.5163129791
 N    1.1268468466   -1.2427133592    3.2803564421
 C    0.1522975660   -0.8097154640    2.4765740845
 C   -1.2678558579   -0.7252021874    2.9336140492
 H    0.9456588929    2.0469655016    0.0560657998
 H   -0.5274691469    1.9446557190   -0.9257519500
 H   -0.6350052718    1.9422097670    0.8412915439
 H   -0.9321529780   -0.3848294420   -0.1176951178
 H    0.6471990121   -0.2683584245   -0.8848498115
 H    3.1144499079   -1.4521668946    2.8541710501
 H   -1.6234303022    0.3107476297    2.9607431275
 H   -1.9361992078   -1.2791267714    2.2653143942
 H   -1.3619283315   -1.1437357461    3.9375877521