15

 C   -0.0216693791    1.5767782838   -0.0063801637
 C   -0.0207523391    0.0814550678   -0.0187504919
 C    0.0054675117   -0.7821444584   -1.1009548493
 N   -0.0571074813   -0.5439545083   -2.4766457561
 N    0.0558530426   -2.0464002429   -0.6124557682
 N    0.0277157102   -2.0797490445    0.7593341779
 C   -0.0106563408   -0.8031091641    1.0892532800
 O   -0.0118680857   -0.3995310503    2.3794642611
 H    0.4514990411    1.9864127930   -0.9071596619
 H   -1.0312487470    2.0026617747    0.0528468309
 H    0.5362705342    1.9556947535    0.8551822909
 H   -0.0665546731    0.4464218070   -2.6827134594
 H    0.6972631427   -0.9828202011   -2.9925787046
 H   -0.1036946367   -2.8966088954   -1.1230689867
 H    0.0354705203   -1.1973122748    2.9212056509