19

 C   -0.0651606395    1.5176265738    0.0057876965
 C    0.0169576147    0.0224083532    0.0157210113
 C    0.0284779819   -0.9145513231   -1.1520035860
 C    1.2766146702   -1.7845032638   -1.0851188607
 O    1.8219053736   -1.5578696630    0.2223868183
 C    0.8116557629   -0.9068248411    0.9768935540
 C   -0.4720890245   -1.7917179244    1.1363947537
 O   -1.2476256580   -1.4449144171    2.2687372355
 C   -1.0424260823   -1.0755263544   -0.0778716197
 H    0.9153016843    1.9681001848   -0.1887359384
 H   -0.7509668894    1.8669675692   -0.7733526339
 H   -0.4281052868    1.9033791118    0.9645357115
 H   -0.3152952520   -0.5590957471   -2.1169209950
 H    1.0647800477   -2.8529692924   -1.2266515051
 H    2.0201135460   -1.4825588011   -1.8328205772
 H    1.2440481000   -0.5054471360    1.8942249022
 H   -0.3092719422   -2.8782326937    1.0780916459
 H   -0.8143595102   -1.8154977900    3.0448290821
 H   -2.0981146464   -0.9887033357   -0.3088357850