20

 C    0.0596209506    1.4122094730   -0.1169641167
 N    0.0693716404   -0.0346255954   -0.0732567484
 C   -1.0428964954   -0.6177460892   -0.0071247418
 O   -1.0988076212   -1.9655001421    0.0333672273
 C   -2.3815761575   -2.6140664574    0.1226277846
 C   -3.0916009406   -2.2890774639    1.4457240683
 C   -3.2627333646   -2.3321252721   -1.0998620189
 C   -2.0086295411   -4.1033968738    0.1393225864
 O   -2.8231714304   -4.9858170568    0.0950131299
 H    0.6362425089    1.8094557384    0.7261559765
 H    0.5570599235    1.7559272587   -1.0310601368
 H   -0.9491176941    1.8568959656   -0.0851558876
 H   -2.0131736203   -0.1036765700    0.0195054626
 H   -3.4263833786   -1.2483249850    1.4702248225
 H   -3.9649250044   -2.9370320354    1.5535481466
 H   -2.4218042476   -2.4584205772    2.2935484990
 H   -2.6936056920   -2.4764568015   -2.0222965249
 H   -4.1042007971   -3.0289253477   -1.0965744574
 H   -3.6549273386   -1.3116510149   -1.0861809099
 H   -0.9168517598   -4.2923008533    0.2086832890