18

 C   -0.2223284451    1.4876257236    0.0924411047
 C   -0.0266206623   -0.0024036676   -0.0065272778
 C   -0.7660532802   -0.9478913058    0.8671915244
 N    0.6610354289   -0.6892024129    1.1340516321
 C    1.5272525134   -1.7468634776    0.5922262577
 C    1.1598374511   -1.8896859516   -0.8808077277
 O    1.2734475368   -2.8456352820   -1.6051010162
 C    0.4750430454   -0.5867275217   -1.3144558048
 O   -0.5149211094   -0.8250160898   -2.2816928452
 H    0.6899766882    2.0224988157   -0.1943130838
 H   -1.0276663498    1.8105807737   -0.5756139227
 H   -0.4792045665    1.7766879865    1.1145027829
 H   -1.4447734406   -0.5581250717    1.6195116276
 H   -1.0555123914   -1.9148626751    0.4582846290
 H    2.5776186696   -1.4406583334    0.6832418457
 H    1.4071176823   -2.6923615889    1.1283015041
 H    1.2628032387    0.0796993161   -1.7158413330
 H   -0.2477468291   -1.6385909274   -2.7355463574