21

 O   -0.0161885154   -1.5037145684   -1.2535308485
 C   -0.1734160076   -1.0910315492   -2.6055660723
 C   -1.6512194850   -0.9324577889   -2.9522926508
 O   -2.2053493329   -0.0782413250   -1.9578302539
 C   -3.4874317774   -0.4067757102   -1.4816762056
 C   -3.6000456325   -1.7641477101   -0.7996496188
 O   -2.5900271599   -1.9939165739    0.1595011261
 C   -4.2309264103    0.7726084378   -0.9408305154
 C   -4.6744944998    0.1303980137   -2.2422605400
 H   -0.3924906680   -0.7867446678   -0.7260007236
 H    0.3553342962   -0.1435089701   -2.7809948004
 H    0.2865139440   -1.8579569570   -3.2357978715
 H   -1.7771366847   -0.4968513991   -3.9539787556
 H   -2.1377342690   -1.9141086382   -2.9489236276
 H   -4.5612523449   -1.8049055862   -0.2759752348
 H   -3.6235256894   -2.5691299956   -1.5512633392
 H   -1.7670589715   -2.1770820277   -0.3153500037
 H   -4.8399538183    0.6326720496   -0.0547441445
 H   -3.7322897813    1.7325107962   -1.0067974525
 H   -4.4697602836    0.6728534669   -3.1581157634
 H   -5.5924560487   -0.4487318970   -2.2530915941