19

 C    0.7414835315    1.4521034900   -0.0779493775
 O    1.4633849761    0.2286969461    0.1327420471
 C    0.0539935667    0.1636803998   -0.0093460846
 C   -0.8459768350   -0.4440501457    1.0728482243
 C   -1.4499530043   -1.4100320347    0.0044195434
 C   -2.9412712476   -1.2247165849   -0.3466018972
 C   -2.9142929450   -0.2337764192   -1.4882175453
 C   -1.6796669731    0.0452226592   -1.9084332203
 C   -0.6236948010   -0.6722466006   -1.1126083899
 H    0.7122944316    2.1288959839    0.7756653717
 H    0.9076019485    1.9316711207   -1.0422845998
 H   -0.2896752802   -0.9248143378    1.8810395613
 H   -1.5696644071    0.2524917920    1.5071702671
 H   -1.1786613021   -2.4524317105    0.1729960521
 H   -3.4178335248   -2.1659571941   -0.6519279272
 H   -3.5207283102   -0.8563647012    0.5106780231
 H   -3.8216506873    0.1822740222   -1.9139120372
 H   -1.4371464556    0.7232891207   -2.7198731313
 H    0.0790620089   -1.2524811756   -1.7186933100