18

 C   -0.2221445108    1.3156317512    0.0584425047
 O   -0.1596774638   -0.1099419082    0.2077127657
 C    0.7484217655   -0.5590490473    1.0851647214
 O    1.4988613751    0.1451612595    1.7108915766
 C    0.7505640626   -2.1053776279    1.1545689392
 N    1.8043254820   -2.6354910773    2.0176137343
 C   -0.5636526641   -2.5979977678    1.5626271267
 C   -1.6366333489   -2.9959280742    1.9342120054
 C   -2.9355857363   -3.4865428268    2.3706533735
 H    0.7402599062    1.7094012744   -0.2778051842
 H   -0.9942715419    1.5019565479   -0.6876812255
 H   -0.4843934873    1.7892609372    1.0077099159
 H    0.9460709832   -2.4420467075    0.1254869225
 H    2.6501256957   -2.0950907942    1.8498353168
 H    1.5527005316   -2.4438234640    2.9836360994
 H   -2.9372186908   -4.5782803160    2.4602914741
 H   -3.2111447224   -3.0719120678    3.3464380141
 H   -3.7209426258   -3.2102199411    1.6587043793