25

 C   -0.4966324661    1.2351346332   -0.4011555096
 O   -0.1337216778   -0.1090799233   -0.2084143032
 C    0.5693923937   -0.6542991147   -1.3066929443
 C    0.8812010592   -2.1063083418   -0.9860987146
 C   -0.3529576375   -3.0520114680   -1.0103456123
 C    0.1553604667   -3.6983551288   -2.3346030205
 C   -0.6535548058   -3.3399918024   -3.5789517724
 C    1.5255626291   -2.9611739547   -2.1284003486
 C    2.2222425564   -2.2878054761   -3.3061301393
 H    0.3839980951    1.8821372385   -0.5448437506
 H   -1.1565592419    1.3614616160   -1.2748903406
 H   -1.0315994621    1.5633222052    0.4937395411
 H   -0.0401727365   -0.5663097405   -2.2224344962
 H    1.4988714036   -0.0857754301   -1.4850060535
 H    1.4437866838   -2.1178862282   -0.0478318335
 H   -0.3787411601   -3.7480964436   -0.1685147340
 H   -1.3226155139   -2.5487779017   -1.0641556456
 H    0.2500217536   -4.7881099107   -2.2874442446
 H   -0.8103894088   -2.2603949381   -3.6756479233
 H   -0.1631724830   -3.6873987903   -4.4950318431
 H   -1.6433187667   -3.8080799392   -3.5343800098
 H    2.2330221936   -3.6626702034   -1.6732571181
 H    1.5756299746   -1.5772143062   -3.8292706702
 H    3.1142044817   -1.7436274800   -2.9762353090
 H    2.5484104090   -3.0333765812   -4.0399426544