16

 C    0.0936214510    1.3786769042    0.0533980180
 C    0.0262604792   -0.1008876965   -0.0607774403
 N   -0.0992888135   -0.8155315513   -1.1429428854
 C   -0.1058176441   -2.1166040874   -0.6886135088
 O   -0.2209241211   -3.1581620531   -1.5349433792
 C    0.0136404088   -2.1543255207    0.6657160652
 C    0.0879316155   -3.2320075581    1.6787982984
 O    1.3804135837   -3.4055683450    2.2572022092
 O    0.1009335950   -0.8281339734    1.0675800235
 H    1.0347160493    1.6931516587    0.5161060488
 H    0.0201716339    1.8177748169   -0.9416098506
 H   -0.7220579388    1.7612076752    0.6755221819
 H   -0.3090210686   -2.7865433233   -2.4209401359
 H   -0.5734684557   -3.0131841297    2.5236313500
 H   -0.2727185875   -4.1564315706    1.2048526442
 H    1.9990661030   -3.5481041861    1.5328530008