16

 C   -0.0059430780    1.4963946241    0.0484446349
 C    1.5235163708    1.4733070444   -0.0620863047
 C    1.3490570493    0.0532636677   -0.6666069224
 C    2.0056867585   -0.5382965976    0.5752442873
 C    0.6170359885   -0.5789666202    1.2697962193
 C    1.1719375313    0.5050849466    2.2019512667
 N    2.2068101863    0.8597652188    1.1689647277
 N   -0.0294660712   -0.0072215481   -0.0006162588
 H   -0.5013774616    1.9674060178    0.9017552099
 H   -0.4615179561    1.8783976330   -0.8717647171
 H    2.0846854638    2.3098858918   -0.4849119730
 H    1.4424167414   -0.2439691721   -1.7112338553
 H    2.8139556266   -1.2653553808    0.6552153843
 H    0.0926415684   -1.4573210100    1.6532811939
 H    0.5358954173    1.3194854401    2.5592297297
 H    1.6828195246    0.0602460545    3.0629848976