17

 C   -0.0331442303    1.4573103347   -0.0275866637
 N   -0.0410178319   -0.0060933246   -0.0107808890
 C   -1.2079477560   -0.7063185678    0.0147107269
 C   -2.5061324279    0.0463300405    0.0255404240
 C   -1.1573316808   -2.0760322098    0.0295645036
 C    0.1172939058   -2.6797154759    0.0172289501
 N    1.2530067875   -2.0360138349   -0.0070359202
 C    1.2491212675   -0.6575354647   -0.0223997092
 O    2.2547109788    0.0216051505   -0.0447033757
 H    1.0109223715    1.7612220085   -0.0487933304
 H   -0.5466504696    1.8405265597   -0.9139468835
 H   -0.5160976739    1.8608992519    0.8669127393
 H   -2.6088855233    0.6798700017   -0.8618605519
 H   -3.3416777349   -0.6541570365    0.0473254197
 H   -2.5814216931    0.7020513090    0.8994573074
 H   -2.0645464884   -2.6634289272    0.0498854175
 H    0.1854769692   -3.7684512351    0.0284503550