17

 N   -0.0401738600    1.3655160894   -0.0282451190
 C   -0.0939207768   -0.0000580676   -0.0420088645
 N   -1.1345557901   -0.7238294416    0.1103715478
 C   -0.6996745861   -2.1060016019   -0.0341416298
 C   -0.9879504327   -2.7866920622   -1.4049458235
 O   -2.0934650372   -2.2684400339   -2.0936142496
 C    0.4478464765   -2.4014580351   -1.8903485229
 C    0.8062714182   -1.9864841607   -0.4435256803
 O    1.1157337381   -0.5924870022   -0.2819093164
 H    0.8533203894    1.7609737447    0.2194811600
 H   -0.8384513445    1.8041534079    0.4032251794
 H   -0.9808332678   -2.6967213453    0.8431134209
 H   -1.0746154394   -3.8754903602   -1.2691638930
 H   -2.1948447484   -2.7635021468   -2.9127491023
 H    1.0493362630   -3.1959616070   -2.3385421938
 H    0.4336526587   -1.5358599889   -2.5570170690
 H    1.5681160391   -2.5715046484    0.0711385860