18

 C   -0.1521464588    1.5343478720   -0.1924941326
 C   -0.1141498624    0.0066965756   -0.2679181934
 C    1.1559057562   -0.5316329078   -0.9398745295
 O    2.3386627481   -0.0896514274   -0.2711470468
 C    1.1283810667   -2.0403901715   -1.0701092087
 C    0.7910498419   -2.6781153556   -2.3681784312
 N    2.1665076362   -2.7262195896   -1.8491637725
 H    0.7350365267    1.9143668209    0.3202899778
 H   -0.1720248589    1.9772310647   -1.1944931100
 H   -1.0395494432    1.8828933867    0.3439660244
 H   -0.1788393926   -0.4199672401    0.7435273381
 H   -0.9860788351   -0.3726270663   -0.8154039999
 H    1.2415895582   -0.0956955311   -1.9448905260
 H    2.3781095022   -0.5368960637    0.5819635839
 H    0.8577453070   -2.5672873510   -0.1537856175
 H    0.2746558189   -3.6336078577   -2.3909992089
 H    0.5683433855   -2.0257085239   -3.2094499890
 H    2.7474740634   -2.0322686243   -2.3152028382