15

 O   -0.0902774282   -0.0549264655   -0.3490376923
 C   -0.0385380124    1.0620040395    0.0828200534
 C   -1.2018351341    2.0520849676    0.0185529588
 N   -1.3172782789    3.0176971726    1.1115214382
 C   -0.9405386867    2.5504726785    2.4532906379
 C   -0.0377186283    3.4385856185    1.6757134990
 C    1.2112206943    2.8843043639    1.0321530107
 O    1.0960840694    1.4972455560    0.6928344332
 H   -1.1141011459    2.6142843720   -0.9203101663
 H   -2.1173689232    1.4603278004   -0.0496512970
 H   -1.5378383662    2.9599344565    3.2619580947
 H   -0.6455571535    1.5123521925    2.5844382825
 H    0.0318991020    4.4946351213    1.9318480129
 H    1.4505646063    3.4585958335    0.1263856937
 H    2.0707566856    2.9517949227    1.7044855505