19

 C   -0.3314838060    1.3421493758   -0.1870939669
 O    0.0431337150   -0.0262023709   -0.0343817599
 C    0.7009055935   -0.5633459508   -1.1556682716
 C    1.8644070932    0.1349472279   -1.6238378578
 C    2.8361612536    0.7132927630   -2.0366617386
 C    0.6555948983   -2.0904508087   -1.2334756116
 C    0.1193325784   -2.9218259599   -0.0902929810
 C   -0.2427526252   -1.2763203613   -2.1318572075
 O   -1.6087629210   -1.1830712694   -1.8880639251
 H    0.5505584666    1.9805343204   -0.3090427297
 H   -0.9947269937    1.4819106234   -1.0501181173
 H   -0.8575394330    1.6195906799    0.7287247972
 H    3.6976594295    1.2190520425   -2.3968048146
 H    1.5259179574   -2.5107903576   -1.7295407848
 H   -0.7487047887   -2.4608207513    0.3825466100
 H   -0.1803140177   -3.9097428737   -0.4545629742
 H    0.8821893423   -3.0604016809    0.6816780579
 H   -0.0264077555   -1.2323644396   -3.1935434943
 H   -1.7065568069   -0.8765175189   -0.9769841502