18

 C   -0.0811896240    1.6919570832   -0.2251981736
 C   -0.1747450823    0.1982243215   -0.4497646925
 C    0.7583375761   -0.4717041022   -1.4353484670
 N    0.8176948866   -0.7524110220    0.0079595052
 C    2.0092229163   -0.3038857633    0.7175164352
 C    0.3789734120   -1.5772771719   -2.3505301400
 O    0.8387327244   -1.6930271406   -3.4672147693
 C   -0.6578650572   -2.6339153565   -1.9351385793
 O   -1.5337756105   -2.4733070279   -1.1276801289
 H    0.9229829157    2.0868272186   -0.3944793178
 H   -0.7629215180    2.2099147422   -0.9067214242
 H   -0.3808689911    1.9444261787    0.7978403823
 H   -1.1808275600   -0.2072057038   -0.3924470033
 H    1.5354238176    0.1636597969   -1.8605244866
 H    2.4401028628    0.6369956350    0.3460209525
 H    1.7608579651   -0.1774990749    1.7758648608
 H    2.7744673087   -1.0815474924    0.6387098370
 H   -0.5600284122   -3.5553068206   -2.5485182805