17

 C   -0.0818381023    1.5083953004    0.0067205288
 C    0.0788148032    0.0123188870   -0.0086872733
 N   -0.4986691584   -0.8272247625    1.0544489175
 C    0.9842203517   -0.7507080883    0.8881394039
 C    1.4656115139   -1.9703694459    0.1244018092
 O    2.1567703259   -2.8560122497    0.5438963882
 N    1.0061558213   -1.8822648708   -1.2353790860
 C   -0.4445117148   -2.0810291193   -1.4826510446
 C    0.1180443832   -0.7140639106   -1.3493494818
 H    0.6534716383    1.9885955243   -0.6472521351
 H   -1.0794746082    1.7997164801   -0.3402756435
 H    0.0554109456    1.9070874478    1.0167454343
 H   -0.7594652129   -0.2405635179    1.8451197449
 H    1.5927848193   -0.3235411952    1.6770026708
 H   -0.6747909715   -2.4760220261   -2.4677999696
 H   -1.0444580634   -2.4588706033   -0.6631720245
 H    0.2677263291   -0.0979213099   -2.2320394191