18

 C   -0.2899502314    1.6206601997    0.0671255977
 C    0.0813135525    0.1477542782   -0.0145587605
 O    0.9427490278   -0.1097154223   -1.1362451286
 C    2.0923203249   -0.7675002708   -0.7768547103
 N    3.0427659363   -1.0167173225   -1.5661526335
 C    2.0493423235   -1.1472191127    0.6861680511
 C    3.3517913597   -0.9499050942    1.4610963237
 C    0.8614461060   -0.3515551138    1.2067937243
 O    0.5747527331   -0.1267371340    2.3522869825
 H    0.6080674045    2.2408743136    0.1369695480
 H   -0.8573759775    1.9244437241   -0.8155238556
 H   -0.8981227918    1.7866501371    0.9599719260
 H   -0.8234028398   -0.4659435552   -0.1282900936
 H    2.8406347906   -0.6579958802   -2.5011839959
 H    1.7519890852   -2.2058661210    0.7428080087
 H    3.6801248409    0.0917186707    1.4097938153
 H    3.2031443804   -1.2129151326    2.5109431930
 H    4.1379551550   -1.5742126242    1.0333111475