23

 C   -0.1331240928    1.7862372132    0.0322085880
 C   -0.0512358298    0.2872665711   -0.2858179387
 C   -1.4296781750   -0.3833582593   -0.1991153876
 C   -2.2619648216   -0.8027379333   -1.4573809134
 C   -1.4372053716   -2.1335136419   -1.5513522322
 C   -0.0332738693   -2.2736258107   -2.1317260247
 C   -1.7072162219   -1.9200083329   -0.0295313983
 C   -3.1789736105   -1.6072365336   -0.4743733857
 O   -4.1120190216   -0.9902191137    0.3618616844
 H    0.8473144459    2.2646871939   -0.0536834283
 H   -0.8153372622    2.2983041807   -0.6556327836
 H   -0.5000929754    1.9577985097    1.0503865020
 H    0.3861783658    0.1713900828   -1.2789924088
 H    0.6406383053   -0.1928302445    0.4184625241
 H   -2.0041625925    0.2128163161    0.5236952854
 H   -2.5817639972   -0.1639106059   -2.2840934899
 H   -2.0480429607   -2.9426454687   -1.9724160181
 H    0.7414703798   -1.7511008163   -1.5735710061
 H    0.2429247043   -3.3337515529   -2.1441506694
 H   -0.0001592185   -1.9224531043   -3.1695984806
 H   -1.3877933472   -2.5608659493    0.7955712907
 H   -3.7061773671   -2.4521140753   -0.9231374108
 H   -3.7262110164   -0.2002987148    0.7532815119