17

 N   -0.0047991378   -1.1141152555   -0.1159285126
 C   -0.0055749180    0.0405753168   -0.0421859478
 C   -0.0076400880    1.4808026871    0.0222487082
 C    0.4470118735    2.2607014302   -1.2118632127
 C    1.2856153612    2.2926393490    0.0333320002
 C    1.0983319492    3.3724722999    1.0775464013
 C    0.0652609787    4.4575224516    0.8746365058
 C   -0.2898494548    3.2025173548    1.6445519095
 N   -0.9114304259    2.0766486275    0.9790393055
 H    0.8246807284    1.6752847712   -2.0430965343
 H   -0.1383329724    3.1254604015   -1.4994221661
 H    2.2381493991    1.7782026625    0.0149396236
 H    1.9432795718    3.5743115757    1.7237814367
 H    0.1956446319    5.3657668489    1.4540676676
 H   -0.3607629954    4.6208420460   -0.1083330936
 H   -0.4880952250    3.2835707704    2.7088522671
 H   -1.8297851065    2.2716307922    0.5991328715