17

 O    0.0922687970    1.5362858100    0.0784743913
 C    0.1310097778    0.1334576492   -0.0018934685
 C    0.2251273785   -0.6069969882    1.3597079974
 N   -1.2436986208   -0.7782860897    1.3177035113
 C   -1.8361743278   -1.9768882077    1.8602768466
 C   -3.3517224642   -1.8651943610    1.9248252394
 O   -4.1100607490   -2.7877728510    1.7848628128
 C   -1.2480018626   -0.5627189934   -0.1482268291
 H   -0.5741130228    1.7721385326    0.7342559682
 H    0.8870511780   -0.1118109846   -0.7477747382
 H    0.7809685240   -1.5550704089    1.2814714386
 H    0.6049109406   -0.0335061935    2.2123100082
 H   -1.5684685798   -2.9029068069    1.3206053197
 H   -1.4918921698   -2.0932727251    2.8991477130
 H   -3.7088949465   -0.8311431314    2.1339235901
 H   -2.0727932562    0.0460273377   -0.5336356901
 H   -1.1874758863   -1.4997169582   -0.7252156406