20

 C    0.0562395363    1.3701526610   -0.3135148402
 C    0.0026649438   -0.1196171853    0.0133345295
 O    0.7075854699   -0.4359237212    1.2122830843
 C   -1.4290431423   -0.6386512886    0.1086440141
 N   -2.2598626478   -0.4788427630   -1.1261740386
 C   -2.6803786014   -1.9034170633   -1.0763370927
 C   -1.7665258692   -2.7918879899   -1.9328106073
 O   -0.7887151009   -2.8685266838   -0.8610421551
 C   -1.6561077797   -2.1703622691    0.0524600797
 H    1.0938012807    1.7066179762   -0.3894975296
 H   -0.4522386234    1.5723125724   -1.2604687299
 H   -0.4377250849    1.9615055612    0.4698429770
 H    0.5091165450   -0.6898657919   -0.7712265533
 H    0.3734732474    0.1411024033    1.9081703887
 H   -1.9106221594   -0.2168801759    1.0063254569
 H   -3.0258222772    0.1750923436   -1.0205229426
 H   -3.7510432387   -2.1071823979   -1.0402664161
 H   -2.1688770626   -3.7863564819   -2.1659501854
 H   -1.3653794065   -2.3219040826   -2.8364108154
 H   -1.8144039492   -2.7164577032    0.9838133459