27

 C    0.4115272936    1.8724445216   -2.1160744888
 C    0.0960293229    0.3773840663   -2.2339022408
 C    0.7993545221   -0.5120568279   -1.1896618646
 C    0.3148345809   -0.2101170223    0.2359814053
 C    0.6175238717   -2.0101256485   -1.5031850422
 C    1.3970407790   -2.5268751496   -2.7205859821
 O    2.7932463622   -2.2436161584   -2.6033937750
 C    1.1523252163   -4.0221977902   -2.9669701652
 C    1.8670705907   -4.5537421155   -4.2113770843
 H    0.0592808462    2.2951858303   -1.1703649179
 H    1.4906102157    2.0520967221   -2.1793699009
 H   -0.0659295414    2.4369407982   -2.9233537499
 H   -0.9900530127    0.2235518245   -2.1578645944
 H    0.3791164741    0.0453470804   -3.2393359295
 H    1.8757693024   -0.3017817831   -1.2407457535
 H   -0.7582098061   -0.4152035707    0.3381438499
 H    0.8402400147   -0.8305975203    0.9700192600
 H    0.4804189450    0.8349589424    0.5125852634
 H    0.9353329829   -2.5987572429   -0.6289481044
 H   -0.4497627748   -2.2324590991   -1.6411647752
 H    1.0909829436   -1.9752931225   -3.6182157373
 H    3.1145001723   -2.7016008362   -1.8178982697
 H    1.4830509930   -4.5796195838   -2.0778206205
 H    0.0718052976   -4.1952653256   -3.0478695504
 H    1.4851271046   -4.0734328553   -5.1191211297
 H    2.9390085978   -4.3473415541   -4.1552189799
 H    1.7263809956   -5.6333150400   -4.3207342823