14

 O   -0.0632437734    1.3879331662   -0.0639616571
 C   -0.0577028410   -0.0276353014   -0.1617842482
 C   -1.4333265969   -0.5263205273    0.2696933998
 C   -1.5247116456   -2.0308070603    0.2510668794
 C   -2.7437669013   -2.7403261239   -0.1533524077
 O   -1.6252293147   -2.6518129623   -1.0367492338
 H    0.7796266879    1.7149467397   -0.3911123514
 H    0.1424350547   -0.3627087160   -1.1904061976
 H    0.7179546144   -0.4700325659    0.4856416877
 H   -1.6411840747   -0.1583094803    1.2820893306
 H   -2.1915795860   -0.1010088941   -0.3958972868
 H   -0.8455694418   -2.5509296377    0.9303915292
 H   -2.9517599684   -3.7338117113    0.2418805367
 H   -3.6211092231   -2.1671379353   -0.4508855809