20

 C    0.0410588455    1.5201822891    0.0000483530
 C    0.0091889958    0.0125481847   -0.0090667587
 C   -0.0544454502   -0.6953305552   -1.2077403603
 C   -0.0731808077   -2.0858345392   -1.2283392148
 C   -0.0211524254   -2.7802797938   -0.0244696604
 C    0.0430870967   -2.1126072719    1.1970334154
 C    0.1111739354   -2.8766827900    2.4953496610
 C    0.0543821029   -0.7036200758    1.2035721818
 N    0.1753964490   -0.0133184379    2.4163531243
 H    0.9331664636    1.9049119919    0.5101137410
 H    0.0408332923    1.9170587659   -1.0179003317
 H   -0.8307793542    1.9504018236    0.5139351600
 H   -0.0895363055   -0.1392281260   -2.1402726628
 H   -0.1218903048   -2.6210631343   -2.1700489187
 H   -0.0300486428   -3.8665661699   -0.0248989662
 H    1.0057322236   -2.6152951600    3.0745710834
 H   -0.7565168087   -2.6763715434    3.1405231496
 H    0.1334891670   -3.9538655564    2.3139391036
 H   -0.1596448353   -0.5167174442    3.2242905487
 H   -0.1837525473    0.9296973829    2.4034358220