18

 C    0.0599471324    1.5481997925   -0.1385661559
 C    0.0363587673    0.0367013608   -0.0688892647
 C    1.3744728370   -0.7384126190   -0.2007600491
 O    2.5570666830   -0.0279033934   -0.3408448384
 C    0.6738509093   -0.6780813148    1.1168866156
 O    1.2665229188    0.1575649987    2.0813204151
 C   -1.1237584727   -0.7247869732   -0.6379310334
 N   -2.0739077928    0.0060076805   -1.2911803672
 O   -1.2125273226   -1.9390569590   -0.5222466665
 H    0.9450758461    1.9511169589    0.3530473675
 H    0.0848835538    1.8959779522   -1.1778480591
 H   -0.8146488492    1.9833440225    0.3567533160
 H    1.3403789294   -1.6547209508   -0.7793743431
 H    2.7365012767    0.3676019441    0.5243024536
 H    0.1480777032   -1.5519659556    1.4894450142
 H    1.7382822374   -0.4074853816    2.7024348106
 H   -1.9547823019    0.9805335888   -1.5007152883
 H   -2.8012472551   -0.5041834815   -1.7648035668