16

 C   -0.0718402034    1.4492219203    0.0738930927
 C   -0.0350638867   -0.0052847550    0.1011578907
 C   -0.0102982935   -1.2098613762    0.1115079776
 C    0.0199799139   -2.6445810605    0.1345201334
 C   -0.5099661052   -3.4638487379    1.2881981392
 N   -1.6807258501   -2.8499767739    1.9121372569
 C   -2.3875821300   -2.8287583779    0.6849955723
 O   -3.4681814000   -2.4075615461    0.3968581553
 C   -1.2408806973   -3.5279298850   -0.0352575994
 H    0.5396501769    1.8429320554   -0.7453136470
 H   -1.0944626175    1.8144007738   -0.0700975974
 H    0.3080526332    1.8783848109    1.0076449600
 H    0.8832573502   -3.0957899237   -0.3528601159
 H    0.0526237586   -4.2367631953    1.7950218618
 H   -1.6128034707   -2.0226360980    2.4954020596
 H   -1.2899568986   -4.3118837509   -0.7771688196