16

 O    0.1115403978    1.3746636937   -0.0910344889
 C    0.0152236300   -0.0007168919    0.0193835033
 C   -0.4259362302   -0.7199201921    1.2594221050
 C   -1.1842181250    0.1060748337    2.2801555467
 O   -2.0909518815    0.9106730903    1.5161671414
 C   -2.5296699554    0.1443501450    0.3938441280
 C   -1.3343911081   -0.7293831146    0.0150203488
 C   -1.5436689940   -1.8906559206   -0.7902758077
 N   -1.7106752644   -2.8255720992   -1.4524016187
 H   -0.5816591632    1.7676124626    0.4593027127
 H    0.7941695886   -0.4820047149   -0.5616455245
 H    0.0858698519   -1.6194341845    1.5799889720
 H   -1.7255235620   -0.5447987498    2.9811990066
 H   -0.5534736667    0.7925513537    2.8526167964
 H   -3.3943950813   -0.4838954252    0.6474113735
 H   -2.8192167562    0.8509653436   -0.3884716645