23

 C   -0.3751679315    1.2867902086   -0.3555896750
 O   -0.3345742372   -0.1127618273   -0.5256234643
 C    0.9742255863   -0.5919679809   -0.8467328692
 C    0.9199751467   -2.0957360364   -0.9439714843
 C   -0.0795590553   -2.7150488670   -1.8997264035
 O   -0.8281630825   -1.8625485689   -2.7136089607
 C    1.3958872184   -2.8743142160   -2.1733406261
 C    1.9955654505   -2.1480908748   -3.3614819055
 C    2.0092430815   -4.2342792157   -1.8960850759
 H    0.2775026376    1.6100590680    0.4696978269
 H   -0.0646907065    1.8196498191   -1.2678292186
 H   -1.4062705309    1.5594244864   -0.1184881887
 H    1.3101979466   -0.1288154779   -1.7842578847
 H    1.6797233225   -0.2795707805   -0.0611569447
 H    1.0387550065   -2.6048495563    0.0083387828
 H   -0.6227314892   -3.5960774827   -1.5556471928
 H   -1.1537511432   -1.1594675443   -2.1344061041
 H    1.3774797242   -1.3044768240   -3.6716490965
 H    3.0095292599   -1.7904134777   -3.1475281133
 H    2.0617585234   -2.8305881369   -4.2163906306
 H    1.9248190179   -4.8866057194   -2.7730408443
 H    3.0736312057   -4.1450221329   -1.6477842131
 H    1.5152216187   -4.7362832323   -1.0579808036