25

 C   -0.0193442124    1.6205444621    0.0866049877
 C   -0.0413161671    0.1077787352    0.1138602942
 C    1.1818376087   -0.6912676988   -0.2623043252
 C    0.7045042561   -0.6824814021    1.1705564352
 C    1.5065534413    0.0449500750    2.2651236094
 C    1.6069852828   -0.9666137441    3.4228666848
 C    0.2964724669   -1.7560822766    3.3138368533
 C    0.1295562522   -1.9772902564    1.7976439797
 C   -1.2890835321   -2.3672498778    1.3855379395
 H    0.9604319232    2.0162252601    0.3707951356
 H   -0.2460439067    1.9948560865   -0.9179655505
 H   -0.7598941129    2.0477910773    0.7730523638
 H   -0.9872180742   -0.3173639495   -0.2108481871
 H    1.0458271928   -1.6006702722   -0.8414139786
 H    2.0920632193   -0.1470484458   -0.4998415668
 H    2.4872227570    0.3852097402    1.9191049189
 H    0.9641549071    0.9356391801    2.6058522808
 H    2.4577040993   -1.6408233419    3.2646228718
 H    1.7488029052   -0.4866479761    4.3954037649
 H    0.3010683276   -2.6939114619    3.8780144935
 H   -0.5378960214   -1.1502272878    3.6932785677
 H    0.7997997867   -2.8017214586    1.5130093036
 H   -2.0103017044   -1.5865602269    1.6510653058
 H   -1.3705467711   -2.5470594396    0.3079777925
 H   -1.5941591742   -3.2895989604    1.8915076753