16

 O   -0.0303739786   -0.0120765085   -0.2195217439
 C    0.0303775300    1.1970778474   -0.1285825272
 N    1.1732236224    1.9103923452    0.0205821892
 C    2.5062587948    1.3974230632    0.1006732756
 C    3.4766091077    2.3982878124   -0.5076358087
 C    3.3442461814    2.2899315149    1.0034423773
 C    2.5514613846    3.6178057122    1.0293509780
 C    2.6837655870    3.7262821393   -0.4818571548
 C    1.3536461649    3.3240043611    0.1379561652
 H   -0.8596045955    1.8563335161   -0.1588845480
 H    2.6336616921    0.3276380534    0.0352105571
 H    4.2937854500    2.1367758004   -1.1642783274
 H    4.0386567696    1.9275440939    1.7476263437
 H    2.5745168310    4.3805297004    1.7945123586
 H    2.8297665780    4.5892344856   -1.1156959118
 H    0.4805736607    3.9612619531    0.1072838069