19

 C    0.3359909854    1.6274447175   -0.1190125945
 C    0.0309974959    0.1409698407   -0.0008502832
 C    0.7049867925   -0.8486705270   -1.0046335933
 C    1.2358996483   -1.7020825140    0.1828152782
 O    0.8429066531   -3.0396129882    0.2637441214
 C    2.6802620375   -1.3432798048    0.6453251789
 C    2.0650747706   -0.2684804166    1.5625857060
 O    2.5354128121    0.5677661813    2.2800799504
 C    0.6315941495   -0.6681673260    1.2017005893
 H    1.4129950584    1.8230035331   -0.1272037291
 H   -0.0862380271    2.0328084481   -1.0449576111
 H   -0.0911743730    2.1868125772    0.7196446768
 H   -1.0520707365   -0.0096399931   -0.0058190812
 H   -0.0062690229   -1.3922031285   -1.6305317294
 H    1.4781311657   -0.4118829722   -1.6442858152
 H    1.2707549515   -3.5262104599   -0.4497953406
 H    3.1040461640   -2.1550439022    1.2477675148
 H    3.4188562360   -1.0147302031   -0.0917414429
 H   -0.0372643710   -0.9266579622    2.0233395149