17

 C    0.1298157460    1.3912738556   -0.5455063709
 N   -0.1329325374    0.2566767406    0.3507117360
 C   -1.3733089399   -0.4017233488    0.1373071045
 C   -2.3616802382   -0.4282935883    1.0963182758
 O   -2.3529182376    0.1059716041    2.3345630420
 N   -3.4343865887   -1.1106290269    0.6295366456
 C   -3.1627825868   -1.5569872816   -0.6702704364
 C   -1.8979766279   -1.1260780408   -0.9830703886
 O   -1.1770295947   -1.3104484173   -2.1297908149
 H    1.1028024530    1.8280220920   -0.2974181836
 H    0.1263089054    1.1190358005   -1.6102474934
 H   -0.6372123808    2.1555430968   -0.3883732339
 H    0.6391925538   -0.3995134131    0.2898037140
 H   -1.4735530168    0.5069807646    2.4159516391
 H   -4.2788789479   -1.2753785551    1.1461842593
 H   -3.8875476908   -2.1245938461   -1.2284770938
 H   -1.7102537107   -1.8112778762   -2.7545362107