15

 O   -0.1571282911    1.3939940647    0.0011570662
 C   -0.0787518986    0.0030860193    0.0683167466
 C   -0.4540421777   -0.7612523072    1.2843125521
 C   -1.5368480479   -0.0070855128    2.0648077978
 C   -2.4313453811   -0.0881446567    0.8079418766
 O   -3.5886620004    0.1274089842    0.6131429653
 C   -1.3688742216   -0.7919112194   -0.0217543916
 C   -1.5894759133   -1.7921874547   -1.0048622120
 C   -1.7911886890   -2.6435235825   -1.8307934351
 H    0.6341332661    1.7606766506    0.4118850599
 H    0.7123255776   -0.4410501403   -0.5357714981
 H    0.1272214650   -1.5931844709    1.6598913952
 H   -1.9807286363   -0.5882239595    2.8772843963
 H   -1.2780632224    0.9914169093    2.4224788215
 H   -1.9781302393   -3.3909479543   -2.5613988107