25

 C    0.0223362069    1.6001890286   -0.0358890150
 C    0.0234999835    0.0647681274    0.0201273567
 C    0.7223807683   -0.4819425497   -1.2469956421
 C    1.0636519571   -1.9784131588   -1.2848906232
 C   -0.1190664673   -2.9390451752   -1.1379272553
 O   -0.8879460177   -2.7668704635    0.0394614026
 C   -0.1896370629   -2.9148664071    1.2682834471
 C   -0.1121014465   -1.5923682721    2.0335514820
 C    0.6454836317   -0.4396518564    1.3506827043
 H    1.0419336813    1.9978510779    0.0417207042
 H   -0.4037941119    1.9658587860   -0.9768206260
 H   -0.5638441886    2.0273529306    0.7847279383
 H   -1.0181389438   -0.2701057811   -0.0021519316
 H    0.0976353634   -0.2346896692   -2.1160108993
 H    1.6606560236    0.0735390974   -1.3871284582
 H    1.5475287811   -2.2071244971   -2.2435418435
 H    1.8158253436   -2.2063688663   -0.5207465004
 H   -0.8274032597   -2.7907714479   -1.9612747726
 H    0.2491350167   -3.9768546962   -1.2049634964
 H   -0.7387862976   -3.6484895675    1.8744284998
 H    0.8149616679   -3.3282580719    1.1031397134
 H   -1.1394413415   -1.2640062377    2.2381556115
 H    0.3460150740   -1.7993593755    3.0099876516
 H    1.6969518086   -0.7186294914    1.1981579135
 H    0.6694717196    0.3933285966    2.0632780686