16

 C   -0.0449297692    1.5866039652   -0.0431477018
 C    1.4999065433    1.3503090400    0.0029223058
 C    1.1867973267    0.1761558068    0.9866870068
 C   -0.0658336383    0.0095812905    0.0393757440
 C    0.6428310694   -0.3207496832   -1.2606042471
 C    0.8367490301   -1.0073391027   -2.4329662215
 N    1.9492542942   -0.4829599982   -3.0459524482
 N    2.4522112989    0.4858876517   -2.3201433600
 N    1.6568548178    0.5754099341   -1.2460712277
 H   -0.4269970296    2.0630769379    0.8621451917
 H   -0.4510231954    2.0566711485   -0.9404890398
 H    2.2497888639    2.1198991950    0.1600577632
 H    1.9065911405   -0.6430249762    1.0306945770
 H    0.9181804761    0.5227132886    1.9868362199
 H   -0.9495299980   -0.5528006099    0.3260973750
 H    0.2835000797   -1.8163452982   -2.8792161873