15

 N   -1.9850235993   -2.8723829566   -0.7808489278
 C   -1.0508165397   -2.0311635630   -0.5799077420
 N   -1.2565024677   -0.6926261931   -0.3353524935
 C   -2.4513110809    0.0224149737   -0.2493584379
 C   -2.3937864575    1.3955115327    0.0191626893
 N   -3.4727936032    2.1606723889    0.1192664471
 C   -4.6447511871    1.5430451120   -0.0526025996
 N   -4.8265234687    0.2505761746   -0.3108435156
 C   -3.7379206616   -0.5151001913   -0.4106449723
 H   -1.5970720727   -3.7987825476   -0.9395408759
 H    0.0208154848   -2.2640569133   -0.5770705487
 H   -0.4207827152   -0.1473758653   -0.1933487890
 H   -1.4282923548    1.8852112576    0.1571189233
 H   -5.5364138847    2.1589945724    0.0268794755
 H   -3.8682340217   -1.5684293517   -0.6201514629