17

 C   -0.0288391816   -1.2393813846   -0.2317115739
 C   -0.0041771455   -0.0478450545   -0.0802571465
 C    0.0099257292    1.4074504807    0.0821968955
 O   -0.6280663633    1.8254627163    1.2961323811
 C    0.2433041431    1.9311544735    2.4241481989
 C    1.6146311696    2.4249968280    1.9815460119
 C    1.4819824234    3.3392975524    0.7444687659
 C    1.4425238393    1.9708024236    0.0347828125
 O    2.1823967877    1.3798575395    1.1344458664
 H   -0.0468731459   -2.2935793981   -0.3591951266
 H   -0.5847624705    1.8655572630   -0.7189997207
 H   -0.2422696968    2.6330858106    3.1106414700
 H    0.3587134175    0.9604851979    2.9263844090
 H    2.2696271275    2.6991591919    2.8121963469
 H    0.6128898718    3.9939527729    0.6692255726
 H    2.4055614752    3.8779964761    0.5322381610
 H    1.9220678594    1.8205128508   -0.9348540138