23

 C   -0.0352772047    1.4806019024    0.1023240324
 C    0.0074987797   -0.0062232945    0.0117627263
 C   -0.0026159801   -0.8432755546   -1.0358202906
 C   -0.0609402917   -0.5882702240   -2.5035658116
 C    0.0635247206   -2.2473561622   -0.3749852738
 C    0.0715583796   -3.4805479397   -1.2499596219
 C   -0.9696341211   -2.0397805635    0.7896456804
 C    0.0785632471   -0.9622435642    1.2178925068
 C    1.1594002259   -1.9739441274    0.7164210896
 H    0.8505621551    1.8785688007    0.6152078490
 H   -0.0850767496    1.9473100574   -0.8858602356
 H   -0.9050983248    1.8241780108    0.6780633434
 H   -0.1018944249    0.4825974775   -2.7227230260
 H    0.8135642576   -1.0004101052   -3.0243512590
 H   -0.9416413754   -1.0552472204   -2.9641348913
 H    0.9336515481   -3.4861732811   -1.9269488366
 H    0.1204612535   -4.3916508270   -0.6446971484
 H   -0.8329009023   -3.5407075954   -1.8663073990
 H   -1.9705159918   -1.6921184135    0.5197015053
 H   -1.0259517587   -2.8944907436    1.4738046723
 H    0.0996571864   -0.5307486071    2.2192371323
 H    1.3152045906   -2.8220948547    1.3932812673
 H    2.1160209610   -1.5657413307    0.3791485888