16

 C    0.8892958139    1.4161905983    0.0540615345
 C    0.3216968138    0.0365160371   -0.0424792957
 C   -0.1260329882   -0.7045082473   -1.1616743476
 N   -0.5532320574   -1.9246718580   -0.6895707595
 N   -0.3821222489   -1.9230609555    0.5950523560
 N    0.1538404035   -0.7331801799    1.0221362131
 C   -0.2197100147   -0.4415238204   -2.5350004264
 N    0.2789400149    0.6772039865   -3.1031088048
 N   -0.8316296971   -1.3445096780   -3.3228820290
 H   -0.6698894095   -1.3641142113   -4.3157681172
 H   -1.0796454511   -2.2056311176   -2.8498446259
 H    1.8416899000    1.5103635986   -0.4850069317
 H    0.2012407184    2.1746742943   -0.3434369542
 H    1.0781231260    1.6561108475    1.1022507734
 H    0.6365124007    1.4016010464   -2.5041335681
 H   -0.0166207742    0.9542512790   -4.0243860669