16

 N   -0.0681138330    1.3004239272   -0.2096220931
 C    0.0027911211    0.0548609543    0.0143715393
 O    1.1895052459   -0.5866846607    0.2156641185
 C    1.1264349050   -1.9731145088    0.4543671835
 C    0.0655974422   -2.6358008274    1.2765573418
 C    0.1787615429   -2.9017917676   -0.2384524119
 C   -1.2003464517   -2.2316171724   -0.4400430321
 C   -1.3107580739   -1.9720930337    1.0381365462
 C   -1.1974336495   -0.8012534678    0.0750412704
 H    0.8686253200    1.7099458608   -0.2115579277
 H    2.1344197264   -2.3468844705    0.5952820575
 H    0.2891078450   -3.2825235732    2.1149838371
 H    0.5043483858   -3.7884524538   -0.7666497430
 H   -1.9488124982   -2.5780998454   -1.1389519837
 H   -2.1606786848   -2.0801092291    1.6974490907
 H   -2.1174458633   -0.2537354018   -0.0898049036