21

 C    0.0037537921    1.5655614838    0.1057184408
 O    1.3746673267    1.9336109289   -0.1143175389
 C    2.2193614414    0.7802093156   -0.0030931653
 C    1.3524256230   -0.2681555296    0.6940326341
 C    1.6616700441   -1.7338040300    0.6045457642
 C    0.6728440111   -2.6278305924    0.5341533228
 C   -0.8000986743   -2.2818520406    0.5078697841
 C   -1.1028355171   -0.7797973064    0.7306998479
 C   -0.0098583889    0.0416584307    0.0605419778
 H   -0.3320916352    1.9449698665    1.0836573312
 H   -0.6122052787    2.0333814557   -0.6702923115
 H    2.5349961548    0.4397283693   -1.0017035339
 H    3.1145565315    1.0613265739    0.5619731387
 H    1.3041484763    0.0208768534    1.7568156911
 H    2.6982979353   -2.0606096698    0.6350415061
 H    0.9111425949   -3.6881861652    0.4825572340
 H   -1.2125633281   -2.6017296258   -0.4605551004
 H   -1.3300515214   -2.8864857729    1.2550769806
 H   -2.0978960805   -0.5395316393    0.3405276982
 H   -1.1202471782   -0.5557023293    1.8049334270
 H    0.0489723412   -0.2617215066   -0.9951962485