14

 O   -0.1484694423    0.0735727348   -0.3862001081
 C   -0.0312750631    1.2162601323   -0.0447079957
 C    1.3105061225    1.9511633999   -0.0154207346
 C    2.5693530339    1.1487803298   -0.5161259441
 C    2.6787877434    2.1312789058   -1.6889652715
 O    1.4370587935    2.0909055558   -2.4070907575
 C    1.5108514211    2.9060537857   -1.2535166810
 C    1.4902983914    2.6396466330    1.2505485328
 N    1.6106082162    3.2004770185    2.2548051316
 H   -0.8996172167    1.8408087323    0.2523970639
 H    3.4012294302    1.2070141961    0.1862027262
 H    2.3565264448    0.1134056513   -0.7829267540
 H    3.5581639647    2.4435015108   -2.2375493744
 H    1.2419751505    3.9530036238   -1.3203516336