19

 C    0.0280245701    1.4965355492   -0.1097645367
 N    0.0103660341    0.0392231449    0.0304171692
 C   -1.1404236398   -0.5721069711    0.8275025870
 C   -0.2116249565   -1.8034246482    1.0139148964
 C    0.6836082218   -0.5537159132    1.2869357124
 C    2.1565371601   -0.4693700682    1.5436111194
 C   -0.4932795627   -0.0009501122    2.0829523328
 N   -0.6652538948    0.6985679398    3.1173331246
 O   -2.0374687587    1.0160237216    3.2979241447
 H    1.0110629203    1.7966800804   -0.4861033814
 H   -0.7161039675    1.7813706150   -0.8600993680
 H   -0.1773824762    2.0534458259    0.8170165017
 H   -2.1717008311   -0.5304703467    0.4856870951
 H   -0.4172092176   -2.4619824273    1.8587043274
 H    0.0249366405   -2.3284103345    0.0867238415
 H    2.7146665912   -0.9203394493    0.7178760253
 H    2.4758801288    0.5714959580    1.6542798878
 H    2.4114536973   -0.9982575816    2.4667650536
 H   -2.0134177392    1.5243616076    4.1153896472