17

 C   -0.3675670403    1.4775623467   -0.0506937912
 C    0.1222563098    0.0503943918   -0.0017906387
 O    1.3944646554   -0.1243218590   -0.7348740550
 C    1.9982531774   -0.6957323384    0.3551182117
 N    3.1330790289   -1.2066326439    0.5136562285
 C    0.7930321361   -0.5385563372    1.2732983677
 C    0.9891236370    0.3555482452    2.4880421622
 O    0.1894300663   -1.7705021242    1.6220892637
 H    0.3866486098    2.1767793585    0.3189386185
 H   -0.6135742690    1.7542340481   -1.0801186318
 H   -1.2732500095    1.5852740126    0.5548508634
 H   -0.6168204341   -0.6495531875   -0.3999823000
 H    3.6837527047   -1.1887789877   -0.3465420444
 H    1.4198969323    1.3244048277    2.2217996446
 H    0.0333393286    0.5158491448    2.9952502948
 H    1.6766565577   -0.1304753474    3.1872938463
 H    0.8718290787   -2.3178249201    2.0285182096