21

 C   -0.2560086128    1.5541405715   -0.0874659246
 C    0.0234725426    0.0545278781   -0.0601693978
 C    1.2637521740   -0.3669169632   -0.9138546673
 C    2.0360766633   -0.5361863625    0.4024807155
 O    3.2003118542   -0.5737314488    0.6863219387
 C    0.7448571308   -0.4804206124    1.2346550192
 C    0.7340756678    0.2932015859    2.5487660892
 C    1.5683101625   -0.3911823630    3.6280419437
 O    1.4518238472    0.3826964491    4.8132817590
 H    0.6516588892    2.1382174562    0.1021483270
 H   -0.6401381598    1.8538592728   -1.0680022475
 H   -0.9980621974    1.8392845939    0.6648148874
 H   -0.8882512564   -0.4970248671   -0.3006142702
 H    1.1384581302   -1.3221631103   -1.4338634427
 H    1.6680697894    0.3643009253   -1.6191930390
 H    0.4243524981   -1.5168860726    1.4139944936
 H    1.1230056867    1.3065606105    2.4039188146
 H   -0.2947527578    0.3972840530    2.9146370081
 H    1.1969586192   -1.4182561094    3.7863390093
 H    2.6110546614   -0.4659537100    3.2905510381
 H    2.0641281978    0.0269348829    5.4634973057