19

 C   -0.5012386379    1.2541914137    0.0089026784
 C    0.2243429723   -0.0819549223   -0.2270533969
 C    1.2821009114   -0.0068970220   -1.3624153933
 N    0.7075259963    0.3668186420   -2.6401539772
 C   -0.0045756953   -0.5307783178   -3.3887943555
 C   -0.4514471389   -0.0373742076   -4.7544488609
 O   -0.2424090111   -1.6544995258   -2.9831379400
 C    0.8752189012   -0.5436604451    1.0010750538
 N    1.4085678924   -0.8905391814    1.9661698738
 H    0.2008568178    2.0316696569    0.3259423796
 H   -0.9866759603    1.5757870599   -0.9156534761
 H   -1.2656922227    1.1517442718    0.7823286601
 H   -0.5009677471   -0.8460448499   -0.5266069997
 H    2.0522682558    0.7244145271   -1.1024518287
 H    1.7557349748   -0.9873005515   -1.4603325964
 H    0.8887414251    1.2852272264   -3.0067429644
 H   -1.4771984260   -0.3671743248   -4.9290564280
 H   -0.3944443050    1.0485672249   -4.8667328326
 H    0.1786480072   -0.4999251345   -5.5205574160