20

 C   -0.3994405720    1.4147046903    0.3936171085
 C   -0.2145941650   -0.0931214213    0.1945844459
 C    0.9139744892   -0.6415197288    1.0521067579
 O    0.6238040843   -0.5201453044    2.4785737140
 C    0.6199726191   -1.9431309589    2.6609659667
 C   -0.7089356455   -2.4611073137    3.0122851916
 N   -1.7528692579   -2.8808994641    3.2772673012
 C    1.0889526416   -2.1815006393    1.1931131629
 C    0.3195362597   -3.1399065967    0.2986502258
 H    0.5003501331    1.9672551187    0.1010680364
 H   -1.2336196617    1.7905643924   -0.2052395162
 H   -0.6053896401    1.6378131070    1.4440723396
 H   -1.1464356621   -0.6151134544    0.4382379539
 H    0.0111825926   -0.3139289880   -0.8569213824
 H    1.8467548873   -0.1111067764    0.8210541340
 H    1.3274803618   -2.2571981498    3.4371687389
 H    2.1483095857   -2.4489880094    1.1947284123
 H   -0.7542277455   -2.9387591384    0.3006797186
 H    0.6793239651   -3.0722078481   -0.7328607381
 H    0.4624819703   -4.1728247666    0.6315208486