19

 O    0.1932494497    1.3447878099   -0.2693799080
 C    0.0467923671   -0.0507542501   -0.0346491047
 C    0.6695759176   -0.5348725554    1.3013865474
 C   -0.5216881778   -0.8326333578    2.2318148785
 C   -1.5702200763   -1.4106514652    1.2678405076
 C   -1.4225394550   -0.5290706795    0.0340129004
 C   -2.5152844552    0.3598297105   -0.4460292422
 N   -2.1774455086   -0.8770834135   -1.1741543927
 H   -0.2652127777    1.8100188339    0.4391962754
 H    0.5560370633   -0.5120996439   -0.8875516024
 H    1.2346985415   -1.4573827393    1.1267634498
 H    1.3724119580    0.2068054329    1.6896049858
 H   -0.2665182952   -1.5077844841    3.0525320031
 H   -0.8985583256    0.0948248287    2.6819566877
 H   -1.3176233480   -2.4472116811    1.0108896921
 H   -2.5880681064   -1.4123601115    1.6661271329
 H   -3.4797121548    0.3457959998    0.0559590821
 H   -2.2368136643    1.3100776900   -0.8912020495
 H   -1.6310547722   -0.6374916844   -1.9995390331