26

 C   -0.2641275952    1.5933256003    0.3022094954
 N   -0.1190567037    0.1481223693    0.2586013816
 C    1.0651021694   -0.4225747899   -0.3689574270
 C    0.8402675677   -0.5679334647    1.1065677541
 C    1.7784848852    0.2225831595    2.0099622626
 C    0.2783978854   -1.8820647627    1.7127693682
 C    1.4194719312   -2.7416788695    2.2919735854
 C   -0.7215668095   -1.5191168985    2.8307580679
 C   -0.4692657509   -2.7168971683    0.6554622224
 H    0.6816787160    2.1551759078    0.3442961115
 H   -0.7988012930    1.9155741474   -0.5976520623
 H   -0.8686487298    1.8759669640    1.1703924644
 H    0.8944209477   -1.2390411614   -1.0646177179
 H    1.8568396892    0.2630992155   -0.6736238969
 H    2.1093960471    1.1478614432    1.5349392443
 H    1.3040126269    0.4878669659    2.9599663082
 H    2.6765540102   -0.3572116238    2.2384559246
 H    1.8916133948   -2.2761687337    3.1619580558
 H    1.0316171048   -3.7142874133    2.6130090353
 H    2.1970349311   -2.9262394494    1.5421082522
 H   -1.5420656221   -0.9176058400    2.4275529135
 H   -1.1499315864   -2.4254930684    3.2717229014
 H   -0.2505531184   -0.9552268710    3.6420094393
 H    0.2177466279   -3.1554294598   -0.0753825423
 H   -0.9961449292   -3.5442707429    1.1416409497
 H   -1.2016620666   -2.1054426657    0.1236762187