19

 C   -0.4801021328    1.1827564119   -0.1928898326
 C    0.2382584658   -0.1560531832   -0.0982570070
 C    1.7048479519   -0.2303792707   -0.5759329084
 O    2.1525860863   -0.7717621576    0.6951442569
 C    0.8081916747   -0.6508147638    1.2548704429
 C    0.8669615374    0.2896660892    2.4617406376
 O    1.8641710837   -0.1542012966    3.3608211698
 C    0.3535004049   -2.0435514583    1.6751613849
 O   -0.6437142230   -2.5792906377    1.2635861568
 H    0.1258527878    2.0098116349    0.1898737774
 H   -0.7177096436    1.4075756820   -1.2379236146
 H   -1.4241632142    1.1665933132    0.3608903487
 H   -0.3842307332   -0.9394987371   -0.5355918200
 H    1.9226873177   -0.9153109285   -1.4017347505
 H    2.1712067974    0.7412871216   -0.7798480159
 H    1.0634526277    1.3160498267    2.1193699093
 H   -0.0845261372    0.2925295830    3.0046679939
 H    2.6694286770   -0.2424976630    2.8341625480
 H    1.0374277018   -2.5404711060    2.3924042128