16

 C   -0.0487402643    1.4546792802    0.0033748436
 N   -0.0118932307    0.0033380667    0.0264139808
 C    0.0022190270   -0.6278575056    1.3304412509
 C    0.0059292571   -0.6745564488   -1.1618872986
 O   -0.0070034509   -0.1323971991   -2.2564172652
 C    0.0425178610   -2.1275911288   -1.0768785731
 C    0.0730985452   -3.3363511910   -1.1650948831
 C    0.1075034128   -4.6923621498   -1.2394878900
 C    0.1380733774   -5.8979536432   -1.3035595512
 H    0.8294981227    1.8690969570    0.5136960716
 H   -0.0563027989    1.7830035318   -1.0346572654
 H   -0.9476690088    1.8239526995    0.5123426303
 H   -0.8938098667   -0.3541212514    1.9019603717
 H    0.0295080511   -1.7117806511    1.2221272701
 H    0.8819257028   -0.3096872534    1.9042948092
 H    0.1649535032   -6.9580302630   -1.3626031216