18

 C    0.0085005828    1.4632977196   -0.0291218346
 N   -0.0138607098    0.0124148250    0.0430474756
 C   -1.3706757231   -0.5686090194   -0.0149439234
 C   -1.2767342166   -1.7839397013    0.8972344583
 O   -0.2218320465   -2.6591733730    0.3880484462
 C    0.6984364050   -2.0777308795    1.3086299593
 C    0.5948326083   -0.5442000020    1.2396478573
 C   -0.3618328384   -1.3320695780    2.0796322201
 O   -0.6794867193   -1.1099694037    3.3984789600
 H    1.0423754179    1.8210131090   -0.0007560743
 H   -0.4270502248    1.7859648909   -0.9804117400
 H   -0.5524839029    1.9585158830    0.7857915159
 H   -2.1359577583    0.1252682717    0.3783731426
 H   -1.6403289987   -0.8406183464   -1.0408842847
 H   -2.2058474683   -2.3222109897    1.0903209679
 H    1.5909203919   -2.6332831035    1.5722808258
 H    1.3944391728    0.0198145257    1.7054682830
 H   -0.9048622922   -1.9547709883    3.8065244950