14

 N   -0.0608322689    1.3888715068    0.5295030453
 C   -0.0718001970    0.0598719679    0.1997179976
 N   -1.1039651154   -0.7043503024    0.2200578030
 C   -0.6326749293   -2.0437942567   -0.1095807993
 C   -1.2803569133   -2.5557904571   -1.3997054240
 O   -1.5254363612   -3.7087647472   -1.6191420361
 C    0.9039099442   -1.9297317418   -0.2950680553
 O    1.7273588556   -2.7746612181   -0.5186770475
 N    1.1311153623   -0.5641127678   -0.1339405142
 H    0.5857849467    1.9778546915    0.0260211921
 H   -0.9888899400    1.7803255327    0.6088198103
 H   -0.8430446104   -2.7757178324    0.6772373246
 H   -1.5062668931   -1.7450448774   -2.1264652409
 H    2.0548259796   -0.1711611878   -0.0431960756