16

 C    0.0444402031    1.4890928848    0.0095791806
 O    1.2250141550    0.6838676409   -0.0060256845
 C   -0.0473704619    0.0273571115    0.0026190811
 C   -0.3905435782   -0.7466426897    1.2602628112
 O    0.0571919451   -2.0916122725    1.1583494133
 C   -0.4267077413   -2.7020220454   -0.0083702679
 O    0.0348633213   -2.0791006584   -1.1775213678
 C   -0.4146069861   -0.7331637799   -1.2564480845
 H   -0.1396739975    2.0379594103    0.9330241750
 H   -0.1572383882    2.0478167720   -0.9042346847
 H    0.1056612616   -0.3054926292    2.1273141822
 H   -1.4825462254   -0.7231318961    1.4209184150
 H   -0.0430021116   -3.7234435505   -0.0175091174
 H   -1.5352421237   -2.7069524412    0.0021997535
 H   -1.5094797499   -0.7080507178   -1.3959299861
 H    0.0649688476   -0.2827040487   -2.1280579392