13

 O   -0.0063072462    0.3093253361   -0.9066329502
 C    0.0057767844    1.3357954158   -0.2945578875
 N   -0.6581497840    2.5319271589   -0.5398814936
 C   -0.3477755787    3.4007327331    0.4684387124
 N    0.4720604987    2.8888096234    1.3256271374
 O    0.7235831747    1.5786007813    0.8525474887
 C   -0.8827427899    4.7727267796    0.5436655542
 C   -0.8626725086    5.6593417344   -0.6342072404
 O   -2.0614580502    4.9947246383   -0.2340858027
 H   -1.3783379540    2.6583122624   -1.2310759373
 H   -0.8696335409    5.2097960527    1.5387206965
 H   -0.8487274949    6.7358121644   -0.4779073528
 H   -0.4179146905    5.3095289296   -1.5635957546