14

 O    0.1220550107    1.4141360221    0.0181629750
 C    0.0812380511    0.0015081037    0.0714744797
 C   -1.3401621438   -0.5436692808   -0.1680632754
 C   -1.3888659305   -2.0322303810   -0.0998346447
 N   -1.6585064861   -2.7818826074   -1.1368810615
 O   -1.5771450324   -4.0880397677   -0.6302777470
 C   -1.2642206754   -3.9628243320    0.6580677696
 N   -1.1306791984   -2.7412560663    1.0617748155
 H   -0.3342631776    1.7557545183    0.7937328992
 H    0.7458114246   -0.3509917177   -0.7235878730
 H    0.4686106586   -0.3868782727    1.0237603128
 H   -2.0102526605   -0.1383149118    0.6002432220
 H   -1.7018422844   -0.2105472696   -1.1433710800
 H   -1.1569491059   -4.8733582371    1.2295342977