17

 C    0.0055444969    1.7186898468    0.2157423370
 C   -0.1544799003    0.2027263669    0.2142874419
 N    0.8346588542   -0.4265403472    1.0917215691
 C    0.7759860206   -1.8763950530    1.1197234091
 C    2.1031067977   -2.4301643163    1.6394782585
 O    2.2171369841   -3.4108712085    2.3206460133
 C   -0.3632506770   -2.3423460787    2.0299689711
 O   -1.1574059511   -3.1928306481    1.7381943555
 H    0.9885891953    2.0121838998   -0.1707506875
 H   -0.7521183210    2.1864074714   -0.4190125878
 H   -0.0925179289    2.1172728047    1.2292700283
 H   -1.1522507493   -0.0649987558    0.5828517556
 H   -0.0937030074   -0.1846148975   -0.8191414093
 H    1.7667663366   -0.1162244717    0.8320116783
 H    0.6132791536   -2.3426383677    0.1272618142
 H    2.9923982380   -1.8377356354    1.3150844359
 H   -0.3945879919   -1.7963240497    2.9976422867