15

 N   -0.0848443220    1.4052142086   -0.0945183151
 C   -0.0319003790    0.0081820331   -0.0579610376
 C   -1.0979784976   -0.8463496043    0.0305926666
 C   -2.5640311076   -0.5923662462    0.0394568667
 O   -2.9427234545    0.3720185270   -0.9502484638
 O   -0.6485298284   -2.1436539671    0.1151597123
 C    0.7019619121   -2.0965602564    0.0830693571
 C    1.1435156687   -0.8151720529   -0.0233494606
 H    0.6675905797    1.8195323834   -0.6281070998
 H   -0.9809106809    1.7328968216   -0.4358631568
 H   -3.0972836253   -1.5452834239   -0.0876103153
 H   -2.9020337247   -0.1531707622    0.9859879109
 H   -2.6295667717    0.0374673736   -1.7982527011
 H    1.2079525820   -3.0463720963    0.1422431545
 H    2.1710304391   -0.4878111280   -0.0682097582