21

 C   -0.1203388339    1.5074380667   -0.0495957542
 C    0.0769498986   -0.0016798487    0.0692232752
 C    0.9213518369   -0.3658031607    1.2958009176
 O   -1.2285110625   -0.5723194795    0.1622307203
 C    0.7122262303   -0.5442034925   -1.2233343579
 O    2.0385386344   -0.0763538220   -1.4140383068
 C    2.8620578653   -1.1803046362   -1.7816093701
 C    1.8609727845   -2.3235017286   -1.9977847792
 O    0.7815770442   -1.9541370246   -1.1536337521
 H    0.8409630397    2.0113519648   -0.1750460799
 H   -0.7577783429    1.7426254932   -0.9070056603
 H   -0.6082592103    1.8890185485    0.8513596096
 H    0.4183150743   -0.0157854985    2.2008286316
 H    1.0505463777   -1.4496182310    1.3646037448
 H    1.9115124062    0.0939387377    1.2396439650
 H   -1.1175756955   -1.5298387770    0.1286332655
 H    0.0930740167   -0.2447007935   -2.0874173675
 H    3.4304542576   -0.9354734520   -2.6850142115
 H    3.5651948994   -1.4037933581   -0.9694579102
 H    1.5342780743   -2.3762682252   -3.0469680319
 H    2.2297527552   -3.3029780229   -1.6869089679