17

 C   -0.0563054163    1.6106659298    0.0131883583
 C    0.0187808938    0.1133909803    0.0592784003
 C   -1.1848610311   -0.8368072247   -0.0259269453
 N   -0.4711411160   -1.8588079664    0.8202978812
 C    0.6129939256   -0.8871649686    1.0462198277
 C    1.2570065230   -0.7197781807   -0.3182592320
 O    1.2109226486   -1.7552640514   -1.2424872396
 C    2.5045900506    0.0068936891   -0.3341793737
 N    3.4897927066    0.6128159130   -0.3324593232
 H    0.9175012177    2.0646481221    0.2146788236
 H   -0.3818331813    1.9512830964   -0.9764480350
 H   -0.7695533871    1.9921168996    0.7520588108
 H   -2.0595460416   -0.4155981458    0.4775461865
 H   -1.4680373332   -1.2027690073   -1.0170346105
 H   -0.9785182793   -2.0784186862    1.6692492949
 H    1.1443201467   -0.7904479511    1.9858475030
 H    0.7357069231   -2.4718333682   -0.7867630370