16

 C    0.1653648460    1.6326959681   -0.1035129981
 C    0.0673881137    0.1202951714    0.0321292836
 O    0.6399250534   -0.5189098050   -1.1233841632
 C    1.8859178120   -1.0134607629   -0.8786588047
 O    2.5551846210   -1.5219846588   -1.7257188176
 C    2.2293814625   -0.8009345829    0.5929782548
 C    0.8605445886   -0.5012296819    1.2276199807
 C    0.9039956416    0.3336636691    2.4204063333
 N    0.9385904379    0.9952294512    3.3673297824
 H    1.2070457582    1.9680326454   -0.1166210301
 H   -0.3063467830    1.9444704972   -1.0383197590
 H   -0.3432413491    2.1256513531    0.7289064251
 H   -0.9797298262   -0.1889372012    0.0699149283
 H    2.7295585671   -1.6779005174    1.0029345503
 H    2.9160858257    0.0466743196    0.6769212305
 H    0.3803310106   -1.4476571449    1.4981354537