17

 C    0.0269379205    1.6256270268    0.0295275856
 C    0.0410929969    0.1048561752    0.0067249380
 O    0.6696549253   -0.4103642678    1.1983013193
 C    1.9896653240   -0.6857102091    1.1506725354
 O    2.5995691901   -1.0758839390    2.0987110500
 C   -1.3848451234   -0.4881231432   -0.0169765074
 O   -2.0871747486    0.0081354213   -1.1193339288
 C   -1.3570041740   -2.0079680218   -0.0556122595
 O   -1.8979118950   -2.6100603056   -0.9524408000
 H    1.0460686112    2.0213578106   -0.0088636244
 H   -0.5318641787    1.9993518630   -0.8307655402
 H   -0.4499916740    1.9854956102    0.9461365242
 H    0.5830078175   -0.2577416371   -0.8772624050
 H    2.4275211046   -0.5206159834    0.1470264957
 H   -1.8738423341   -0.1995879400    0.9306391196
 H   -2.3762775057   -0.7759832527   -1.6154805320
 H   -0.8304084967   -2.5229679874    0.7671289693