19

 C   -0.0720994730    1.5406361294   -0.2426619696
 C   -0.0044032004    0.0788509211    0.2159755877
 C   -1.3604503821   -0.5953042226    0.1896848228
 C   -1.9057504231   -1.2392934720   -1.0766398329
 C   -1.5654768927   -2.0808929552    0.1336708634
 C   -0.4191642928   -3.0661866899    0.0979140049
 O   -2.6467532603   -2.5106174059    0.9283738237
 H    0.9159222773    2.0109444311   -0.2192799683
 H   -0.4579506814    1.6133184378   -1.2649000593
 H   -0.7360301419    2.1255244906    0.4031654823
 H    0.6987740500   -0.4665683510   -0.4241222593
 H    0.4089632947    0.0331945870    1.2321410590
 H   -2.1158251759   -0.0964859651    0.7924323911
 H   -2.9554709184   -1.0985157260   -1.3094493390
 H   -1.2489229314   -1.2936610914   -1.9404280571
 H    0.4179019775   -2.7026621302   -0.5030488034
 H   -0.0570592672   -3.2711996455    1.1106551569
 H   -0.7469501073   -4.0175385025   -0.3402046077
 H   -3.0318421016   -3.2851865296    0.5027899548