13

 N    0.0179633257    1.3632065139   -0.1298628618
 C   -0.0463796778    0.0070446439   -0.0769907661
 N   -1.1013530489   -0.6971477034    0.0942117021
 C   -0.6611377244   -2.0932388239    0.0403536261
 C    0.8579036600   -2.0178484204   -0.3313018831
 O    1.1478009159   -0.6113448781   -0.2775366256
 C   -0.8854942800   -2.7788315528    1.3249270607
 N   -1.0388189830   -3.3327116966    2.3272582117
 H    0.9225171889    1.7754088028    0.0308173712
 H   -0.7696257674    1.8469523793    0.2700555955
 H   -1.2221663203   -2.6451298363   -0.7225120747
 H    1.5086189059   -2.5391688703    0.3721580837
 H    1.0481538054   -2.3772275581   -1.3460164398