21

 C    1.0469207002   -1.2349113012    0.1313476713
 C    0.0628464347   -0.0689005713   -0.0390075227
 C    0.4313984819    0.8527291278   -1.2102360598
 N   -1.3439630933   -0.5363983061   -0.1210271307
 C   -1.7700375041   -1.3411731518   -1.1780032896
 N   -0.9958916600   -1.7162381093   -2.1168799568
 C   -2.3158007838   -0.2067061463    0.8380303172
 C   -1.9004265528    0.6681929830    2.0092437359
 O   -3.4605863495   -0.6034478698    0.7456308499
 H    2.0490602062   -0.8362641188    0.3184544576
 H    0.7653068157   -1.8593890233    0.9850535222
 H    1.0761004124   -1.8563439918   -0.7633794730
 H    0.1152831911    0.5298327200    0.8686005972
 H    0.4389994680    0.3047048281   -2.1521364741
 H   -0.2788066714    1.6817263993   -1.2906354028
 H    1.4268002969    1.2741814357   -1.0377091090
 H   -2.8260943572   -1.5889934716   -1.0791596692
 H   -1.5170373653   -2.2927995487   -2.7750588706
 H   -1.5391104534    1.6481082742    1.6829364832
 H   -2.7870889952    0.8038607341    2.6274565128
 H   -1.1131545411    0.2038411579    2.6107697811