17

 N    0.4724578585    0.1202550256    0.8250263700
 C   -0.1275205911    0.4309409643   -0.3567340280
 O    0.2880014528    1.2657058044   -1.1375833070
 C   -1.3968279939   -0.3605299611   -0.6252574994
 C   -1.4386593012   -1.3763796625   -1.7633889169
 C   -0.6868747384   -2.4086311410   -0.8691780580
 C   -1.7418894795   -3.5024351631   -1.0477016555
 C   -2.5105297990   -2.1817282457   -0.9647433433
 N   -1.5813989877   -1.6541178049    0.1666270978
 H    1.2771163611    0.6495481904    1.1183056974
 H    0.0409433362   -0.5369496692    1.4550013606
 H   -2.2593045213    0.3120385116   -0.5442823345
 H   -1.3609814921   -1.2295463363   -2.8434441789
 H    0.3879543352   -2.4925448340   -0.7074022435
 H   -1.7555703980   -4.0212391387   -2.0090297322
 H   -1.8726853060   -4.1919053258   -0.2097980656
 H   -3.5841179955   -1.9907322540   -0.9185673432