21

 C   -0.0096320174    1.6383739827    0.0721126308
 C    1.4928179892    1.2372090816   -0.0141283568
 C    1.2067277323    0.2645504641    1.1657588702
 C    0.0197351371    0.0846758457    0.1764447393
 C    1.0628434541    0.0895753952   -1.0045771014
 C    0.5879792464    0.4587614468   -2.4423837736
 C    1.2541719223   -0.5530854302   -3.4139930640
 C    2.0648811373   -1.4392324737   -2.5057833919
 C    1.9607736054   -1.0943792915   -1.2240613829
 H   -0.3107339419    2.1728848749    0.9772407614
 H   -0.4686828813    2.0785805247   -0.8139649158
 H    2.3505003343    1.9041576298   -0.1284641538
 H    1.8839998072   -0.5764252727    1.3148970264
 H    0.9605379367    0.7370745226    2.1204774721
 H   -0.8345486906   -0.5878060683    0.2835890097
 H   -0.5018926420    0.4089804280   -2.5173174519
 H    0.8719490789    1.4841633080   -2.6950142943
 H    0.5142724548   -1.1291510942   -3.9843897570
 H    1.8856830568   -0.0560974499   -4.1615589580
 H    2.6620715726   -2.2642986474   -2.8796959040
 H    2.4678594778   -1.6091587862   -0.4170803446