19

 C   -0.4841050528    0.6380411163    1.0721070827
 N    0.0810442117    0.1225703361   -0.1714105813
 C    1.2602840607   -0.7086935298    0.0161318264
 C    1.0358721715   -2.0413083831    0.6892615885
 N   -0.1383034682   -2.6591206623    0.6682349903
 N    0.1157789576   -3.8116003243    1.3368805102
 C   -0.9280739675   -4.7872535220    1.5586133679
 C    1.4070067581   -3.8305605201    1.7201605088
 N    2.0238686576   -2.7305300102    1.3323703349
 H    0.2430482188    1.3054930818    1.5489414246
 H   -1.3752165909    1.2300893015    0.8428688371
 H   -0.7648600238   -0.1368532006    1.8031950904
 H   -0.6253764741   -0.4201321809   -0.6575792840
 H    1.7188095036   -0.8905772225   -0.9651135072
 H    2.0043338944   -0.1549395411    0.5992290737
 H   -1.3328157890   -5.1300875723    0.6030861911
 H   -0.5057163366   -5.6371858516    2.0977159815
 H   -1.7368914370   -4.3496980876    2.1496033098
 H    1.8403518059   -4.6517053074    2.2725239246