17

 O    0.0085788852    1.4449717288    0.2046151277
 C    0.0015600157    0.0997893154   -0.2289027499
 C   -1.3866946842   -0.5266406660   -0.1001706150
 C   -1.4411599795   -2.1021881278   -0.1805583604
 N   -1.8829456857   -2.0753903202    1.2334764180
 C   -2.3179805828   -2.5958352433    2.4126709193
 N   -2.5865855600   -1.6108940579    3.2523993476
 C   -2.3331630778   -0.4206384688    2.5976251856
 C   -1.8896406423   -0.7138555084    1.3311542051
 H   -0.1822673120    1.4419417912    1.1495175938
 H    0.3136438182    0.1148901079   -1.2788515955
 H    0.7309082213   -0.5099679647    0.3279007791
 H   -2.0890554762   -0.0233707468   -0.7697789445
 H   -2.1890491750   -2.5144299422   -0.8611051055
 H   -0.4803789650   -2.6018261041   -0.3303370803
 H   -2.4178466103   -3.6497314475    2.6184993973
 H   -2.4984540096    0.5284843143    3.0824495975