19

 O   -0.1129265202    1.4167192588    0.1456764403
 C   -0.0967403752    0.0135271883    0.3425988577
 C   -1.2620897097   -0.5646036972   -0.4681399641
 C   -1.3675048125   -2.0129719319   -0.3562483357
 C   -1.4495680000   -3.2113340430   -0.2498010129
 C   -1.5035890143   -4.6473123618   -0.1500205609
 O   -0.9149598415   -5.3525146546   -1.2143971785
 C   -1.4484660541   -5.2966547328    1.2248954169
 C   -2.7233051526   -5.3233771427    0.4189227021
 H    0.6096683671    1.8018486275    0.6494444516
 H    0.8464164495   -0.4365717914   -0.0019815202
 H   -0.2227124482   -0.2519536737    1.4029583283
 H   -2.1898763628   -0.0872496308   -0.1292146589
 H   -1.1330412894   -0.2724330664   -1.5175659278
 H    0.0101261942   -5.0857436692   -1.2599462748
 H   -0.8768448653   -6.2157985490    1.2854228704
 H   -1.3946277707   -4.6518547142    2.0941547631
 H   -3.5509200374   -4.6975918013    0.7291845494
 H   -2.9974046768   -6.2579792747   -0.0565932158