19

 C   -0.0209055071    1.5651686766    0.0676195255
 C    0.0409147181    0.0431432389    0.0444670252
 C    0.7446125253   -0.5747870028   -1.1944261899
 C    1.5011583301   -1.8397279734   -0.6858664526
 C    1.6637302758   -1.5417617034    0.7736084420
 C    2.2794637679   -1.9550935021    1.9398875995
 C    1.7600357989   -1.0819063239    2.9245651691
 N    0.8897838873   -0.2000758524    2.4208821333
 N    0.8674521106   -0.5035733662    1.1152883054
 H    0.9792401770    1.9947171705   -0.0462548182
 H   -0.6527474397    1.9293419530   -0.7481452067
 H   -0.4377527232    1.9147805571    1.0151546705
 H   -0.9764320773   -0.3598420248    0.1467487445
 H    0.0367829369   -0.7995077092   -1.9948902286
 H    1.4669222375    0.1493494745   -1.5847051591
 H    0.9054223965   -2.7485523295   -0.8364178061
 H    2.4489298863   -1.9899143780   -1.2096899582
 H    2.9942878603   -2.7511727642    2.0691017285
 H    1.9907379190   -1.0568996807    3.9801015359