17

 O   -0.1892687459    0.0409036401    0.3594169528
 C   -0.1244044607    1.2093147065    0.1523962372
 N   -1.1408283862    2.2367248200    0.1104060044
 C   -0.2516223252    3.0476571270   -0.7717874180
 C    0.7774348839    4.2611454795   -0.7786134058
 C    1.0682719613    4.5833604484    0.6805378776
 C    1.2302510349    3.1196937175    1.1767537041
 C    0.9192414248    2.3652107074   -0.1480505138
 N    1.8615985844    3.1926415335   -1.0714707590
 H   -2.0967526252    1.9884532367   -0.1208777482
 H   -0.3813660273    2.7440718649   -1.8170853180
 H    0.6902905209    5.0670976429   -1.5084379097
 H    1.9766774021    5.1780936887    0.7912707038
 H    0.2388442825    5.1103845406    1.1579703832
 H    2.2523864422    2.8872035131    1.4816476476
 H    0.5487557760    2.8612092783    1.9864494513
 H    1.7235743873    2.8759762850   -2.0331748394