15

 O    0.0156296542    0.0245411417    0.0633838904
 C   -0.0110750305    1.2212465323    0.0341304759
 C   -1.1494101244    2.2497826380   -0.0589860534
 C   -1.2616820698    3.0690301534    1.2580010921
 N   -0.0560086169    3.8970928547    0.9320874789
 C    1.1942387189    3.1229159684    1.2203392238
 C    1.0776828204    2.2986421018   -0.0931316336
 C   -0.0644891139    3.3021037566   -0.4722501853
 H   -2.0527693959    1.9800180309   -0.6056231379
 H   -2.1515975765    3.7049022574    1.2537226444
 H   -1.2183628723    2.5291151914    2.2095395837
 H    2.0548645162    3.7971976481    1.1892103808
 H    1.2038227305    2.5822674103    2.1723986372
 H    1.9748183020    2.0683668872   -0.6673832236
 H   -0.0920580820    3.9474118278   -1.3471025935