21

 C   -0.1258993484    1.6094900077    0.0641507029
 C    0.0115381749    0.0961169651    0.0092184217
 C    0.8420377579   -0.6291749862   -1.1173102516
 C    0.5735250402   -0.6244514710   -2.5964764594
 C    2.1431481132   -0.1739422423   -0.3823646843
 C    1.1671011860   -0.6456842021    0.7319922318
 O    1.3342263022   -0.6323917241    2.1085311562
 C    0.8736029597   -1.8746483042   -0.1859501559
 O   -0.3275564980   -2.5914749172   -0.0491266752
 H    0.8083279115    2.1486207454   -0.1126856070
 H   -0.8514496472    1.9529131547   -0.6816859012
 H   -0.4998500736    1.9165507067    1.0467744112
 H   -0.9592185966   -0.3756720124    0.1733059060
 H    0.5748172392    0.3946491803   -2.9978627526
 H    1.3331669346   -1.1985066409   -3.1383606751
 H   -0.4027579167   -1.0713236601   -2.8113484257
 H    3.0332688992   -0.7898148904   -0.5518668000
 H    2.3905393308    0.8859333771   -0.4178658091
 H    2.1916373835   -1.0191339404    2.3168215682
 H    1.7241425714   -2.5533304925   -0.3504038480
 H   -0.3754229138   -2.9185449331    0.8553820470