21

 O   -0.1196955333    1.4479187562   -0.0074309226
 C   -0.0669373297    0.0293520033    0.0303238948
 C   -1.4750081246   -0.5644937863   -0.0924243111
 C   -1.5773719075   -2.0308897688    0.3364103754
 C   -1.0599179686   -3.0521134489   -0.6816675431
 C    0.3764917138   -2.9475262829   -1.1293627536
 C    1.1914523929   -1.8952840483   -1.2500349367
 C    0.9472798033   -0.4245121740   -1.0342644560
 O    0.6188774197    0.2084288210   -2.2924282701
 H   -0.1185106392    1.6748874027   -0.9477402911
 H    0.3361869469   -0.2370939398    1.0162351213
 H   -2.1205673694    0.0499786541    0.5430503454
 H   -1.8482698502   -0.4351185464   -1.1187583679
 H   -1.0412870792   -2.1651820392    1.2852819421
 H   -2.6265746634   -2.2711906128    0.5430633387
 H   -1.2102676999   -4.0588155197   -0.2730742789
 H   -1.6979118130   -3.0181596315   -1.5796837848
 H    0.7977356889   -3.9024436718   -1.4428996304
 H    2.1826942094   -2.0985975180   -1.6508302287
 H    1.8970337221    0.0442669525   -0.7538105247
 H    0.0000269110   -0.3703134615   -2.7506037280