20

 C   -0.0774505516    1.5665350413    0.0414427072
 C   -0.1962051182    0.0497719765   -0.1193811368
 C    0.8105339488   -0.5221412479   -1.1348443629
 C    0.7310798768   -2.0103709706   -1.2625756498
 C    0.2277297981   -2.7935028341   -2.2770509454
 N    0.3924524226   -4.0677714730   -1.8456662875
 C    0.0516082202   -5.3128140485   -2.5018407008
 N    0.9680311803   -4.0821257471   -0.6275389248
 N    1.1717333341   -2.8453249106   -0.2753072673
 H    0.9227664583    1.8505644438    0.3871782051
 H   -0.2574173212    2.0841110353   -0.9078812268
 H   -0.8010607903    1.9465474091    0.7691926821
 H   -0.0359014322   -0.4457089980    0.8444885168
 H   -1.2128672191   -0.2148333091   -0.4360559620
 H    0.6470660696   -0.0624078347   -2.1167801096
 H    1.8254419117   -0.2469049485   -0.8232320307
 H   -0.2118139820   -2.5590645367   -3.2323331678
 H    0.5893989633   -5.4119339170   -3.4489895524
 H    0.3453618056   -6.1202817406   -1.8312648126
 H   -1.0240781246   -5.3696269895   -2.6911217938