19

 C   -0.3186849158    1.4139941210    0.2179015432
 O    0.2911392567    0.1911034556   -0.1481901045
 C    0.8500186559   -0.4917205026    0.9266124874
 C    0.0125795292   -1.4955588614    1.7891232932
 C   -0.1119944652   -2.4296209756    0.5681181123
 C    1.3547939730   -1.9300137064    0.6588221044
 C    2.5900313635   -2.4372029879   -0.0231126864
 O    2.7400318062   -3.8319497667    0.1634275026
 O    1.2987102683   -2.1389060838    2.1373401227
 H    0.3965731530    2.0864113816    0.7142480524
 H   -0.6713879756    1.8863794918   -0.7012622574
 H   -1.1744172249    1.2598909720    0.8909367464
 H    1.5370763566    0.1254880278    1.5198327916
 H   -0.6859743202   -1.3143516505    2.6055842960
 H   -0.2530058480   -3.4845357660    0.8026673755
 H   -0.7045909346   -2.0837385506   -0.2791675429
 H    2.5169737885   -2.2593588483   -1.1009696829
 H    3.4610055382   -1.8766905410    0.3533091079
 H    2.6442389850   -3.9934069190    1.1094912684