23

 C    0.1209486009    1.5063215713   -0.0855498521
 C    0.0238419152   -0.0085987590    0.1120027711
 O    0.6623541994   -0.4137599575    1.3235388115
 C   -1.4085116646   -0.5675078487    0.0264739451
 C   -2.3225766492   -0.0044011876    1.1176440391
 C   -2.1068745059   -0.5143817742   -1.3838314519
 C   -2.2796012829   -2.0378458117   -1.3419229297
 C   -0.9347458115   -2.7002658677   -1.2635665340
 C   -1.5221087634   -2.1076492887   -0.0144432744
 H    1.1698105351    1.8157053661   -0.0820432061
 H   -0.3269721656    1.8166062254   -1.0349639216
 H   -0.3925178801    2.0488757484    0.7167239025
 H    0.6177140486   -0.4905423480   -0.6725739184
 H    0.3116659307    0.1288157553    2.0373837023
 H   -2.4664343938    1.0763144249    1.0171888433
 H   -3.3090479433   -0.4757837112    1.0674149558
 H   -1.9199058424   -0.2083663805    2.1165999931
 H   -3.0443193726    0.0464177964   -1.3605684588
 H   -1.5000523303   -0.1379139139   -2.2155031310
 H   -3.1675090077   -2.5757500178   -1.6510038474
 H   -0.9452532508   -3.7852432637   -1.2969132628
 H   -0.0716256785   -2.2566875082   -1.7541501122
 H   -1.7274389876   -2.7200082394    0.8560447564