20

 C   -0.1398279361    1.5586708454   -0.0101476989
 C   -0.0053251014    0.0346773286   -0.0329456813
 C    0.7479180970   -0.4907962227   -1.2562029680
 C    0.9510330526   -2.0072209020   -1.2029806911
 O   -0.0142949793   -0.1019460183   -2.3991480054
 C    0.7051151509   -0.1020275509   -3.6154017341
 C   -0.1149182187    0.4785122730   -4.6720433492
 C   -0.7694719499    0.9502897144   -5.5613915668
 H    0.8430922173    2.0422271627    0.0298888577
 H   -0.6516535704    1.9109812652   -0.9087314464
 H   -0.7086897856    1.8904905541    0.8635679423
 H    0.5163435040   -0.3143042676    0.8662327238
 H   -0.9990522041   -0.4301348653   -0.0210569139
 H    1.7343763088    0.0039056773   -1.3057290275
 H    1.4957700135   -2.3779796542   -2.0763126062
 H    1.5271946991   -2.2844812800   -0.3144630676
 H   -0.0166354952   -2.5171973525   -1.1620808454
 H    1.6373504561    0.4796643425   -3.5110694249
 H    1.0022205268   -1.1214292415   -3.9096475587
 H   -1.3530933254    1.3697657117   -6.3430939982