19

 O    0.1026131854   -0.0453602267   -0.1399720941
 C    0.0074443583    1.1403006327   -0.0175229993
 C   -1.2786162258    1.9271317492    0.0808967391
 C   -1.5236862699    2.8277985204   -1.1548241335
 C   -0.4226137557    3.8703570259   -1.4233664598
 C    0.8509398290    3.2884367049   -2.0245157933
 C    2.2014565604    3.6330021137   -1.4212856568
 C    1.6269373396    2.2673071015   -1.2331272765
 O    1.1281395020    1.9616213145    0.0524414352
 H   -2.1041657778    1.2225107224    0.2050712948
 H   -1.2192235658    2.5587027023    0.9751004154
 H   -1.6618295980    2.1971035443   -2.0415567758
 H   -2.4757907410    3.3449150226   -0.9924742495
 H   -0.8132113674    4.6329888600   -2.1064688706
 H   -0.1900556644    4.3908144017   -0.4876590994
 H    0.8203878272    3.1316473032   -3.0994051784
 H    3.0638014292    3.7377846393   -2.0701003192
 H    2.2002896269    4.2854227834   -0.5549454239
 H    2.0786090877    1.4182552349   -1.7391400543