20

 C   -0.3641398147    1.4508225992   -0.1172946919
 N    0.1109067093    0.0810083863    0.0787506561
 C    1.3641394965   -0.4945559608   -0.3020304348
 C    2.6234491673    0.2814642966    0.1875877122
 O    2.5934613733    1.7331611127    0.1823640944
 C    2.2207476908    1.7642694743    1.5878166878
 C    2.1252382184    0.2276745928    1.6360806930
 C    0.8438741233   -0.5310392425    1.1447636879
 C    0.2064962377   -1.6315095655    1.9450476417
 H    0.4252076168    2.1806583787   -0.3003113764
 H   -1.0408606652    1.4479093570   -0.9789651466
 H   -0.9517703160    1.7497541358    0.7563663650
 H    1.3825229611   -1.2676629967   -1.0667907241
 H    3.5826664169   -0.1273117240   -0.1408063947
 H    3.0383051439    2.1730378764    2.1938588720
 H    1.3124543476    2.3461953790    1.7700387526
 H    2.6785547959   -0.3001113186    2.4116020948
 H   -0.3653135423   -1.2202892480    2.7865600472
 H   -0.4821269622   -2.2034895316    1.3183721439
 H    0.9593856215   -2.3109540012    2.3591422499