18

 C   -0.3014843335    1.4119978471    0.1227590294
 C    0.0520659845   -0.0694247990    0.0888843903
 C    1.1481350004   -0.4366545677   -0.9649460070
 C    2.1599456393   -0.3908494585    0.1878737103
 O    3.3184072858   -0.1012565769    0.2789262131
 C    1.0439337782   -0.5253172863    1.2317693964
 N    1.1969541827    0.1954106200    2.4596564828
 C    0.7050085952   -0.2696321450    3.6448799631
 O    0.0091640192   -1.2539911946    3.7620176851
 H    0.5966725693    2.0412519194    0.1392356496
 H   -0.8827867709    1.6917359247   -0.7611341349
 H   -0.8928575163    1.6540449185    1.0106342821
 H   -0.8499295587   -0.6813919496    0.0398181835
 H    1.0361374997   -1.4461913360   -1.3713265084
 H    1.3265132234    0.2620527296   -1.7852275770
 H    0.8533848890   -1.5764629710    1.4715289032
 H    1.8567655812    0.9583577024    2.4806015797
 H    1.0093229314    0.3671010728    4.4978876987