18

 C   -0.0689602217    1.5430893379    0.0235757796
 C    0.0807169711    0.0554628770    0.0120110257
 N   -0.8271136681   -0.8663319601    0.7338745508
 C    0.6366237682   -0.8977080045    0.9998443365
 C    1.3573141578   -1.6883651965   -0.1481730641
 C    2.7136721160   -2.3051158122   -0.0237507302
 N    0.3196853453   -2.1706336664   -1.0892874336
 C    0.7744339179   -0.7546613485   -1.1390464218
 H    0.8482801796    2.0344026600   -0.3209680348
 H   -0.8856739324    1.8664621673   -0.6331389382
 H   -0.2843124052    1.9083230309    1.0337477519
 H   -1.2371258227   -0.3207055320    1.4942962165
 H    1.0393030369   -0.7260579363    1.9910121520
 H    2.6731126676   -3.2472043705    0.5363292648
 H    3.1404167831   -2.5177672002   -1.0101016427
 H    3.4044363860   -1.6359190246    0.5020338033
 H    0.8202942552   -2.6508642453   -1.8395066014
 H    1.2041429454   -0.3255638760   -2.0364055841