20

 C   -0.1051282520    1.7423636216   -0.3118884031
 C   -0.3083799782    0.2244959594   -0.2572624752
 C    0.7425863073   -0.5562624359   -1.0491710797
 C    2.2014439898   -0.3690978742   -0.5604336082
 N    2.8447305850   -1.5985751885   -0.9985552585
 C    1.9865197679   -2.6367358618   -1.2107901540
 O    2.2763834527   -3.8008175151   -1.3991243272
 C    0.5586398097   -2.0812206961   -1.0603772918
 O    0.0540784111   -2.5337194527    0.1909826227
 H    0.8518593135    2.0404962313    0.1301227985
 H   -0.1220971177    2.1110692330   -1.3438940734
 H   -0.8945620835    2.2621195175    0.2391253961
 H   -0.3004492583   -0.1221273502    0.7807380374
 H   -1.3002233264   -0.0254089435   -0.6522949894
 H    0.7120269804   -0.2333240620   -2.0978241082
 H    2.6802197607    0.5079004605   -1.0053926016
 H    2.2414518040   -0.2614785799    0.5327542928
 H    3.8280792537   -1.7806725417   -0.8661807715
 H   -0.0805688349   -2.4218739913   -1.8850411026
 H    0.2032859249   -3.4868206307    0.2180906070