16

 C   -0.0821133101    1.5193852821    0.0163472552
 C    0.0294042318   -0.0135664381   -0.0056563334
 O    0.7026299292   -0.4833925297   -1.1736137391
 C   -0.1269770154   -0.5446100789   -2.3212277572
 C    0.6147493925   -1.1345244825   -3.4270999798
 C    1.2014285461   -1.6147826616   -4.3580031675
 C    0.7647790085   -0.5057389346    1.1584889776
 C    1.3532542214   -0.8800163653    2.1361064580
 H    0.9154565046    1.9627478038   -0.0255132203
 H   -0.6670836106    1.8805526981   -0.8340704311
 H   -0.5760786840    1.8486224483    0.9344933750
 H   -0.9857313807   -0.4454224429    0.0199795591
 H   -1.0251531415   -1.1505865868   -2.1118457557
 H   -0.4811969406    0.4559144824   -2.6163497921
 H    1.7274402432   -2.0423446790   -5.1754818984
 H    1.8772236657   -1.2240083152    2.9934589195