20

 C   -0.2480697671    1.4610144835    0.0919012338
 C    0.0120562899   -0.0493724472   -0.0442988794
 C    0.6135647563   -0.4529554443   -1.4008016660
 C    2.0078274535    0.0904250106   -1.7098005624
 O    3.0067177062   -0.4436252608   -0.8645668458
 C    3.0703892891    0.1138249321    0.4265885605
 C    2.0667169450   -0.4147480679    1.4628909349
 O    2.4446706714   -0.6714446863    2.5923189710
 N    0.7580897112   -0.5921349732    1.0963288359
 H    0.6789685817    2.0407608735    0.0758892460
 H   -0.8844728852    1.8184237459   -0.7244710121
 H   -0.7549189043    1.6746833620    1.0373299951
 H   -0.9614198523   -0.5494110737    0.0089959890
 H    0.6561794529   -1.5461993750   -1.4513221930
 H   -0.0716973774   -0.1147611454   -2.1880412352
 H    2.2901429018   -0.2023111574   -2.7261183460
 H    2.0243000932    1.1917182154   -1.6693300986
 H    4.0533774593   -0.1287314146    0.8339390329
 H    2.9853638398    1.2136645634    0.3855062270
 H    0.2001190749   -0.8882839204    1.8857819522