23

 C   -0.0433596093    1.5639429533   -0.0687644111
 C    1.4483955711    2.0258021735   -0.0436568408
 C    2.1978551095    0.8178939808    0.5300511514
 C    3.7002831302    0.6648344538    0.3230314610
 C    4.1832612517   -0.6304908447    1.0152453306
 C    3.2067707766   -1.7801281020    0.9067811282
 C    1.9699309930   -1.6760095290    0.4160241891
 C    1.4442928541   -0.3649561110   -0.0937243809
 C   -0.0256142911    0.0178624966    0.1455073775
 H   -0.6246107875    2.0581861079    0.7146218083
 H   -0.5168637898    1.8274178342   -1.0187459027
 H    1.8021696126    2.2348375857   -1.0607855489
 H    1.5956585437    2.9395422712    0.5394740032
 H    2.0018648527    0.7809435442    1.6135713734
 H    3.9127417579    0.6127772823   -0.7532193697
 H    4.2562762473    1.5255657759    0.7118901481
 H    5.1553502247   -0.9367838150    0.6069971194
 H    4.3725516685   -0.4324630118    2.0810774196
 H    3.5626064098   -2.7433937047    1.2671405470
 H    1.3296342325   -2.5536817085    0.3562021559
 H    1.6116490854   -0.3244025113   -1.1843547273
 H   -0.3112412701   -0.2321739911    1.1738935682
 H   -0.7196794935   -0.5068885003   -0.5174053697