16

 O    0.0009125900   -0.0107845112   -0.3157073463
 C    0.0274459532    1.1582734791   -0.0700759830
 O   -1.1073479269    1.8647435510    0.2312249988
 C   -0.8173354369    3.2373669040    0.5074159579
 C   -0.3591834866    3.5211822632    1.9588984190
 N    1.0786249367    3.6530283554    1.5424364620
 C    1.7579205811    2.3181234204    1.4474629161
 C    1.2327634943    2.0839676612   -0.0074303321
 C    0.6510462016    3.5018127929    0.0914730357
 H   -1.6268766757    3.8398697493    0.0961928480
 H   -0.7302542841    4.4731055764    2.3494077277
 H   -0.5678076078    2.7293493124    2.6845423851
 H    2.8433742397    2.4389744141    1.4828299687
 H    1.4602512006    1.5874735935    2.2058649259
 H    1.9703998904    1.8278542603   -0.7651087863
 H    0.9028136703    4.2821035678   -0.6262114971