20

 C   -0.1141865351    1.5471841893    0.0722820680
 C    0.0275799269    0.0560781358   -0.0473742158
 C   -0.3387398537   -0.7265562745   -1.3041695575
 C   -0.6851021602   -1.9022410506   -0.3633787145
 C    0.4753456585   -2.8611589536   -0.0941662653
 C    1.8656605470   -2.5124288980   -0.5813055053
 C    1.4204293697   -2.0742615800    0.7875010878
 C    0.7140085365   -0.7599121998    1.0060993799
 N   -0.7540023490   -0.9144823820    0.8264305496
 H    0.6905847058    2.0597038841   -0.4683078037
 H   -1.0691752978    1.8820857341   -0.3477635621
 H   -0.0747990277    1.8663883551    1.1178260410
 H   -1.2516146368   -0.2998587887   -1.7304338679
 H    0.3852934000   -0.8646088199   -2.1109341258
 H   -1.6325952892   -2.4091283188   -0.5391422915
 H    0.2456601894   -3.8999571899    0.1135251665
 H    2.5807980745   -3.3286359628   -0.6214580535
 H    2.0068541255   -1.7729197036   -1.3586657981
 H    1.8866463593   -2.5203296281    1.6592360906
 H    0.9862449664   -0.2034689282    1.8984507873