22

 C   -0.3238692393    1.4220211494    0.1048864747
 C    0.0732083844   -0.0430154255   -0.0405873566
 C   -1.1019349415   -1.0320385743    0.2647242908
 C   -0.3931029340   -1.4696974147    1.5776255338
 C    0.8710331542   -0.6598760935    1.1619593438
 C    2.0305852399   -1.4073255986    0.5270349999
 C    1.7507269878   -2.4868237183   -0.4562443179
 N    2.1048259345   -1.1448597571   -0.9316508718
 C    0.9453214383   -0.3037535136   -1.2947407415
 H    0.5582010378    2.0720809698    0.1202528984
 H   -0.9612654790    1.7413847971   -0.7283839755
 H   -0.8843659293    1.5922338806    1.0307490946
 H   -2.0771740875   -0.5546959792    0.3948014757
 H   -1.2187660985   -1.8293708979   -0.4741640070
 H   -0.8759835894   -1.0721539709    2.4735903438
 H   -0.2431594743   -2.5422298698    1.7191249456
 H    1.2377306363    0.0485382560    1.9095335789
 H    2.9811706709   -1.4128866485    1.0537271883
 H    2.5008517267   -3.2493192328   -0.6501870365
 H    0.7279135487   -2.8341832542   -0.5754135564
 H    0.3796781368   -0.7711024622   -2.1091060827
 H    1.3434417963    0.6430093881   -1.6771783425