15

 C    0.0117695598    1.5067178496   -0.0018145261
 C   -0.0092662856    0.0030827322    0.0132409753
 N    0.0596969249   -0.6240946072   -1.1641770839
 C    0.0407317133   -1.9654228269   -1.1474456253
 C   -0.0480319486   -2.6768578636    0.0600666672
 N   -0.1169044946   -2.0583745086    1.2342041048
 C   -0.0972762741   -0.7254163891    1.2055636052
 C    0.1129531664   -2.6661565286   -2.3895092199
 C    0.1719535510   -3.2926276537   -3.4151495020
 H    0.9297105990    1.8696267665   -0.4744314742
 H   -0.8263176676    1.8930340729   -0.5900770026
 H   -0.0492298258    1.9192115585    1.0080628457
 H   -0.0624090376   -3.7626976173    0.0588681708
 H   -0.1533285459   -0.2131403318    2.1628120650
 H    0.2247211955   -3.8326348027   -4.3283287501