20

 C   -0.5681640035    1.4888131161   -0.1393982640
 C    0.3463881174    0.2946642575    0.1241641399
 N    1.0424169233   -0.0876250689   -1.0964292077
 C    2.0938833296   -0.7951334479   -1.0147720048
 O    2.5666228726   -1.2517431424    0.1872720336
 C    3.9405815756   -1.6560929342    0.2350571682
 C    4.2927667043   -2.6429744224   -0.8731972046
 C    3.8050470121   -2.1031039588   -2.1885293822
 C    2.8040612328   -1.2193480854   -2.2257471040
 H    0.0132575893    2.3570300503   -0.4650459863
 H   -1.2888195938    1.2553702309   -0.9286678905
 H   -1.1192541583    1.7645372336    0.7656246601
 H    1.0517707313    0.5195093047    0.9361332739
 H   -0.2531516687   -0.5581037532    0.4758486144
 H    4.5780119027   -0.7654472523    0.1519012223
 H    4.0808482576   -2.0878863853    1.2285951457
 H    5.3783700506   -2.7950899479   -0.8871533071
 H    3.8445509086   -3.6265184486   -0.6736833764
 H    4.2721975762   -2.4517843596   -3.1046456480
 H    2.4187739604   -0.8042924864   -3.1489318827