21

 C   -0.0559872978    1.4279493780    0.0636922823
 C    1.3187445210    0.7978462544    0.0310638633
 O    2.0337902441    0.5960816587    1.2214101136
 C    1.1934357846   -0.1267904840    2.1264280176
 C    0.1607783489   -0.8820998269    1.2704345311
 C    0.5779582060   -2.2670036506    0.7401540777
 C   -0.2176025575   -2.4202204848   -0.5726364699
 C   -0.2951728052   -0.9888434033   -1.1807936566
 C    0.0994442084   -0.0744588446   -0.0283168803
 H   -0.4229814033    1.8677264261    0.9861536781
 H   -0.3699424544    1.9525647376   -0.8339350861
 H    1.9765944697    0.9678405218   -0.8144054087
 H    1.8324890546   -0.7840173674    2.7249464791
 H    0.6929987885    0.5714631068    2.8122210572
 H   -0.8036091176   -0.9437028417    1.7880534897
 H    1.6551068201   -2.2575128851    0.5325373371
 H    0.3868404754   -3.0767116563    1.4506192527
 H    0.2321728372   -3.1457707385   -1.2557490224
 H   -1.2281866096   -2.7794476106   -0.3483507532
 H    0.3849232731   -0.8727879464   -2.0316528219
 H   -1.3025672562   -0.7700634431   -1.5502697105