21

 C   -0.0334189340    1.5298709177   -0.0494235708
 C   -0.0030999861    0.0740422096   -0.0356795080
 C    0.0316484377   -1.1295589382   -0.0258345958
 C    0.0384744009   -2.5883410559   -0.0089327408
 C   -1.3795358731   -3.1834966244    0.1130299991
 C   -1.4124590506   -4.7292152940    0.0364228305
 C   -0.6827242493   -5.4092191240    1.2135319502
 C   -2.7963517805   -5.1954581674   -0.0434528536
 C   -3.9388862255   -5.5673495695   -0.0884403315
 H    0.5655922731    1.9500043210    0.7662845536
 H    0.3633142079    1.9288669230   -0.9896972531
 H   -1.0555933494    1.9081149470    0.0636526654
 H    0.5105753392   -2.9660965250   -0.9268332379
 H    0.6668266208   -2.9380637903    0.8193014509
 H   -1.8340424203   -2.8583196192    1.0552366055
 H   -2.0018207988   -2.7773134334   -0.6897536752
 H   -0.9051749509   -5.0270762111   -0.8931616712
 H    0.3780394835   -5.1445144066    1.2261895583
 H   -1.1269308358   -5.1063431957    2.1667843574
 H   -0.7591003963   -6.4966530846    1.1358721884
 H   -4.9457134323   -5.9005086789   -0.1388324015