15

 O   -0.4402259974    1.4067179079   -0.4021812595
 C    0.0007335314    0.0894056093   -0.1391952548
 C   -1.1484901607   -0.9227778302   -0.1777088827
 N   -1.7136748032   -0.9659892478   -1.5169349386
 C   -2.9263804788   -0.6646482228   -1.6515501793
 O   -3.5748891645   -0.6456157126   -2.8548303713
 C   -3.0397473934   -1.3449225964   -3.9152622929
 O   -3.4922978904   -1.2288820740   -5.0085850679
 H   -0.7474608218    1.4270891623   -1.3147956357
 H    0.7835259491   -0.2254924291   -0.8448149196
 H    0.4353097877    0.1011504311    0.8652504517
 H   -0.7548635265   -1.9172700414    0.0659664000
 H   -1.8972506944   -0.6529533335    0.5832899568
 H   -3.6163200944   -0.3673768702   -0.8561700809
 H   -2.2072793425   -1.9920058126   -3.6110149652