17

 C   -0.0558435995    1.5542429350    0.0081462084
 C    0.0518689677    0.0319453219    0.0060338819
 C    0.7034186288   -0.5048486517   -1.2708650351
 C    1.0134536665   -1.9905000140   -1.1919274930
 O    1.0650334410   -2.7259790546   -2.1503849276
 N    1.2726374535   -2.4443540125    0.0911324304
 C    1.2946476713   -1.7016812338    1.2819055339
 O    1.6865521758   -2.1871792408    2.3209487454
 N    0.8580295239   -0.4103321666    1.1428737802
 H    0.9351419799    2.0120704713   -0.0699799929
 H   -0.6651158156    1.8934027837   -0.8341338510
 H   -0.5296691828    1.9130518380    0.9280134099
 H   -0.9636920122   -0.3905451591    0.0790926561
 H    0.0693517925   -0.3406355522   -2.1438811935
 H    1.6530685785    0.0180648920   -1.4447898300
 H    1.5704139236   -3.4059202455    0.1854308699
 H    0.7318178573    0.0579830188    2.0279134071