17

 O   -0.0421371271    0.0641701315    0.0692393246
 C   -0.0172870181    1.2656441979    0.0732887669
 C   -1.2005302092    2.1984810905    0.3037817283
 O   -0.7683703675    3.4989984859   -0.0318699941
 C    0.6644279148    3.5829091166   -0.0484868446
 C    1.2459403370    4.1371426684    1.2661276565
 O    1.5754777414    2.9999236654    2.0541158446
 C    2.1288156844    2.0591225805    1.1492852184
 C    1.2243194484    2.1453250988   -0.1009693914
 H   -2.0571074814    1.9178687823   -0.3181751006
 H   -1.5042802221    2.1209067403    1.3600560914
 H    0.9293963128    4.2068794953   -0.9052948740
 H    2.1480477700    4.7355744349    1.0564233632
 H    0.5262205684    4.7493373238    1.8128642703
 H    3.1658538161    2.3237016471    0.8878976991
 H    2.1212774373    1.0728074265    1.6185330193
 H    1.7462555149    1.8802647143   -1.0216084579