16

 O   -0.1331703466    0.0129811529    0.1803063611
 C   -0.0489828138    1.1997585333    0.0214927227
 N   -1.0006896960    2.2113871605   -0.0427889324
 C   -0.0633999681    3.3192230785   -0.2269564305
 C    0.4398726112    4.0480140474    1.0582013664
 C    1.5723719861    3.0083573159    1.1626705044
 O    2.7672309891    3.3626473237    0.4261653260
 C    2.4635632557    2.4210946018   -0.6401126705
 C    1.0622588367    2.2377691753   -0.0989535742
 H   -1.9579930335    2.2105252996    0.2806633092
 H   -0.2245313022    3.9015799062   -1.1355135858
 H    0.8098148103    5.0615218367    0.8898425086
 H   -0.2736545283    4.0513722293    1.8860463159
 H    1.7999577221    2.5335081630    2.1204883747
 H    2.5690458355    2.8672044709   -1.6348046021
 H    3.0907855218    1.5230419550   -0.5714094134