18

 C    0.1003627078    1.3660854576    0.1004537765
 O    0.0079925627   -0.0394719308    0.1841030710
 C   -1.2817393248   -0.5266752343   -0.1218414126
 C   -1.2395351555   -2.0172876801   -0.0714953009
 C   -2.2034058710   -3.0004350899    0.0196203324
 C   -3.6890628352   -2.8848043167    0.1230313401
 N   -1.5713177275   -4.2119971455   -0.0048226993
 N   -0.2840749178   -4.0350680197   -0.1018356838
 N   -0.0793789890   -2.7087387204   -0.1528022809
 H    1.1285216651    1.6383465606    0.3474956974
 H   -0.1337672978    1.7283163925   -0.9122012456
 H   -0.5803638600    1.8584094476    0.8110388416
 H   -2.0316146471   -0.1443442570    0.5908637709
 H   -1.5921304458   -0.1779758923   -1.1229518424
 H   -4.1517420024   -2.6390896326   -0.8401162538
 H   -4.1033084969   -3.8382626848    0.4577366993
 H   -3.9870837679   -2.1090270654    0.8367339921
 H    0.8525108931   -2.3262981887   -0.1844512519