23

 C    0.8744845327   -1.3222443884   -2.1426787396
 C    0.2841921079   -0.3818241219   -1.0820755559
 C    0.3043295562    1.0671083648   -1.6001000708
 C   -1.1505597697   -0.7388853373   -0.6618650461
 O   -2.0091176085   -1.0479696794   -1.7892444681
 C   -2.3601963985   -2.3368187777   -1.2419366984
 C   -1.5369881533   -2.0779945305    0.0343633689
 C   -0.5058220769   -3.1060736595    0.4580394647
 O   -1.2225457412   -4.1547797589    1.0997859408
 H    1.8564037852   -0.9618322837   -2.4651657158
 H    1.0067652849   -2.3434095228   -1.7780521791
 H    0.2187224620   -1.3581822547   -3.0167624847
 H    0.9016271543   -0.4271423321   -0.1730407889
 H   -0.3494547933    1.1689555721   -2.4730195909
 H   -0.0429585448    1.7709313730   -0.8365977599
 H    1.3143311419    1.3645784372   -1.8989156977
 H   -1.5558084353    0.1212835027   -0.1099823126
 H   -3.4424928311   -2.4449657563   -1.1103239239
 H   -1.9940873011   -3.1607461575   -1.8694018054
 H   -2.1733293414   -1.8949097649    0.9043049724
 H    0.0485094996   -3.4913444201   -0.4085103419
 H    0.2254113785   -2.6460075193    1.1427327339
 H   -0.6000596982   -4.8541003350    1.3195933691