19

 C    0.0489074297    1.3301018517    0.7121936462
 C   -0.0480291504    0.0372551555   -0.0794954851
 O   -1.3198784926   -0.5349141767    0.1465521899
 C   -1.5162624281   -1.7479741502   -0.5467496178
 C   -2.8853543680   -2.2658460658   -0.2400302957
 C   -3.8289669572   -1.6828227475    0.5795301408
 N   -4.9109973171   -2.4999028131    0.5580445439
 N   -4.7440715006   -3.5834901704   -0.2213406389
 C   -3.5137379456   -3.4436181133   -0.7075668956
 H    1.0251060882    1.7993195139    0.5581702577
 H   -0.7276424653    2.0325462150    0.3962649985
 H   -0.0781693128    1.1358729628    1.7810219153
 H    0.0952974331    0.2303065068   -1.1564011350
 H    0.7446109115   -0.6661099512    0.2279719921
 H   -1.3936815288   -1.5908088656   -1.6333754825
 H   -0.7466108751   -2.4842439563   -0.2534534409
 H   -3.7986486625   -0.7726470487    1.1542754359
 H   -5.7827466248   -2.3797392727    1.0444586454
 H   -3.1180340137   -4.1932357642   -1.3780960742