18

 C   -0.0883131211    1.4485473314    0.0098300652
 O   -0.0411880494    0.0408277692    0.1444537750
 C   -1.2892831030   -0.6026059696    0.0343371390
 C   -1.6976022660   -0.8507042942   -1.4158157426
 O   -2.8943966545   -1.6243070367   -1.4667529974
 C   -3.0135063946   -2.7267222771   -0.6932488561
 N   -3.8540796370   -3.6084859812   -1.0198883984
 O   -2.2896288164   -2.7912602887    0.4598510459
 C   -1.1405049304   -1.9699235865    0.6829275131
 H    0.9266731873    1.8159244094    0.1750279487
 H   -0.4164275574    1.7644934560   -0.9900606016
 H   -0.7579471336    1.9007480703    0.7558995354
 H   -2.0800333413   -0.0298236650    0.5428849595
 H   -1.9261221398    0.0711486906   -1.9540095789
 H   -0.8810439594   -1.3663742874   -1.9398371167
 H   -3.8706966241   -4.3392396074   -0.3115399295
 H   -0.2471335542   -2.4603436859    0.2744695657
 H   -1.0274543452   -1.8924885273    1.7660776937