19

 C    0.0200227421    1.4470125762    0.0212074651
 N    0.0294621750    0.0013824252    0.0184130352
 C    0.0782439551   -0.7888784548   -1.1051052782
 N    0.1494207367   -0.1912174582   -2.3849663650
 C    0.1020029934   -2.1109392109   -0.7036737453
 C    0.0588747200   -2.1052923863    0.7161048940
 O    0.0661577042   -3.1825251822    1.5645286878
 C    0.0013939654   -0.8018876219    1.1538159516
 C   -0.0769892607   -0.2650753448    2.5418335040
 H    0.2622826834    1.7881931185   -0.9858598795
 H   -0.9596001019    1.8488613030    0.3083653769
 H    0.7672874635    1.8352650785    0.7201857880
 H   -0.7673728902   -0.0576682195   -2.8031818456
 H    0.6892643932   -0.7689672494   -3.0179677671
 H    0.1332165633   -2.9716429754   -1.3558963779
 H    0.0428886648   -3.9830611366    1.0339743662
 H    0.7950499939    0.3436528582    2.8169064582
 H   -0.9679315286    0.3553693295    2.7068457326
 H   -0.1242852528   -1.1039267893    3.2400269089