19

 C   -0.1417340467    1.5279840873   -0.0085763526
 C    0.1059137991    0.0303198168    0.0154358564
 N    1.2441617189   -0.4490931980   -0.8542080345
 C    1.7667433509   -1.2405718664    0.2850990503
 C    2.2013681517   -0.2684576192    1.3518186960
 C    0.7414438086   -0.6290121783    1.2563961647
 C   -0.0297160955   -1.2388014745    2.3889985053
 C    2.2374923724   -2.5772386861    0.1583689336
 N    2.6001400551   -3.6716171814    0.0443519889
 H    0.7629939015    2.0832826478    0.2523897762
 H   -0.4553498674    1.8481421464   -1.0073287760
 H   -0.9344222168    1.7988000535    0.6973312202
 H   -0.8190278510   -0.5072470304   -0.2280487905
 H    0.9036188118   -1.0555748695   -1.5940409118
 H    2.7155421310   -0.7024404715    2.2031000182
 H    2.5811373858    0.6923969770    1.0177948207
 H   -0.4275253868   -0.4612433933    3.0522439974
 H   -0.8736425688   -1.8334343316    2.0239176707
 H    0.6066818862   -1.8930937485    2.9924619269