21

 C   -0.2876364129    1.4786373617    0.0677186878
 C    0.0660448400   -0.0110405439   -0.0297447703
 C    0.8407616343   -0.3353469232   -1.3408165235
 C    2.3294399687   -0.0600598360   -1.2879526934
 C    3.1778473134   -0.7931804040   -0.5648483746
 C    2.7089164494   -1.9441693574    0.2581692399
 O    2.8534983802   -1.8565323022    1.6852445442
 C    1.5323940382   -1.7913685820    1.1305854709
 C    0.8348545071   -0.4490231617    1.2371237941
 H    0.6179164203    2.0961610333    0.0563003326
 H   -0.9201453585    1.7932489140   -0.7688727245
 H   -0.8254791499    1.6985588124    0.9960880981
 H   -0.8738936122   -0.5762169037   -0.0802429727
 H    0.6885374061   -1.3941613270   -1.5768741552
 H    0.3858492836    0.2255817295   -2.1636512926
 H    2.7128935766    0.7719121790   -1.8737819567
 H    4.2442010624   -0.5805837640   -0.5637402207
 H    2.9434383895   -2.9383933455   -0.1294899256
 H    0.9278189523   -2.6776374745    1.3288652202
 H    1.6097371635    0.2902188926    1.4598611741
 H    0.1501305879   -0.4516501175    2.0932550979