21

 C    0.0251585060    1.4730067520   -0.0343403465
 N   -0.0121786473    0.0185180919    0.0623069549
 C    0.8325706232   -0.4792565615    1.1416113572
 C   -1.3322272215   -0.5182395951    0.0775523780
 C   -1.8430134327   -1.3289813616   -0.9179231852
 C   -1.2026717453   -1.8189408074   -2.1711979372
 N   -3.1311401780   -1.6438392382   -0.5562654677
 C   -3.4508071286   -1.0534818076    0.6436383478
 C   -2.3548807975   -0.3453558209    1.0668659013
 H    1.0573139325    1.8028418397   -0.1995240666
 H   -0.5818459965    1.7992623156   -0.8826290266
 H   -0.3502289470    1.9841207633    0.8714339145
 H    0.5223404990   -0.1255715768    2.1422338630
 H    0.8123730680   -1.5719775290    1.1480796869
 H    1.8660598044   -0.1526693319    0.9783308431
 H   -1.1448523704   -2.9141489651   -2.2115589437
 H   -1.7352097652   -1.4864148833   -3.0713538305
 H   -0.1857272807   -1.4226534638   -2.2113982201
 H   -3.7493484564   -2.2243733789   -1.0952357674
 H   -4.4245687221   -1.1896197429    1.0862079752
 H   -2.2869724742    0.2308239514    1.9769286595