16

 C   -0.0509804943    1.5496367559    0.0064859626
 C    0.0604117166    0.0277944596    0.0064215935
 C    0.9043456280   -0.5383681876   -1.1631715436
 N    1.3847853384   -1.7985383287   -0.6276452532
 C    1.3844765564   -1.8782724553    0.7417959560
 O    1.8319310239   -2.7902970493    1.4006675861
 C    0.7316605749   -0.5871251320    1.2478136645
 H    0.9352502018    2.0162776300    0.1096092911
 H   -0.4995898897    1.9161541736   -0.9233752175
 H   -0.6737104001    1.8994366873    0.8357519666
 H   -0.9442948900   -0.4029993279   -0.0815679422
 H    0.3081893094   -0.6862904156   -2.0696133084
 H    1.7322938394    0.1425579957   -1.4153178583
 H    1.8970301832   -2.4758863244   -1.1701911046
 H    1.5289517023    0.0601760362    1.6360193509
 H    0.0498878599   -0.7953136374    2.0742852367