18

 O   -0.0913764086    1.3169643734    0.0178584285
 N    0.0132334367   -0.0818639257    0.1399239639
 C   -1.1229032028   -0.6306720450    0.0426467383
 C   -2.5354933920   -0.1708715833   -0.2555868087
 C   -2.8863247392   -1.6633089424   -0.5489470074
 C   -1.4984919101   -2.1030624257    0.0286565137
 C   -0.6582443131   -3.0785196689   -0.8105348578
 C    0.5992177247   -3.4624225964   -0.1815658222
 C    1.6228989934   -3.7925633654    0.3540961014
 H    0.8280791097    1.5937705405    0.0936971371
 H   -3.0450055012    0.2408342907    0.6214116325
 H   -2.6385524911    0.5432496698   -1.0760389880
 H   -3.7654093691   -2.0678082569   -0.0449698322
 H   -2.9683307648   -1.8682655927   -1.6196637896
 H   -1.5982383055   -2.4957049151    1.0467024316
 H   -1.2595400513   -3.9785698708   -0.9970889229
 H   -0.4607686875   -2.6287756632   -1.7917679261
 H    2.5346945719   -4.0714741527    0.8207062779