21

 C   -0.1014105638    1.5525417910    0.0640927972
 C   -0.0257489301    0.0370752545    0.2208222806
 N   -1.2782679272   -0.5831720219   -0.2089354396
 C   -1.3372668998   -2.0293646025   -0.1130511690
 C   -1.0713443230   -2.5416998956    1.2577834579
 N   -0.9127591733   -2.9010908656    2.3461066669
 C   -2.7424055183   -2.5098824211   -0.5623880194
 C   -2.8600072940   -4.0268073946   -0.6682063525
 O   -3.7347183797   -1.9479914702    0.2851323799
 H    0.8458211923    2.0169455211    0.3524349829
 H   -0.3253383505    1.8250342975   -0.9710873540
 H   -0.8857807564    1.9743400896    0.7027512343
 H    0.7780978874   -0.3622949465   -0.4114747751
 H    0.2378898821   -0.2179979159    1.2614588559
 H   -2.0685740108   -0.1997235228    0.3022907063
 H   -0.5810008990   -2.4606046629   -0.7810822955
 H   -2.9100230541   -2.0465743825   -1.5394230292
 H   -2.6610020374   -4.5083434744    0.2957670168
 H   -3.8707404822   -4.2950057726   -0.9854374803
 H   -2.1499709379   -4.4276395230   -1.3987107651
 H   -3.6940312843   -2.4065498214    1.1338754709