15

 O   -0.0089180623   -0.0055805700    0.0857583232
 C    0.0137533744    1.1786386356   -0.0395987331
 O   -1.1296559792    1.9426472647   -0.1101667573
 C   -0.7974659558    3.2677342955   -0.4887350366
 C    0.0000933829    4.1157598233    0.4718812554
 C    0.5020565285    3.4503339418    1.7483560095
 O    1.4620775544    2.4666410337    1.3414311991
 C    1.2196624984    2.1485775544   -0.0287835152
 C    0.6797459160    3.4117683802   -0.6876215608
 H   -1.5414132316    3.7043280121   -1.1420633061
 H   -0.1566544425    5.1876443138    0.4561991337
 H    1.0069695763    4.1635194505    2.4060444402
 H   -0.3145456277    2.9736984301    2.3065157234
 H    2.1185620723    1.7041661153   -0.4518203085
 H    1.1577802360    3.8950844891   -1.5277722972