17

 C   -0.0868027422    1.5403762463   -0.1744589757
 N   -0.1465004914    0.1089025308    0.0287838579
 C    0.4044616568   -0.4716775758    1.0003777737
 O    0.3021075374   -1.8551752197    1.1213793077
 C   -0.0436949519   -2.6152474529    0.0329947907
 O   -0.2235047213   -3.7874531933    0.1460776975
 C    1.1825745691    0.0741607502    2.1425508371
 C    0.9994283522   -0.5116923038    3.5066948983
 N    2.2470776503   -0.7254811478    2.7782778389
 H    0.6028899799    2.0865248004    0.4802417511
 H    0.2008580251    1.7352150959   -1.2127131441
 H   -1.0901748839    1.9602443771   -0.0400350860
 H   -0.1112804449   -2.0227438391   -0.8867838602
 H    1.4144515447    1.1293438707    2.0686445577
 H    1.0694800660    0.1497343197    4.3651607842
 H    0.3057359610   -1.3401520046    3.6066291500
 H    2.2387779329   -1.6605647543    2.3766139314