19

 C   -0.0400720373    1.6252966634   -0.0770483594
 C    0.0261539269    0.0944918470    0.0125215791
 C    0.6854134793   -0.5199970614   -1.2220569943
 O    2.1095415147   -0.3088698042   -1.2524532312
 C    2.8479197984   -0.8290999494   -0.2305835509
 O    4.0080813198   -1.0841048421   -0.4034240778
 C    2.1490589151   -0.9838366912    1.0821928750
 C    1.8987533884    0.2891937271    1.8753031644
 C    0.7435125612   -0.4437647946    1.2595466697
 H    0.9453525701    2.0583594937   -0.2716788318
 H   -0.6992970607    1.9305063684   -0.8961659816
 H   -0.4256873220    2.0593833202    0.8496608600
 H   -1.0017667462   -0.2861899168    0.0377760005
 H    0.4888737849   -1.5984192390   -1.2643139733
 H    0.3154039217   -0.0696835038   -2.1468010234
 H    2.4719864011   -1.8536244853    1.6408727341
 H    2.0358288677    0.2301776743    2.9488263005
 H    2.2194971945    1.2268819438    1.4369296460
 H    0.1159064824   -0.9962688302    1.9510959745