17

 C   -0.0605461385    1.4713206773    0.0063793359
 C    0.0322203927   -0.0252006688   -0.0128839363
 C    0.9105070330   -0.8901940724   -0.9197549025
 C    0.0391069695   -2.0882938220   -0.4559364089
 C    0.3844139367   -2.2402643740    1.0506897671
 C   -0.2874955683   -0.8809992228    1.2286079475
 C   -1.0830344773   -1.0465911130   -0.0490572204
 H    0.8622493905    1.9240029879    0.3889949369
 H   -0.2355063658    1.8733920101   -0.9983133036
 H   -0.8831098306    1.8095485132    0.6461377000
 H    0.7403363848   -0.6466941101   -1.9733922768
 H    1.9895806599   -0.9435926101   -0.7256447240
 H   -0.0924966374   -2.9619502883   -1.0909915622
 H   -0.2004001299   -3.0354992855    1.5223358930
 H    1.4422265372   -2.3545098781    1.3179308920
 H   -0.6094895028   -0.4078009766    2.1483558746
 H   -2.1396128436   -0.9622058771   -0.2602811122