18

 C    0.0083276988    1.5006431856   -0.0337392989
 C    1.5709748468    1.4573788358   -0.1224235421
 C    1.5228438640   -0.0679177659    0.0172049867
 C   -0.0122609196   -0.0254141471    0.1043367381
 C    0.6739309182   -0.6748231918   -1.0661841820
 C    0.6028067191   -0.2304396928   -2.5360040363
 O    0.5271141880   -1.4838413045   -3.2584862544
 C    0.5543628647   -2.4492919701   -2.3073559918
 N    0.6327381291   -2.1254527428   -1.0842741076
 H   -0.3352160859    2.0081463008    0.8698455455
 H   -0.5322848516    1.9235995565   -0.8874179810
 H    2.0341038690    1.8525444595   -1.0330697881
 H    2.0419385522    1.9423316272    0.7349334348
 H    2.2212649673   -0.6874538016    0.5656309521
 H   -0.6772974324   -0.6071940607    0.7301536851
 H   -0.2873244991    0.3579918381   -2.7797484157
 H    1.4907458021    0.3087873525   -2.8806691529
 H    0.5045604694   -3.4615191988   -2.6911559015