14

 N    0.0014790755    1.3845031120    0.1552493519
 C    0.0603153630    0.0074724974    0.0402032673
 N   -1.0560332599   -0.7015886293    0.0104724980
 O   -0.6623416599   -2.0898878909   -0.0167216782
 C    0.6656712177   -2.0740292155   -0.0239722878
 C    1.2251574442   -0.8204673918    0.0113801706
 C    2.6468118349   -1.0085693487    0.0148447216
 C    2.8546467872   -2.3642946126   -0.0208229906
 N    1.6221780664   -3.0328677501   -0.0435186098
 H    0.7192654592    1.8716217256   -0.3618502671
 H   -0.9198486290    1.7557111075   -0.0366404623
 H    3.4226806674   -0.2601501589    0.0442703474
 H    3.7710107360   -2.9316102221   -0.0320664665
 H    1.4873433275   -4.0279516626   -0.0680875346