16

 C   -0.1332239536    1.5191322342    0.0423559421
 C    0.1194036456    0.0506384064    0.0100673616
 O   -0.7902884081   -0.8398962362    0.6856663010
 C    0.6021188528   -0.9180157491    0.9889892421
 C    1.3204257637   -1.7590006365   -0.1273828585
 C    0.3461031202   -2.1687681962   -1.2160427747
 C    0.7929195061   -0.7434634762   -1.1619840325
 C    2.6361556664   -2.2750317103    0.0026180608
 N    3.7113725884   -2.6857331245    0.1359781303
 H    0.7735624662    2.0703416380   -0.2262557420
 H   -0.9191352585    1.7931125369   -0.6701168259
 H   -0.4496742841    1.8270841312    1.0418377795
 H    0.9178059894   -0.8355066139    2.0218635324
 H    0.7874737701   -2.7627910032   -2.0086335662
 H   -0.6622439450   -2.4352076547   -0.9278192928
 H    1.3786521804   -0.2745403361   -1.9410567471