18

 C   -0.4009957604    1.6222540300   -0.2825311590
 C    0.1057770464    0.2136874469   -0.0345582264
 C    0.8742278530   -0.5247637165   -1.2001267520
 C    2.0233565449   -0.6162191915   -0.2114327866
 C    3.1135885569   -1.2125786763    0.3830832576
 O    4.0801669445   -2.0301277943   -0.1332647755
 C    3.0905710383   -0.8003104593    1.7519260478
 C    1.9634141365   -0.0200510003    1.9659210205
 N    1.3633100220    0.1152947532    0.7484682066
 H    0.3869003308    2.2472951216   -0.7131535531
 H   -1.2487165886    1.6017512466   -0.9754909193
 H   -0.7387957203    2.0882004900    0.6488302657
 H   -0.6814760106   -0.4161141999    0.3939927010
 H    0.4191911733   -1.4719257326   -1.5041213986
 H    1.0369269987    0.0913515217   -2.0907417610
 H    3.9193287982   -2.1380492180   -1.0749164791
 H    3.8536697349   -1.0299268770    2.4803728481
 H    1.6172957614    0.4810032954    2.8557291933