13

 C    0.0772989346    1.4554232246    0.0089134872
 C    0.0212896540    0.0048272767    0.0018741917
 C   -0.0487187599   -1.2002825951   -0.0037543729
 C   -0.1192013823   -2.6413833871   -0.0105911944
 O   -1.1552404335   -3.2605560498   -0.0035798441
 C    1.2602142890   -3.3265992008   -0.0278173462
 C    1.1870300336   -4.7822047219   -0.0346920507
 N    1.1586203385   -5.9361640449   -0.0404334811
 H    1.1100325509    1.8178350255    0.0029379814
 H   -0.4341898047    1.8641447603   -0.8691093196
 H   -0.4208613716    1.8551200645    0.8986693077
 H    1.8134602839   -2.9751666397   -0.9070609541
 H    1.8307880376   -2.9843078823    0.8439267149