25

 C   -0.3232555131    1.5740985519   -0.2084581916
 C   -0.0209540115    0.0743989094   -0.0425835636
 C   -1.2999187044   -0.6993998839    0.3064048668
 C    0.7064187274   -0.4746671896   -1.2530262173
 C    0.0273824318   -0.9542451275   -2.5102501596
 C    0.8938817504   -1.9164679251   -1.7426060633
 C    2.3673404718   -1.6551484388   -2.0608093906
 C    2.2004283995   -0.1852970749   -1.5431179370
 C    2.5935431172    0.9626948232   -2.4672736722
 H    0.5889887281    2.1524468506   -0.3829118860
 H   -0.9930572626    1.7426341497   -1.0591975418
 H   -0.8078059041    1.9780401514    0.6870536993
 H    0.6654783122   -0.0316119938    0.8112694816
 H   -2.0724858619   -0.5672532223   -0.4588311536
 H   -1.1073054393   -1.7716092317    0.4129197493
 H   -1.7160926396   -0.3389268053    1.2526538031
 H   -1.0403460018   -1.1277263618   -2.4283622407
 H    0.3359994944   -0.6007903880   -3.4918475800
 H    0.4905403992   -2.8337830777   -1.3291711198
 H    3.0642287722   -2.2387058302   -1.4547405207
 H    2.6487344067   -1.7655892753   -3.1147287821
 H    2.7309235172   -0.0758446276   -0.5903045253
 H    2.0677839846    0.9104327660   -3.4262933571
 H    2.3708045618    1.9369912935   -2.0191275882
 H    3.6683314136    0.9351823978   -2.6803724096