16

 O   -0.4496923074    0.6494660005    0.7460125930
 C    0.2053142523    0.9774470782   -0.2110321806
 C    1.3755217888    1.8966835516   -0.1329780971
 C    1.9277616692    2.3257549752    1.2217730316
 C    2.6939926267    3.6386731802    0.9584317782
 C    2.1397201842    4.1799537716   -0.3690724024
 O    2.1532639192    5.3266131948   -0.7342253543
 C    1.5051691443    3.0387277672   -1.1213758195
 N    2.2978144255    1.8140105927   -1.2649669672
 H   -0.0149253205    0.6179660670   -1.2386561220
 H    1.0860488831    2.4837207210    1.9007773715
 H    2.5512067900    1.5424003261    1.6631363786
 H    2.5558505089    4.3893001041    1.7384890401
 H    3.7758589206    3.4870814960    0.8660743560
 H    0.7988213409    3.2533144643   -1.9157822743
 H    3.2619659943    1.9440841496   -0.9652149416