18

 C    0.0750790307    1.4491990785    0.2877181441
 C   -0.0181453704   -0.0712665235    0.1415035599
 C    0.6713631685   -0.5805372441   -1.1660127049
 O    1.7812562203   -1.3858369679   -0.6995716506
 C    1.6781909294   -1.3873329167    0.6479149163
 N    0.7572225280   -0.7324364931    1.2207251241
 C   -1.4503202702   -0.5873443632    0.2072869337
 C   -2.5782507941    0.1386026256    0.7956198113
 O   -2.4114512586    0.0654917238   -0.6257473922
 H    1.0978774652    1.7832206601    0.0928628658
 H   -0.5977855127    1.9406469574   -0.4210580874
 H   -0.1859662227    1.7532947076    1.3039487445
 H    0.0228404328   -1.2134527704   -1.7780817125
 H    1.0702467815    0.2265772641   -1.7849547033
 H    2.4363932944   -1.9770867236    1.1519852620
 H   -1.5116312482   -1.6772474291    0.1855126924
 H   -3.4213305103   -0.4236393332    1.1937367057
 H   -2.4312626536    1.1236125177    1.2306540211