15

 C    0.0500309855    1.5122492193   -0.0183132972
 O    1.2237971160    0.7120263297    0.0575279013
 C   -0.0437084856    0.0476129056    0.0679104878
 C   -0.4324707528   -0.6068544687    1.3439343739
 N   -0.4343308900   -0.0745022136    2.4953890482
 C   -0.8487292172   -1.1246025071    3.4367455096
 C   -1.1538840403   -2.3560307826    2.5423176716
 O   -0.8079453238   -1.9083215679    1.2107698527
 H   -0.1736702091    2.0932251111    0.8731166566
 H   -0.1302306428    1.9971336577   -0.9766955536
 H   -0.2628219441   -0.5369473300   -0.8224281805
 H   -0.0446689439   -1.3169969598    4.1553364317
 H   -1.7219116693   -0.7938349739    4.0081637648
 H   -0.5453631643   -3.2332916393    2.7755021653
 H   -2.2087833984   -2.6454061805    2.5421767676