22

 C    0.2484077104    1.4799036474   -0.0228327388
 N    0.0221892124    0.0435975894   -0.0213174239
 C   -0.0430083747   -0.6765540182    1.2384784825
 C   -1.4643086873   -1.0164796103    1.7431911978
 C   -1.3557862819   -1.6817807328    3.1229960307
 C   -2.3823137102    0.2092664662    1.7937272744
 O   -1.9601993777   -1.9600844112    0.7883072537
 C   -0.0354595197   -0.6298780688   -1.2110946385
 O    0.0222734466   -0.1159538045   -2.3096399140
 H    1.1800799925    1.7271745983    0.5011140979
 H    0.3235929789    1.7976848196   -1.0630057661
 H   -0.5720124365    2.0220690554    0.4588124090
 H    0.4932359315   -1.6269929310    1.1380994080
 H    0.4803807060   -0.0874052734    1.9978391203
 H   -0.9491591180   -0.9938324187    3.8718104060
 H   -2.3444101761   -2.0033051629    3.4678733259
 H   -0.7126277202   -2.5652656389    3.0738237309
 H   -2.4982696450    0.6423882944    0.7976326157
 H   -3.3755134446   -0.0784512032    2.1587781182
 H   -1.9952335413    0.9755556984    2.4728595934
 H   -2.8996953586   -2.0918691301    0.9520473170
 H   -0.1437252465   -1.7173435453   -1.0580022901