12

 N    0.0261109362   -1.1843091034   -0.1253464404
 C    0.0164285941   -0.0311160867   -0.0479522771
 C   -0.0016641383    1.4198093983    0.0473561256
 C   -0.2428501432    2.0780681822    1.4646719529
 C    1.1125948005    2.7783830439    1.3091884065
 O    2.0973414407    1.7508740721    1.1570789815
 C    1.3657893769    2.1459265209    0.0052664795
 H   -0.6954038162    1.8272739921   -0.6925113822
 H   -1.1014818594    2.7513765990    1.4542522629
 H   -0.3132487860    1.3900345345    2.3080079662
 H    1.4411504217    3.7299264489    1.7077517099
 H    1.9192360829    2.4655135681   -0.8690849153