21

 C   -0.0209443630    1.5908813135   -0.1583725313
 C    1.4832381207    1.5992436152    0.2305818709
 C    1.3756020144    0.1167461483    0.6965801464
 C   -0.0271176423    0.0382571049   -0.0393686937
 C    0.3045616643   -0.6849554730   -1.3349543369
 C    1.5032890994   -1.2554578815   -1.2481901731
 C    2.7637277765   -1.5954208978   -2.0116986842
 C    3.5163859466   -0.8013809089   -0.8772572901
 C    2.2409929029   -0.9649939695    0.0321928537
 H   -0.6524186898    2.0608745395    0.6011427529
 H   -0.2824939981    2.0121932496   -1.1333863225
 H    2.1349484269    1.7233473199   -0.6374490694
 H    1.7904861915    2.3217405010    0.9902036757
 H    1.3229427106    0.0300909891    1.7839966425
 H   -0.8800594956   -0.3883150117    0.5005794596
 H   -0.3243675977   -0.6157482395   -2.2167372437
 H    3.0166016679   -2.6608556214   -1.9825466903
 H    2.8521093512   -1.2404918769   -3.0413921368
 H    4.4468228657   -1.2372221917   -0.5059103059
 H    3.6945704750    0.2359467150   -1.1685387511
 H    2.3667073628   -1.8423417442    0.6793898972