19

 O   -0.8607551894    0.9153948560   -0.6219281970
 C    0.2636395190    0.6308747718   -0.3077532892
 C    1.3544901864    1.6491689803    0.0295707689
 O    2.5725381550    0.9655681345   -0.1654702054
 C    3.7190151635    1.5606880322    0.4177758790
 C    4.2932108111    2.7025049032   -0.4183440327
 C    3.4719859394    3.9995715159   -0.4065434222
 C    2.0501933332    3.9169724541   -0.9065166085
 C    1.1590910254    2.9447579470   -0.7199799053
 H    0.6129293535   -0.4191068816   -0.2103188567
 H    1.2192696349    1.8480178302    1.1150882950
 H    3.4880320993    1.9040959465    1.4407371664
 H    4.4560822959    0.7549757035    0.4977050050
 H    5.3007383749    2.9244093831   -0.0441526894
 H    4.4051628387    2.3425177904   -1.4474109053
 H    3.4562581427    4.4004983073    0.6196617174
 H    4.0062064645    4.7514350400   -0.9979650186
 H    1.7078282219    4.7928676197   -1.4545863303
 H    0.1492192799    3.0666811158   -1.1027615311