19

 C    0.3880518187    0.9158398503    0.6326796865
 N   -0.1340884766    0.2078563703   -0.5432381335
 C   -1.3545607758   -0.4683060698   -0.3536322362
 C   -2.6693900033   -0.1185261828   -0.5294125991
 C   -3.4911233915   -1.2551480250   -0.2100640858
 C   -4.9867222467   -1.3371468744   -0.2560767839
 C   -2.6186640979   -2.2491469684    0.1648090894
 O   -2.7937101620   -3.5362225164    0.5728053848
 N   -1.3360334922   -1.7839277012    0.0847232315
 H    1.3405683615    1.3887166866    0.3740827605
 H   -0.2952548363    1.6844714776    1.0258853706
 H    0.5773919933    0.1959588979    1.4343201167
 H   -0.2110819130    0.8443863693   -1.3265336514
 H   -3.0249311178    0.8511848362   -0.8466806836
 H   -5.3800645418   -1.0879306066   -1.2489876871
 H   -5.3495456999   -2.3459827659   -0.0220771569
 H   -5.4653521468   -0.6565158403    0.4591870566
 H   -3.7390165949   -3.7042572852    0.6327633703
 H   -0.5072262269   -2.3417007022    0.1971042204