21

 C   -0.0981489498    1.5737658215   -0.0564840689
 C    0.0147296649    0.0496457304    0.0169016346
 O   -1.3085080887   -0.5257590058   -0.0004445370
 C    0.7780203511   -0.5793569439   -1.1724980013
 C    1.5589445345   -1.7774451930   -0.5854213111
 C    1.6185684594   -1.4564344170    0.8928659924
 C    2.4848787084   -2.2418420030    1.8213459511
 O    2.3103498207   -1.7873250693    3.1509446154
 C    0.7986834266   -0.4553591541    1.2114455594
 H    0.8895336137    2.0457746822   -0.0659283890
 H   -0.6408722596    1.8713695909   -0.9590303065
 H   -0.6464211204    1.9623376185    0.8099050320
 H   -1.7162100950   -0.3410632233    0.8524745989
 H    0.0820821840   -0.8602034471   -1.9658550047
 H    1.4789236269    0.1538973036   -1.5821257576
 H    1.0350750297   -2.7288401316   -0.7487008746
 H    2.5526490714   -1.8911935357   -1.0356448622
 H    2.2332231955   -3.3135882472    1.7246588628
 H    3.5373933549   -2.1470637970    1.4984398427
 H    2.8919987223   -2.2984700007    3.7203574647
 H    0.6527770295   -0.0720582783    2.2149143389