17

 C   -0.0374196557    1.4459443097   -0.0161133461
 C   -0.0043515740   -0.0083068212   -0.0081749791
 C    0.0228039074   -1.2152488143   -0.0018863995
 C    0.0674719325   -2.6262400358    0.0153262281
 C    1.0148616316   -3.6541919812    0.7235672703
 C    0.7991603007   -4.6449771473   -0.4081551578
 C   -0.1219285780   -4.6593607056    0.8030777471
 C   -1.0732570715   -3.6570166046    0.0868249076
 C   -0.1567087657   -3.6427033057   -1.1184368206
 H    0.7680965717    1.8596458843    0.6013250795
 H    0.0865230117    1.8470292281   -1.0287204821
 H   -0.9845612797    1.8303733009    0.3797928194
 H    1.8674575803   -3.5137759222    1.3735958913
 H    1.4598417109   -5.4125821785   -0.7865811084
 H   -0.3012071810   -5.4400826910    1.5292018276
 H   -2.1353504735   -3.4659520442    0.1572597392
 H   -0.3748783275   -3.4384666715   -2.1577628665