17

 C   -0.1470424868    1.5760313385    0.0052140655
 C   -0.0126209449    0.0542438668    0.0103669573
 C   -1.3751708080   -0.5960585461   -0.2195698341
 C    1.2017322366   -0.6373646394   -0.7046048735
 C    2.1800665243   -0.1018753433    0.3671920362
 C    0.9132159841   -0.6568094717    1.0598326469
 O    0.9977827954   -1.8283408326    0.1548324797
 H    0.7896927807    2.1119447505    0.1634957577
 H   -0.5636897172    1.9120130349   -0.9510569809
 H   -0.8464871935    1.8929235356    0.7870690066
 H   -1.7970059180   -0.2727737502   -1.1782311646
 H   -1.2983293599   -1.6828237231   -0.2187435399
 H   -2.0815914864   -0.2915577840    0.5612885264
 H    1.3681481075   -0.8137835855   -1.7689786964
 H    3.0643689290   -0.7240238808    0.5049290542
 H    2.4077474200    0.9625553056    0.4161678069
 H    0.7325860370   -0.8566098151    2.1177379620