15

 O   -0.1727103025   -0.0525787763   -0.0297207811
 C   -0.0150609220    1.1382806775    0.0696699457
 N   -1.0478640074    2.0774888663    0.2455242251
 C   -0.5712931292    3.3728630241    0.4684417888
 C    0.7397989809    3.4264703194    0.1782139388
 C    2.0025167573    3.7513218758    0.9518223848
 N    1.9370170401    2.8246145416    2.1281069534
 C    2.4209664220    2.3212139165    0.8244643227
 C    1.2238030675    2.0238514790   -0.1234641422
 H   -2.0098428460    1.7882927896    0.3278427715
 H   -1.2210795358    4.1073894332    0.9259671441
 H    2.6019457392    4.6513474656    0.9780859463
 H    2.7711076959    2.9920004839    2.6946101306
 H    3.4110467753    1.8948778079    0.7242098489
 H    1.6031403946    1.8684552358   -1.1395954374