18

 C    0.0794336108    1.3773966432    0.0590639727
 O   -0.0853540236   -0.0142979125   -0.0973937789
 C    0.6344429831   -0.5691370835   -1.1738780110
 C    2.0974899620   -0.9059899013   -0.7772618449
 C    2.0266422667   -2.3533525783   -0.3595829790
 C    0.8899099078   -2.9320451479   -0.7329613038
 C    0.0040791007   -1.9614064129   -1.4974258602
 C   -1.4216444481   -2.0555709820   -1.1831395092
 N   -2.5509825801   -2.1778359923   -0.9730753046
 H    1.1165389672    1.6538860193    0.3008378562
 H   -0.2220131058    1.9224796108   -0.8484091553
 H   -0.5645856405    1.6819996845    0.8865493399
 H    0.5806368718    0.0990786230   -2.0442921199
 H    2.7841972050   -0.7709233338   -1.6239000278
 H    2.4462620245   -0.2427022387    0.0210754099
 H    2.8344236800   -2.8525231658    0.1628759210
 H    0.6033810359   -3.9635967743   -0.5742187020
 H    0.0996457926   -2.1521145673   -2.5763273431