14

 N    0.1462677137    1.4723236368   -0.0595359111
 C    0.0007680855    0.0697297526   -0.0210762614
 C   -0.2527892172   -0.8208415870   -1.2147118600
 C   -1.1359991589   -0.9500830562   -0.0101631507
 O   -0.5019560149   -1.7561622611    0.9898394574
 C    0.5844654163   -0.8032507837    1.1080018518
 C    1.9073329366   -1.3961466543    0.9080087070
 N    2.9562006821   -1.8474683302    0.7292198083
 H    0.1433767396    1.8491292957   -0.9967585528
 H   -0.5240108047    1.9712470838    0.5122006265
 H   -0.7045452024   -0.2996175977   -2.0543776328
 H    0.4319558591   -1.6213165981   -1.4816229593
 H   -2.2160177013   -0.8750365822    0.0097145651
 H    0.5476788464   -0.3011648584    2.0817045720