18

 C   -0.0652079202    1.4996993412   -0.0000230142
 C   -0.0086404888    0.0086982596   -0.0227289718
 C   -0.0252071938   -0.8225057222   -1.0695339593
 C    0.0288261382   -2.2097824359   -0.6037370779
 N    0.0291856461   -3.2600123299   -1.3098013134
 O    0.0738396501   -2.1843510502    0.7764119715
 C    0.0783007038   -0.8205664180    1.2351025710
 C    1.3461246273   -0.6108195634    2.0701519654
 O    1.3918615573   -1.4994647046    3.1634847105
 H    0.8432349966    1.9273826267    0.4412556406
 H   -0.1773394326    1.9077645129   -1.0069044201
 H   -0.9057480316    1.8519439430    0.6102198777
 H   -0.0780474653   -0.5692741239   -2.1185436582
 H    0.0684418552   -4.0918606182   -0.7192520740
 H   -0.7965228699   -0.6807277195    1.8859213063
 H    2.2227166028   -0.7188399231    1.4117613454
 H    1.3540637384    0.4029349022    2.4841474515
 H    1.3030786062   -2.3873877165    2.7976671691