19

 C   -0.1678910724    1.5196552459    0.1013614330
 C    0.0082294452    0.0259763389   -0.0096689415
 C   -0.0428573396   -0.5895710968   -1.2057705816
 C    0.0731045845   -2.0115135377   -1.5055153606
 C   -0.2663417086   -3.0349895498   -0.7135829017
 C   -0.8772023943   -2.9157718869    0.6581575641
 C   -0.1091365416   -2.0291923241    1.6334130745
 O    1.2476382390   -1.7183180668    1.3557136672
 C    0.2854783927   -0.6475402904    1.2915162520
 H    0.7303201355    1.9973856626    0.5135748183
 H   -0.3814750254    1.9722940189   -0.8695401145
 H   -0.9925508314    1.7725652051    0.7808823097
 H   -0.1621832276    0.0521361953   -2.0775938490
 H    0.4447440132   -2.2433985654   -2.5017875630
 H   -0.1113407177   -4.0445783899   -1.0828971894
 H   -1.8987395885   -2.5116422643    0.5864579990
 H   -0.9762173888   -3.9133307127    1.0985173893
 H   -0.3074901156   -2.2413765302    2.6873984767
 H    0.3814644512    0.0478054484    2.1268609574