20

 C   -0.1093248304    1.5715043328    0.3573724520
 C   -0.0284330130    0.0771635609    0.0107046165
 C    0.9210478412   -0.6669454165    0.9573128405
 C   -1.4221889533   -0.5242919194   -0.0384977500
 C   -2.2131803213   -0.9460983603    1.1878520407
 C   -1.8474188699   -1.9740467625    0.1542945836
 O   -2.8185584059   -2.2316191642   -0.8519355421
 C   -2.9762199571   -1.0416110402   -1.4878717144
 N   -2.2591101107   -0.0541770021   -1.1341809980
 H    0.8792812129    2.0383149402    0.2992209004
 H   -0.7797868251    2.0914311934   -0.3311275935
 H   -0.4896358689    1.7143579754    1.3753333036
 H    0.3741075360   -0.0112342454   -1.0072990351
 H    0.5968249526   -0.5883596684    2.0010143536
 H    1.0025411980   -1.7291164372    0.7045055009
 H    1.9245813281   -0.2349837623    0.8982041913
 H   -1.6766384265   -1.0200005231    2.1271936251
 H   -3.2463153662   -0.6251085472    1.2705736124
 H   -1.2261366471   -2.8338108860    0.3671597024
 H   -3.7227760535   -1.0413270781   -2.2727281700