19

 C   -0.2162473237    1.5053610380    0.1204740000
 C    0.1063443948    0.0123842806   -0.0158442082
 C    0.8867531043   -0.5380119309    1.1538285384
 C    2.2759639338    0.0206923919    1.4593814163
 O    2.7869047897   -0.8302927633    2.4933284037
 C    1.9854312019   -1.9861477872    2.5151045863
 C    0.4899637369   -1.7992193983    2.7066534281
 O    0.1433242067   -0.4464358877    2.4268926157
 C    1.0632226198   -2.0701240661    1.3367624706
 H    0.6900193387    2.1191982132    0.1093786192
 H   -0.8527724016    1.8388566913   -0.7038303945
 H   -0.7436097429    1.6975217226    1.0588885468
 H   -0.8237993557   -0.5603089993   -0.0990908028
 H    0.6778419451   -0.1760385811   -0.9340225643
 H    2.9320372459   -0.0105292309    0.5752186501
 H    2.2308101047    1.0434439786    1.8430742246
 H    2.4820045259   -2.8580118322    2.9235812500
 H   -0.1544221712   -2.3718002610    3.3644909134
 H    0.9466661670   -2.8549519281    0.6013683967