18

 C   -0.3064860757    1.5799884687    0.2951023443
 C   -0.0535515453    0.1182139905   -0.0463977830
 C    1.0522358375   -0.5029315761    0.8057336706
 O   -1.3142581752   -0.5531060096    0.1618240991
 C   -1.4525475437   -1.8248703072   -0.4049665479
 C   -2.8298544806   -2.3496270583    0.0639754190
 O   -3.0834601950   -3.5110082288    0.1945952177
 C   -1.4243133696   -1.7947676989   -1.8835920689
 N   -1.4134357865   -1.7514824916   -3.0385555834
 H    0.5986482618    2.1702437016    0.1272018224
 H   -1.1083011988    1.9853921316   -0.3266659326
 H   -0.5966137627    1.6823100211    1.3454675488
 H    0.2081345581    0.0341236513   -1.1109003960
 H    1.2374347846   -1.5495530724    0.5460594479
 H    1.9901191146    0.0393908189    0.6529598642
 H    0.7903938989   -0.4501467905    1.8670502971
 H   -0.6952895511   -2.5443144773   -0.0640987873
 H   -3.5451154014   -1.5295354129    0.2762534980