17

 O    0.0702183355    1.3953259567    0.0959240666
 C    0.0240209995    0.0165107812   -0.0377748042
 C    0.5131953989   -0.8136806196   -1.2307761542
 C   -0.1971749404   -1.9484079140   -0.4503286805
 O    0.6348954850   -2.0979442891    0.7097888444
 C    0.3699143018   -0.8044525937    1.2730215225
 C   -1.1380612707   -0.8900198616    1.6194834506
 C   -1.2648631445   -0.9099148616    0.0913263433
 O   -2.4310582265   -0.8154378695   -0.6517842431
 H   -0.2914792634    1.7890128330   -0.7053643324
 H   -0.0324501577   -0.5456011063   -2.1406502148
 H    1.5813183211   -0.9333400360   -1.4247602352
 H   -0.4704094915   -2.9044657590   -0.8903384277
 H    1.1354533565   -0.4959909434    1.9809148957
 H   -1.4660396219   -1.7439671519    2.2161747476
 H   -1.5132273394    0.0531387958    2.0283474145
 H   -2.9390820421   -0.0659493410   -0.3230709531