17

 N   -0.0634750951    1.2265579532   -0.3145533408
 C   -0.0659622089    0.0068849507   -0.0142306649
 O    0.9525106775   -0.8127968476    0.4325315155
 C    0.0718389900   -1.9854882309    0.4626466989
 C   -1.0792981306   -1.0969995748    0.0071328894
 C   -2.5001191142   -1.1228971119    0.4023872614
 C   -3.2349315574    0.1259708520   -0.0778475476
 C   -2.7144008968   -0.2361005040   -1.4946935322
 N   -2.0625493213   -1.5110735254   -0.9975674384
 H    0.8644928374    1.6370383760   -0.1964680599
 H    0.3920646540   -2.7398646507   -0.2591332614
 H    0.0124691011   -2.4033289933    1.4704690249
 H   -2.8671600772   -1.8592932409    1.1117740480
 H   -4.3188925985    0.0418204809    0.0138615955
 H   -2.9026888979    1.0743609322    0.3485598025
 H   -3.5010742624   -0.4943826489   -2.2049391614
 H   -2.0118642596    0.4628478434   -1.9513114695