15

 C    0.0101156207    1.4527755781    0.0345390140
 N    0.0020626661    0.0016439048   -0.0060746745
 C   -0.0057176108   -0.7792808276   -1.1367260403
 C   -0.0100510354   -2.0913621006   -0.6901826423
 N   -0.0815324825   -3.2645586199   -1.4320375333
 N   -0.0064936615   -2.1287708594    0.6690077068
 C   -0.0029636508   -0.8575561217    1.0555152567
 C    0.0022409771   -0.3993397228    2.3961198361
 N    0.0090026217    0.0150912009    3.4784977819
 H    0.9010029026    1.8434754989   -0.4654410016
 H   -0.8807789274    1.8533085556   -0.4575069539
 H    0.0164570964    1.7774214391    1.0755382448
 H   -0.0154306656   -0.3464050549   -2.1228919310
 H    0.4269034175   -3.2392965083   -2.3045608241
 H    0.1834029520   -4.0680856022   -0.8779659393