17

 C   -0.6885123264    0.9841531768    0.6466718379
 N   -0.1574764897   -0.2933380635    0.2095411163
 C   -0.2519046850   -0.8030188192   -1.0610814181
 C    0.3632712352   -2.0333557735   -1.0918907397
 C    0.8400717916   -2.2972202854    0.2175187773
 C    0.5007404493   -1.2118040434    0.9959359134
 N    0.7989142689   -0.9608874209    2.3487985273
 C   -0.1222513012   -0.7845232908    3.3466026492
 O   -1.3191777378   -0.6936779430    3.1944161765
 H    0.0864273156    1.5626794743    1.1589603055
 H   -1.0149870849    1.5431564632   -0.2315380085
 H   -1.5268783894    0.8397276561    1.3316816243
 H   -0.7600893275   -0.2452157512   -1.8314479832
 H    0.4518993831   -2.6753108489   -1.9543250744
 H    1.3626865691   -3.1764101302    0.5616901368
 H    1.7580222635   -1.0829110284    2.6383004529
 H    0.3722699456   -0.7064265919    4.3354308466