15

 C    0.4496417483    1.2864935811   -0.1161001825
 N    0.2213718123   -0.1405197072    0.0290759360
 C    0.2634490848   -0.6621386793    1.1761445426
 N   -0.0067166685   -2.0524417814    1.3116102602
 C    0.8993047183   -2.7904586330    1.8255131077
 C    2.1908020570   -2.3316250165    2.3675213366
 N    2.4064928658   -1.2255434904    2.9846187146
 C    1.3769676013   -0.3038260180    3.1813712280
 N    0.4114284156    0.0128251849    2.4080082431
 H    1.4617267173    1.4588004807   -0.5027658707
 H   -0.2465993305    1.6760702331   -0.8652961348
 H    0.3354412391    1.8540186076    0.8151995717
 H    0.7115001808   -3.8663031083    1.8766863183
 H    3.0274249268   -3.0316683219    2.2992751158
 H    1.4759373317    0.2381780187    4.1221306832