21

 C   -0.8222202786    1.3347792670   -0.5980963836
 O   -0.9315348045   -0.0644598835   -0.6944003803
 C   -0.7935199438   -0.7100015953    0.5471376614
 C   -0.9455528324   -2.2288493568    0.3519241651
 C    0.0834401821   -2.7573897634   -0.6605297171
 O   -0.6787211298   -2.7579077721    1.6590398524
 C   -2.3099168238   -2.5706287765   -0.0703027528
 C   -3.4223963048   -2.9002987011   -0.3937774150
 C   -4.7713974181   -3.2780493458   -0.7898589278
 H   -0.9432400740    1.7422809405   -1.6047140028
 H   -1.6003333730    1.7607495025    0.0546872346
 H    0.1598911893    1.6422289386   -0.2048918882
 H    0.1992828893   -0.5209434552    0.9875700794
 H   -1.5529837404   -0.3655847254    1.2647670382
 H    1.0917697920   -2.5506977814   -0.2898757967
 H   -0.0298508510   -3.8379499713   -0.7866518331
 H   -0.0496164368   -2.2727817098   -1.6296747290
 H   -1.0395787716   -3.6498688404    1.6848122973
 H   -4.7796209286   -4.2348962842   -1.3233722519
 H   -5.4293746144   -3.3761265166    0.0806274905
 H   -5.2106517370   -2.5250285295   -1.4533933607