17

 O   -0.0541351635   -0.0509106065    0.1311327270
 C    0.0088470903    1.1427456492   -0.0473858482
 C    1.2827607708    1.9147093634   -0.0433230451
 C    2.5914985950    1.1801406567    0.1981572563
 C    3.5177433814    2.1362833289    0.1395974162
 C    2.7237373283    3.4035616418   -0.1346811421
 C    1.5766634224    3.0317803051   -1.1440892682
 C    0.6344869716    4.0305795489   -0.4354345514
 C    1.3967752810    3.3192886266    0.7049554472
 H   -0.9162453714    1.7327764070   -0.2282638620
 H    2.6762464768    0.1182828563    0.3714712310
 H    4.5899588846    2.0655755786    0.2549032427
 H    3.2270625659    4.3659913884   -0.2353692155
 H    1.6865842657    2.8388101701   -2.2143696178
 H    0.8674822604    5.0893504396   -0.5773945879
 H   -0.4409968227    3.8635603253   -0.5141051774
 H    1.2975765532    3.4606439406    1.7843078851