15

 N    0.0498933088    1.2996244345    0.0267526656
 C   -0.0606711595   -0.0601151306    0.0101256241
 N   -1.1442521336   -0.7395841337    0.0502822751
 C   -0.7304687381   -2.1233597929    0.0077477965
 C   -0.6601852934   -2.7954730902   -1.3946388313
 O    0.0592951241   -1.9106494180   -2.2503067814
 C    0.8212306776   -2.7542355685   -1.3906438946
 C    0.8372851425   -2.0921572799    0.0008560469
 O    1.1544678835   -0.7002685566    0.0329330477
 H    0.9087495065    1.6667391403   -0.3516770858
 H   -0.7861871505    1.7850215179   -0.2576503731
 H   -1.2100078912   -2.7504255523    0.7636888855
 H   -1.3447439193   -3.4930270106   -1.8632417701
 H    1.5582340348   -3.4040616151   -1.8484952678
 H    1.3895535880   -2.6220419444    0.7776898427