19

 O   -0.0195937919    1.4128764718   -0.0662417014
 C    0.0526053662   -0.0045105984   -0.0326473692
 C   -1.3709615092   -0.5388568585    0.0493532197
 C   -2.2672482451   -0.1568023094   -1.1487840951
 C   -3.2454431988   -1.3301772804   -1.3177368891
 O   -4.3433708326   -1.2675692721   -1.8125701981
 C   -2.6288144314   -2.5435969705   -0.6953640391
 C   -1.1962295966   -2.8401351941   -1.1235166013
 C   -1.4456540514   -2.0673286214    0.1320751984
 H    0.8732772792    1.7609312781   -0.1442157763
 H    0.5454902322   -0.4018017865   -0.9348526593
 H    0.6303448406   -0.3560430363    0.8377905965
 H   -1.8215945624   -0.1288426709    0.9613705865
 H   -2.8132406382    0.7764425865   -1.0100823147
 H   -1.6836278236   -0.0429245507   -2.0711964387
 H   -3.2742616034   -3.3641012212   -0.4096042794
 H   -0.8842126693   -3.8736363503   -1.0250968166
 H   -0.7990633721   -2.3407227487   -2.0009119435
 H   -1.2218821822   -2.5412023969    1.0814035807