15

 C   -0.0019221292    1.5374089807    0.0725437331
 C    0.0158273258    0.0406590877    0.0438221854
 C   -0.0001047600   -0.7523822659   -1.0994919325
 N    0.0261970225   -2.0742036744   -0.6894367615
 C    0.0575125533   -2.1343113825    0.6721220946
 C    0.0520041946   -0.8432532057    1.1544152706
 C   -0.0355449037   -0.3975276140   -2.4609539228
 C   -0.0662211211   -0.1016052812   -3.6301811466
 H    0.8894024496    1.9415967008    0.5663138623
 H   -0.0370433893    1.9444330219   -0.9412113305
 H   -0.8720512867    1.9194927194    0.6188027627
 H    0.0218134876   -2.8587064880   -1.3173896268
 H    0.0810411177   -3.0814763357    1.1869108381
 H    0.0718574227   -0.5591441054    2.1957951206
 H   -0.0936546539    0.1671888522   -4.6565998768