19

 C   -0.1032449614   -1.1944403419   -0.0236464252
 C   -0.0347261218    0.0007493302    0.0855063336
 C    0.0808891633    1.4482463185    0.2054096153
 C    1.4654918962    1.9770960534   -0.2247173972
 C    1.5534568719    3.4855712688   -0.0894044387
 O    1.3103876285    3.9682975812    1.2701965433
 C    2.5046573476    4.7536643187    1.2147293420
 C    3.7122290343    3.8819011260    1.1069728482
 C    2.9022408134    4.2063207078   -0.1351311464
 H   -0.1780303477   -2.2495410512   -0.1135123194
 H   -0.7002852459    1.9289931000   -0.3986042791
 H   -0.1026595002    1.7543271113    1.2418858151
 H    2.2391529370    1.4968356632    0.3814855278
 H    1.6578507135    1.7054996005   -1.2694279016
 H    0.8307532160    3.9698447605   -0.7611188790
 H    2.4716502315    5.7568421509    1.6229273061
 H    4.6667090862    4.3971806379    1.1549185400
 H    3.7023523229    2.8915454723    1.5520594401
 H    3.3229548645    4.6986497020   -1.0009641549