21

 C    0.0065971089    1.5299531990    0.0366670903
 C   -0.0216179550   -0.0074293872   -0.0010869101
 C    0.6553864137   -0.5441803307   -1.2930970473
 C    0.8069994110   -2.0712823239   -1.2710700033
 C    1.5136460284   -2.5307065365    0.0114256521
 C    0.7935014435   -1.9738194336    1.2480019546
 N    0.6098182493   -0.5167532855    1.2277064181
 C   -1.4374268995   -0.4456193161    0.0071261027
 N   -2.5416085922   -0.7857571463   -0.0192875386
 H    1.0456365854    1.8754438686    0.0147256567
 H   -0.5118958168    1.9505642416   -0.8280573623
 H   -0.4660201715    1.8964655112    0.9502521559
 H    0.0914065379   -0.2181282270   -2.1736556827
 H    1.6454974182   -0.0727397104   -1.3506084598
 H   -0.1861933163   -2.5346141778   -1.3282762417
 H    1.3577656383   -2.4005677549   -2.1582053638
 H    1.5504983083   -3.6248899270    0.0602150787
 H    2.5544443736   -2.1773166494    0.0067816126
 H   -0.2005094804   -2.4312583819    1.3313215807
 H    1.3337666779   -2.2263765238    2.1656863603
 H    1.5103124072   -0.0557586985    1.3242387470