21

 C    0.0928208911    1.4792243889    0.0976498518
 C   -0.0615765736   -0.0071790542    0.0088874810
 C   -0.1083480054   -0.7617256217   -1.1073759604
 C   -0.1714900831   -2.2529842883   -0.8230179037
 C   -0.5160484351   -2.2805654681    0.6842950987
 C    0.1614891985   -3.2049769634    1.7114476450
 C    0.2193549903   -2.3242451939    2.9966359230
 C    0.2837235180   -0.9105295410    2.4422810545
 C   -0.0980199062   -0.9029383157    1.1615798015
 H    1.0024302318    1.7442298233    0.6505194760
 H    0.1512499215    1.9384821082   -0.8927541853
 H   -0.7459580394    1.9332240530    0.6382849607
 H   -0.0390207526   -0.3638325314   -2.1153419667
 H   -0.9010609008   -2.7773087028   -1.4495004557
 H    0.8050765890   -2.7197164201   -1.0239104736
 H   -1.6094362547   -2.3650403865    0.7796236551
 H   -0.3582369948   -4.1547351688    1.8675729323
 H    1.1834748052   -3.4321092531    1.3849395389
 H   -0.6780863280   -2.4737711680    3.6167284921
 H    1.0751348427   -2.5694633482    3.6357507618
 H    0.6260623356   -0.0612445782    3.0222263329