16

 N   -0.0678529837   -1.1366950186   -0.1431647237
 C   -0.0281951474    0.0140392761   -0.0449990389
 C    0.0394868844    1.4782364540    0.0440429395
 N   -0.4228285635    1.9832090996    1.3764817250
 C    0.7630419943    2.7732813540    1.7883369166
 C    1.2201425312    3.5045881233    0.4919670909
 C    1.4855215228    2.0373426602    0.0382970545
 C    1.9060864940    1.7650194249    1.5145926193
 H   -0.5483653917    1.8882790437   -0.7849909566
 H   -1.2286645749    2.5874042303    1.2494566016
 H    0.6255847786    3.2727262269    2.7463105858
 H    0.4778362799    4.0946518431   -0.0549060288
 H    2.1456885820    4.0710259907    0.6111955686
 H    2.1059993643    1.7775827899   -0.8175098809
 H    2.8929153677    2.1689948371    1.7421928900
 H    1.7923776016    0.7541450548    1.9100160669