12

 C    0.2193550203    1.4985660792   -0.0009575182
 C    0.2558611235   -0.0086057973    0.0356071186
 O    0.3051878545   -0.6660979770    1.0491266531
 C    0.2267552053   -0.7245418359   -1.3388441108
 C    0.2631330476   -2.2317169247   -1.3022704361
 O    0.1776404200   -0.0670436304   -2.3523698683
 H    1.0658334152    1.8799178826   -0.5808901063
 H   -0.6812207195    1.8389549076   -0.5219119529
 H    0.2443545878    1.8929395582    1.0149369022
 H   -0.5839130572   -2.6129380086   -0.7230635594
 H    0.2388326427   -2.6260831808   -2.3181843897
 H    1.1631978797   -2.5722506230   -0.7805477722