24

 C   -0.7481958454    1.4098537635    0.0365669508
 C   -0.1904010582    0.0096875045    0.0341866816
 C    0.1421889850   -0.7056778329    1.3217247185
 C    1.5254018756   -0.3871066753    1.9677932729
 C    1.6568997061    1.1035794341    2.3276303443
 C    1.6309148158   -1.2209881538    3.2583625918
 C    2.6607105765   -0.7883256557    1.0107720828
 N   -0.0033909208   -0.6617835677   -1.0399919240
 O   -0.3406593205    0.0849893070   -2.1835930105
 H   -0.0692945310    2.1021209266   -0.4727758906
 H   -1.6870867563    1.4354339430   -0.5260350039
 H   -0.9259567444    1.7717483050    1.0497251799
 H   -0.6425191817   -0.4828047101    2.0568219094
 H    0.1052676320   -1.7811297452    1.1221141163
 H    0.8452609867    1.4300111247    2.9878636134
 H    2.6013572856    1.2865754234    2.8517596930
 H    1.6479132951    1.7419280483    1.4392656444
 H    1.5435675565   -2.2921899295    3.0467545975
 H    2.5951433951   -1.0553979999    3.7510396935
 H    0.8422422834   -0.9542702555    3.9710046283
 H    2.6090183461   -0.2321011687    0.0708566812
 H    3.6363509413   -0.5930389536    1.4691745842
 H    2.6111724348   -1.8540756808    0.7639234239
 H   -0.1795330475   -0.5487746815   -2.8901592986