20

 C   -0.1507941288    1.5907603924   -0.0995229369
 C   -0.0568255161    0.0567679592    0.0232280704
 C    0.7464071973   -0.4216830836    1.2574003845
 C    2.2281165682   -0.0371413664    1.2117065741
 C    3.0095078067   -0.6187242151    2.4081505539
 C    4.4214110571   -0.2570621379    2.3891978104
 C    5.5809755206    0.0562670174    2.3479568826
 C   -1.4029181289   -0.5272419762    0.0554606114
 N   -2.4636364649   -0.9848906066    0.0948661230
 H    0.8438559634    2.0247285818   -0.2227977487
 H   -0.7560185692    1.8742331629   -0.9638066587
 H   -0.6102788891    2.0219085514    0.7946980308
 H    0.4346044471   -0.3353869725   -0.8773275952
 H    0.2780295498   -0.0149232316    2.1623006387
 H    0.6565553469   -1.5119339000    1.3267854207
 H    2.6814709240   -0.4006927649    0.2816722552
 H    2.3488183040    1.0507352131    1.2134474959
 H    2.5547583151   -0.2704158033    3.3448925103
 H    2.9110145371   -1.7121782456    2.4128423587
 H    6.6078251397    0.3251290155    2.3241514787