15

 C   -0.1029362338    1.3908968691    0.0184083033
 O   -0.0440468772   -0.0367248769    0.0570492251
 C   -1.1948205072   -0.6944200107    0.0336265355
 N   -1.3304239474   -1.9784062346    0.0656607077
 C   -2.7162566297   -2.1668764299    0.0190016406
 C   -3.3134624266   -3.5319932647    0.0357574214
 C   -3.3262168408   -0.9624421924   -0.0380327376
 O   -2.3420665367    0.0155989815   -0.0298268094
 H    0.9337021696    1.7257428573    0.0471287315
 H   -0.5837349251    1.7397756965   -0.9003772222
 H   -0.6477920274    1.7853130397    0.8813459098
 H   -3.0250801464   -4.0706910074    0.9445396178
 H   -4.4046003952   -3.4848338738   -0.0076041544
 H   -2.9572954383   -4.1218898911   -0.8153529832
 H   -4.3427346378   -0.6148514828   -0.0856227360