20

 O   -0.1411956070    1.5608078327    0.0705279164
 C    0.0050879030    0.1500342825    0.0510283865
 C   -1.3842540376   -0.4603307334   -0.0942701002
 C   -1.3699165445   -1.9811585983   -0.1116679616
 C   -1.0497488921   -2.7525004229    1.2018317742
 C   -2.1837482738   -3.7737341506    0.8520814752
 C   -2.7290356241   -2.7302314002   -0.1802839158
 C   -1.6971609847   -5.0022074570    0.2428660964
 N   -1.3035378395   -5.9728606415   -0.2479185722
 H    0.7317438689    1.9541692067    0.1590940716
 H    0.6411110770   -0.1758795014   -0.7883757045
 H    0.4788841014   -0.2147275458    0.9773142692
 H   -2.0120693115   -0.1006384682    0.7311800872
 H   -1.8351309633   -0.0800692336   -1.0193101600
 H   -0.7153525716   -2.3409948508   -0.9139464902
 H   -0.0457765589   -3.1583057418    1.3330674957
 H   -1.3218996888   -2.1756596080    2.0904794605
 H   -2.8600284940   -4.0337288430    1.6696951332
 H   -3.5396576377   -2.1464314320    0.2645055199
 H   -3.0547077114   -3.1148414834   -1.1476469816