21

 C   -0.1084982349    1.5429737619    0.0106874722
 C    0.0352487317    0.0170070846    0.0126667406
 C   -1.3468314952   -0.6450010855   -0.0452493452
 C    0.9966869755   -0.5373227280   -1.1071278801
 C    2.0097758578   -1.2469334494   -0.1971368275
 O    1.1463097626   -1.9077824879    0.7967878118
 C    0.8527651239   -0.5255421726    1.2121891814
 C    2.3389377013   -0.2007397746    0.8981179867
 O    3.2530548453   -0.6231510745    1.8699982049
 H    0.8566996478    2.0571599751    0.0179735203
 H   -0.6523277174    1.8756936271   -0.8799945904
 H   -0.6749667048    1.8827854983    0.8853627662
 H   -1.8521722059   -0.4023060036   -0.9868013352
 H   -1.2557484528   -1.7312243584    0.0258969268
 H   -1.9861607294   -0.2964318416    0.7742002268
 H    0.4936568593   -1.2351054254   -1.7806943230
 H    1.4567387819    0.2539284678   -1.7068703538
 H    2.7674834542   -1.9007977421   -0.6303985029
 H    0.4330357871   -0.4443817113    2.2166008785
 H    2.6234421141    0.8099483293    0.6000725939
 H    2.9817859381   -1.5174844293    2.1175323378