23

 C    0.0042002418    1.5070735664   -0.0416068603
 C   -0.0161137397   -0.0199245989    0.0223651529
 C   -1.4355128307   -0.6181836320    0.0666477360
 C   -1.2872665522   -1.9139570263    0.8779178136
 C   -0.2988802461   -1.5103825800    1.9857031043
 C    0.7390303532   -0.6246052845    1.2624704010
 C    1.9171252951   -1.4067621689    0.6350281195
 C    1.9963277599   -0.8339218745   -0.7820785180
 O    0.6512107388   -0.5588568625   -1.1340577009
 H    1.0294436146    1.8853005499   -0.1082397817
 H   -0.5444520833    1.8598685731   -0.9204821837
 H   -0.4579499350    1.9426101639    0.8507564044
 H   -2.1094875356    0.0734715603    0.5865956642
 H   -1.8227036842   -0.7666453841   -0.9443901016
 H   -2.2358024516   -2.2964308521    1.2648788274
 H   -0.8509532113   -2.6959315698    0.2460810306
 H   -0.8253516322   -0.9249216226    2.7493817957
 H    0.1604873629   -2.3636317323    2.4945651262
 H    1.1162177361    0.1661465274    1.9164133655
 H    2.8493095746   -1.2958035620    1.1955229252
 H    1.6811150864   -2.4752877375    0.5884230694
 H    2.6100360210    0.0820909997   -0.8041026862
 H    2.4025794876   -1.5285202129   -1.5229917634