21

 C    0.3326679608    1.1225426655   -0.5350057848
 C   -0.4301437779    0.1686821394    0.4022905665
 C    0.3533615777   -0.2516564514    1.5586618991
 C    1.0224134072   -0.5904736839    2.5022555471
 C    1.8152362507   -0.9944560109    3.6487813929
 C    1.0728995703   -1.4046080292    4.9486756829
 C    1.8676304450   -2.7216806807    4.8242125987
 C    1.1020924024   -4.0268834068    4.7602935331
 O    2.3904921873   -2.3238911173    3.5305121560
 H    1.2386563295    0.6462059359   -0.9189344251
 H   -0.2957530725    1.4058866557   -1.3846364755
 H    0.6286186719    2.0325906974   -0.0061702775
 H   -1.3535562893    0.6519363838    0.7471932272
 H   -0.7490743111   -0.7200477777   -0.1574071411
 H    2.6085432002   -0.2556747408    3.8305058851
 H    1.2689094302   -0.7868962543    5.8257756061
 H   -0.0031788543   -1.5228554669    4.8125639324
 H    2.6857412473   -2.7974144231    5.5550755506
 H    0.2769351829   -3.9548855994    4.0453591855
 H    1.7613550469   -4.8413039226    4.4435915978
 H    0.6944810850   -4.2804800128    5.7453738330