18

 O   -0.0830064786    0.0121837534    0.1115327444
 C   -0.0209485162    1.2034984448    0.0959021390
 C   -1.0466390420    2.3500516067   -0.0298204591
 C   -1.5452041863    2.8947969209    1.3152044997
 C   -0.4180223532    3.5069374892    2.1601576892
 O    0.7006877332    2.6392425196    2.3099567443
 C    1.6601447685    2.7003717300    1.2673542122
 C    1.1035793276    2.2474826574   -0.0835261114
 N    0.0583554738    3.2044241823   -0.5947496528
 H   -1.8802004779    2.1484632545   -0.7097225211
 H   -2.3026213457    3.6688025345    1.1419792164
 H   -2.0302502024    2.0784098310    1.8627941111
 H   -0.0991820006    4.4586314126    1.7170005872
 H   -0.7871148522    3.7054970628    3.1714012548
 H    2.0649550850    3.7192365350    1.1665777179
 H    2.4674095218    2.0272018289    1.5721717456
 H    1.9115184603    2.0119376118   -0.7831873521
 H    0.0340066348    3.1636345746   -1.6094292353