15

 O   -0.0871731667    1.4528986985   -0.2441384261
 C    0.0345107441    0.0510588302   -0.1253839849
 C   -1.2885799987   -0.5727673748    0.2686911487
 O   -2.2845094065   -0.3645503652   -0.7991580692
 C   -2.4205675195   -1.7078765989   -1.0263574457
 O   -3.0814563170   -2.2521629408   -1.8441832876
 C   -1.4664067655   -2.1102159475    0.1286412776
 C   -0.3294471788   -2.9453165116   -0.1860884104
 C    0.6142524255   -3.6398738878   -0.4513556284
 H   -0.7385450086    1.6250477790   -0.9339864423
 H    0.3990462247   -0.4155899008   -1.0519613019
 H    0.7750979662   -0.1427275799    0.6572622609
 H   -1.6669000963   -0.1456349416    1.1997265452
 H   -2.0450120858   -2.5328554220    0.9564793553
 H    1.4451490530   -4.2573904067   -0.6898814512