21

 C    0.2215439791    1.6112546221   -0.6192227715
 C    0.0774165654    0.2278118285    0.0190804247
 C   -1.2907689411   -0.4018088305   -0.2387794280
 C   -1.4493316355   -1.7957214457    0.3488396858
 O   -0.5360150164   -2.3967603193    0.8676690435
 C   -2.8399979008   -2.3705081483    0.2479642216
 O   -2.9869379459   -3.7820107183    0.3646454482
 C   -3.5206339489   -2.9932704854    1.4172411923
 C   -2.9029291621   -3.1369657544    2.7822708669
 H    1.2087575402    2.0373239131   -0.4166663164
 H    0.0972733384    1.5638691293   -1.7069721761
 H   -0.5278126009    2.3113029600   -0.2324719789
 H    0.8525326051   -0.4475561010   -0.3571419988
 H    0.2422130962    0.2921588378    1.1003536764
 H   -2.1021465652    0.2308895917    0.1514980925
 H   -1.4900487805   -0.4754822097   -1.3189294647
 H   -3.4746809845   -1.9075261470   -0.5095496171
 H   -4.6113330104   -2.9262432464    1.4034274757
 H   -1.8150645296   -3.1614732002    2.7155004062
 H   -3.2124260374   -2.3084836975    3.4284893051
 H   -3.2490236050   -4.0674686788    3.2443421324