23

 C   -0.1307644509    1.5461516493   -0.0192025268
 C    0.0332484158    0.0247214178    0.0178377865
 C    0.9412317417   -0.5392400242   -1.1106845240
 C    1.9760459119   -1.2762446840   -0.2713124025
 C    1.2669664477   -1.9742064830    0.9320896597
 C    2.5414611119   -1.7414078250    1.7771928035
 C    2.3282499534   -0.4255239694    0.9918509896
 C    0.7769985688   -0.5147164304    1.2595421249
 C    0.1750503521   -0.1744415866    2.6079157508
 H    0.8395324472    2.0505762334    0.0596403339
 H   -0.5926177400    1.8652701118   -0.9595740547
 H   -0.7635179888    1.9090161806    0.7973157787
 H   -0.9643652740   -0.4320973304   -0.0272203570
 H    0.4062929773   -1.2064421526   -1.7946143626
 H    1.3905189434    0.2569468808   -1.7152706035
 H    2.7837012369   -1.8099645429   -0.7767786233
 H    0.6448388445   -2.8721574551    0.8894226069
 H    2.4344703821   -1.7091805760    2.8635874195
 H    3.4189876380   -2.3319989860    1.4979781386
 H    2.9472448166    0.4746419909    1.0192041596
 H    0.1678948208    0.9075637477    2.7774999149
 H   -0.8645626004   -0.5193204245    2.6628856017
 H    0.7178719741   -0.6315896721    3.4393837555