20

 C    0.3620002062    1.3525861375   -0.0881649772
 O    0.4812236096   -0.0478516148   -0.0748329031
 C    0.3021421230   -0.5946099265    1.2183481001
 C    0.3945258200   -2.0938743608    1.1232482633
 C    1.7577045039   -2.7591944299    1.0750794945
 C    0.8775722321   -2.8983936077    2.2923118896
 O    1.2004154389   -2.2055849788    3.4572808051
 C    2.1768680414   -2.8662659299    4.2365023070
 H    1.1135686187    1.8357637950    0.5574599078
 H    0.5160007663    1.6862887316   -1.1175455368
 H   -0.6345140963    1.6843618468    0.2467193888
 H    1.0618767128   -0.2098323418    1.9146469693
 H   -0.6821172163   -0.2984185437    1.6207176345
 H   -0.3890482767   -2.5480433179    0.5238979230
 H    1.9055638253   -3.6144039821    0.4251542554
 H    2.6158585450   -2.1015698531    1.1664147725
 H    0.4067465593   -3.8668351499    2.4716003311
 H    1.8303900533   -3.8592053330    4.5614493761
 H    3.1189444864   -2.9932197724    3.6843448426
 H    2.3568412371   -2.2485195985    5.1194347665