25

 C    0.4777542179    1.2772605621   -0.0680186957
 C    0.2222404672   -0.2340779220    0.0063518021
 C   -1.2497166768   -0.6605270238    0.1211796156
 C   -1.9613749752    0.0342628529    1.2805336491
 C   -2.0548450915   -0.7011500074   -1.2217677139
 C   -1.5993854029   -0.0141240830   -2.4938591646
 O   -1.9093368691   -2.1362673674   -1.3031082605
 C   -1.4549900853   -2.2108559828    0.0651599468
 C   -0.3153305233   -3.1934373305    0.2462740963
 H    1.5454633200    1.4746827716   -0.2062927611
 H   -0.0533314424    1.7420877351   -0.9037968508
 H    0.1679739740    1.7881683808    0.8481732112
 H    0.6714448242   -0.7153886519   -0.8688591097
 H    0.7604217827   -0.6364349940    0.8747768766
 H   -2.0414268120    1.1140962319    1.1198460795
 H   -2.9767950448   -0.3550515456    1.4059947609
 H   -1.4255731992   -0.1195929843    2.2248685636
 H   -3.1100884300   -0.4413398436   -1.0360149995
 H   -0.5397783519   -0.1862854381   -2.6986238109
 H   -2.1724817936   -0.4137275899   -3.3372110745
 H   -1.7820463830    1.0642291823   -2.4458836875
 H   -2.2888396230   -2.5082947000    0.7219996026
 H    0.5436844031   -2.9457697609   -0.3815961457
 H    0.0085648366   -3.2236311895    1.2923008190
 H   -0.6559396519   -4.1971329722   -0.0283153887