16

 O    0.0151162256    1.3851499935   -0.0513143727
 C    0.0157272591   -0.0259445815    0.0145210896
 C   -1.3841661955   -0.5527328399    0.1378854590
 C   -2.5156570480   -0.1988924237    1.1364452989
 C   -3.1101925267   -1.0176230855   -0.0284619676
 O   -2.3149371156   -0.2137005967   -0.9761390156
 C   -1.9230579021   -2.0232609535    0.0882698795
 C   -1.5933405640   -2.8215964058   -1.0783008451
 N   -1.3181442323   -3.4866556970   -1.9825182854
 H   -0.5453693528    1.6324520333   -0.7962197692
 H    0.4922985536   -0.4857665120   -0.8645888647
 H    0.5958694627   -0.3078187225    0.8993983933
 H   -2.4873567677   -0.6469575497    2.1322933970
 H   -2.7952733639    0.8529838463    1.1432420314
 H   -4.1448288698   -1.2317276339   -0.2903908271
 H   -1.8540488426   -2.6051554513    1.0101149390