16

 N   -0.4006144158    1.2293556704    0.1314921498
 C    0.1136652500   -0.1135051355   -0.1498986771
 C    0.9837598550   -0.1651492271   -1.3478367472
 N    1.6681287556   -0.1430899179   -2.2793109751
 C    0.8674661619   -0.6544569284    1.0557211698
 C    0.1106093828   -1.0762947766    2.2727015079
 C    0.8009828664   -2.1327472894    1.4214254591
 C   -0.0015636697   -3.0340549719    0.6424291696
 N   -0.6604035206   -3.7479879615    0.0138973872
 H    0.3720778453    1.8804846352    0.2437373206
 H   -0.9413259294    1.5625128334   -0.6616287512
 H   -0.7478612338   -0.7620470319   -0.3454556777
 H    1.8411999441   -0.1998242717    1.2114440614
 H    0.5338310165   -0.8731517923    3.2489668033
 H   -0.9712362643   -1.0362919122    2.2267548320
 H    1.7104648361   -2.5754930826    1.8120177775