14

 C   -0.1047094576    1.3900167730   -0.0361628810
 N   -0.0442635109   -0.0557055971    0.0156309282
 N   -0.1758482328   -0.7954295479   -1.1094225484
 C   -0.0701719988   -2.0459116969   -0.6504892032
 N   -0.2071107532   -3.1468332207   -1.4591269958
 N    0.1272378651   -2.1512156693    0.6884301662
 C    0.1362611994   -0.8791129804    1.0725704541
 C    0.3107961816   -0.4017635264    2.3987614356
 N    0.4508242442    0.0272066398    3.4645809731
 H    0.0331689170    1.7825873002    0.9718577758
 H    0.6837378854    1.7692725038   -0.6905975163
 H   -1.0756637921    1.7058648430   -0.4251031112
 H   -0.0159995817   -2.9799434750   -2.4352799523
 H    0.2270114644   -3.9800264061   -1.0923689748