18

 C   -0.1129654569    1.5299133638   -0.0166009728
 C    0.0484447910    0.0161297719    0.0354092077
 C    1.0953269125   -0.5906793326   -0.9107177450
 O    2.3256328607   -0.0706002875   -0.4702478831
 C    2.2379510410   -0.0619219453    0.9744006815
 C    0.8115595401   -0.6036939360    1.2416800053
 C    0.8530905707   -2.0452701558    0.7838528495
 N    0.7651976158   -3.0879792601    1.4841425044
 O    1.0339527274   -1.9979420271   -0.5854295312
 H    0.8485746967    2.0476966452   -0.0014080815
 H   -0.6319592264    1.8250099656   -0.9344018601
 H   -0.7108422012    1.8859459879    0.8281467101
 H   -0.9179313789   -0.4770543347   -0.1011717838
 H    1.0100706890   -0.4758493453   -1.9888879149
 H    3.0182832925   -0.7031614601    1.3933161091
 H    2.3756748003    0.9591306512    1.3446130843
 H    0.4277497101   -0.4568167075    2.2476736511
 H    0.8451509556   -3.9217327436    0.8984171596