10

 O   -0.2194242880   -0.0477059636    0.0033046694
 C   -0.1157039872    1.1413605048    0.0083863966
 N    1.1300421104    1.8467131204    0.0012569901
 C    1.0986806747    3.2534311878    0.0090569720
 O    0.0960082514    3.9134567255    0.0214295298
 C    2.3970424776    1.2133342323   -0.0133781509
 O    2.5914164188    0.0357810600   -0.0224602120
 H   -0.9503505578    1.8570514822    0.0187284108
 H    2.1142514777    3.6883135106    0.0026333968
 H    3.2066029124    1.9688866700   -0.0165468226