20

 C    0.0274404091    1.4998377882    0.0047646666
 C    0.0156258977   -0.0053661264    0.0083365121
 C   -1.3122058423   -0.7872687188   -0.1527628946
 C   -0.7285423572   -2.1026516080    0.3989369659
 C   -1.4541509366   -3.4103698287    0.2866128033
 O   -0.4194011931   -1.6910539522    1.7745210932
 C    0.6239170987   -0.9197497271    1.1868554393
 C    0.8145482916   -1.8599238055   -0.0018553256
 N    0.9553498236   -0.7240368941   -0.9133547686
 H    1.0454980864    1.8792709624    0.1317252326
 H   -0.3650018563    1.8992561459   -0.9379156090
 H   -0.5948932219    1.8909265813    0.8164131062
 H   -2.1313958153   -0.4381705074    0.4806497243
 H   -1.6379669749   -0.8228484099   -1.1975305868
 H   -1.6149146563   -3.6666573278   -0.7657081263
 H   -0.8804523874   -4.2151166940    0.7556567915
 H   -2.4318173332   -3.3577202608    0.7776378659
 H    1.3813964001   -0.5282513297    1.8627534766
 H    1.4950973897   -2.7089996926   -0.0600570544
 H    0.5819792576   -0.8698693547   -1.8519813625