19

 N    0.0192617218   -1.1477191975    0.0703390931
 C    0.0179888364    0.0086497481    0.0713079000
 C    0.0047819090    1.4563714108    0.0201957329
 C   -1.2184871200    2.0630024902   -0.6811054558
 C   -0.8710148760    3.2118630702   -1.6409510941
 C    0.1404632625    4.1885202089   -1.0333555058
 C    1.4742031196    3.4790840080   -0.7575750202
 C    1.3251723381    2.1807602343    0.0101512571
 N    0.5458356432    2.0982668346    1.2446810123
 H   -1.7426142311    1.2726712837   -1.2249674915
 H   -1.9168449717    2.4125688130    0.0903083422
 H   -0.4477744493    2.7959149752   -2.5642675506
 H   -1.7911141115    3.7325265663   -1.9250831668
 H    0.3146705610    5.0302653871   -1.7106408458
 H   -0.2656378191    4.6242573637   -0.1101441287
 H    1.9625306754    3.2490825754   -1.7131683040
 H    2.1603913790    4.1377916005   -0.2112839148
 H    2.2220360834    1.5660002232    0.0414437260
 H    0.0341229894    2.9636773642    1.4079086344