14

 O   -0.1638012891    1.3149535244    0.0108980079
 C    0.0484852440   -0.0177045989    0.0024326851
 C    1.2183461489   -0.6791079028   -0.0073038101
 C    1.2308935972   -2.1412411239   -0.0154477382
 N    2.3400143842   -2.7826816983   -0.0247492815
 N   -0.0279969124   -2.7906921948   -0.0125008492
 C   -1.0916136729   -2.0824978321   -0.0030595706
 O   -2.3164467929   -2.6342825728    0.0002469701
 N   -1.1444002000   -0.7159872288    0.0047801658
 H    0.6889767973    1.7636323038    0.0089477289
 H    2.1650136887   -0.1551680925   -0.0093281078
 H    2.1377881155   -3.7839059661   -0.0292316957
 H   -2.1705820698   -3.5907941555   -0.0058041904
 H   -2.0250720086   -0.2273286715    0.0120259289