18

 N    0.0160537338   -1.0935170216   -0.0222452234
 C   -0.0059544520    0.0612389722   -0.0175993368
 C   -0.0012882153    1.5176497990    0.0452998971
 C   -0.8099891905    2.1218230554    1.2287207866
 C   -1.1521548090    3.5273992055    0.6540561467
 C   -0.4710013852    3.4614947811   -0.7303873073
 C    1.0614545111    3.5721661793   -0.5745857566
 C    1.4114517220    2.1669640493   -0.0037933799
 O   -0.6498439610    2.0832930803   -1.1028259959
 H   -1.7079932954    1.5301170628    1.4122796558
 H   -0.2246920371    2.1511313607    2.1498680449
 H   -2.2311579189    3.6541032170    0.5466586336
 H   -0.7721980599    4.3466541014    1.2690497506
 H   -0.9099435884    4.0975597932   -1.4980614543
 H    1.5366483959    3.7298556003   -1.5447211191
 H    1.3571372115    4.3899640410    0.0868845443
 H    1.8821264581    2.1943238727    0.9809245622
 H    2.0605335301    1.6063303904   -0.6780539385