20

 O    0.0683920121    1.4467686996    0.0506531002
 C    0.0482682840    0.0313310311   -0.0342961802
 C   -1.3676909685   -0.5439351971   -0.0184929329
 C   -1.3935678896   -2.0694688386   -0.1825114591
 C   -2.8036116419   -2.6391347819   -0.0537879161
 C   -2.9720406602   -4.1888883558    0.0201246222
 N   -3.5625558233   -3.9950979006    1.3473690844
 C   -3.4047589562   -2.6319910115    1.3787764570
 O   -3.6287384829   -1.7997362559    2.2190398085
 H   -0.3585092085    1.6944540349    0.8772609484
 H    0.5466792019   -0.2136377643   -0.9795624324
 H    0.6462810664   -0.4266601693    0.7713982392
 H   -1.8614377581   -0.2799416156    0.9253023373
 H   -1.9465751525   -0.0696807491   -0.8206917380
 H   -0.9753626595   -2.3485514427   -1.1586981565
 H   -0.7478192289   -2.5346276080    0.5750823982
 H   -3.4791625623   -2.1748393656   -0.7787895954
 H   -3.6522361184   -4.6292007289   -0.7154266190
 H   -2.0288887932   -4.7459794720    0.0280785677
 H   -3.8722793905   -4.6478951186    2.0519410866