18

 C    0.1095802330    1.5170086689    0.0543299642
 C    0.2017376045    0.0255649388   -0.0154212499
 N   -0.8056733336   -0.8726015100    0.6011132066
 C    0.6375420241   -1.0085993380    0.9563543993
 C    1.2627556988   -1.8748516517   -0.1288399363
 C    0.7193156325   -0.8537856246   -1.2056177482
 O   -0.2714118863   -1.2910647229   -2.0896672276
 C    1.8003042189   -0.1838533871   -2.0242426130
 O    2.8941244545    0.0975847174   -1.6034584604
 H    1.0626313457    1.9782811016   -0.2217692789
 H   -0.6634117193    1.8982071767   -0.6227594596
 H   -0.1398054761    1.8436304529    1.0697979393
 H   -1.2673792357   -0.3485185737    1.3435231739
 H    0.9598063691   -0.8881824789    1.9831950667
 H    2.3540258610   -1.8623874193   -0.1025044477
 H    0.8818378530   -2.8938551036   -0.2271945120
 H   -1.0250081671   -1.5226246636   -1.5266149246
 H    1.4849213032    0.0493826672   -3.0641545918