17

 C   -0.1534413719    1.6268525646    0.1077283669
 N   -0.2390107484    0.2489912502   -0.3734561869
 C   -0.2379450973   -0.7946010717    0.6513090164
 C   -1.4845168773   -0.4558669440   -0.0886707760
 C    1.2767206274    2.0600446822    0.1684185404
 C    1.9875209706    2.9454609023    0.9458640636
 N    3.2846706541    2.9635520733    0.5257758921
 N    3.4214258361    2.1331059845   -0.4681736831
 N    2.2103215186    1.5907862255   -0.6924549849
 H   -0.7105727157    2.2569500881   -0.5980623818
 H   -0.6198534678    1.7686011556    1.0972630944
 H    0.3200379045   -1.6936582000    0.4088144292
 H   -0.1715447460   -0.4824020934    1.6916859285
 H   -2.2583421276    0.0805114301    0.4575789666
 H   -1.8510332170   -1.1028058112   -0.8799472110
 H    1.6491685142    3.5582443153    1.7658787481
 H    2.0793779636    0.8826442585   -1.3982338526