22

 C   -0.0593497549    1.5368288479    0.0089085459
 C   -0.2112353375    0.0478025998    0.2345128980
 C    0.6924830234   -0.9509560161   -0.4519340509
 C    0.7505387096   -0.7820529355    1.0602512284
 C    1.9745150474   -0.1276357477    1.6786125443
 C    0.1282147345   -1.8702583152    1.9261881243
 C    1.0154363849   -3.0720944598    2.2719818077
 N    1.8011034667   -3.5331483762    1.2530473731
 O    0.9803611273   -3.6098784254    3.3611614270
 H    0.9814227009    1.8279057462   -0.1559607067
 H   -0.6273248082    1.8491502707   -0.8742722875
 H   -0.4344327470    2.1104935166    0.8637985614
 H   -1.2495991521   -0.2654438461    0.3188834410
 H    0.2465364053   -1.8489497153   -0.8696710828
 H    1.5189386959   -0.5550663167   -1.0352728844
 H    2.4183966591    0.6233383477    1.0212515312
 H    1.7183524123    0.3642778062    2.6241468263
 H    2.7477746251   -0.8722062755    1.8961470160
 H   -0.1976500146   -1.4591333091    2.8864279066
 H   -0.7680987474   -2.2677836120    1.4330755207
 H    1.9154012155   -3.0111625501    0.4018027077
 H    2.4327712938   -4.2911788643    1.4530809428