20

 C    0.2276221708    1.3962394490    0.0262292326
 C   -0.0747992017   -0.1149878796    0.0232514108
 C    0.5623185679   -0.8375028911   -1.1970272164
 C    1.8862627332   -1.4506504679   -0.6798955380
 C    1.6654429678   -1.5125775483    0.8124543193
 C    0.6041507149   -0.8083141024    1.1950950885
 N   -1.5350070935   -0.3264413587    0.0178427875
 C   -2.3741713993    0.0372677720    1.0177932276
 O   -2.0488730328    0.5828385010    2.0544330519
 H    1.3076639680    1.5644884407   -0.0227332335
 H   -0.2412171592    1.8796253596   -0.8374768292
 H   -0.1591047412    1.8560281333    0.9373578892
 H   -0.0996842507   -1.6497394459   -1.5182658827
 H    0.7002637887   -0.1670775688   -2.0493764067
 H    2.0920694417   -2.4299249216   -1.1260102331
 H    2.7509502467   -0.8176212332   -0.9219333957
 H    2.3342899810   -2.0462219490    1.4790759253
 H    0.2497664082   -0.6578630078    2.2061111087
 H   -1.9398852241   -0.7886718720   -0.7808729898
 H   -3.4262489563   -0.2269760493    0.7845628838