17

 C   -0.0204978988    1.5326899650    0.0020493183
 C   -0.0073163047    0.0373546193    0.0206662961
 C   -0.0254358904   -0.7980066980   -1.0420615453
 C   -0.0027990685   -2.2650569418   -0.6229623195
 C    0.0308400079   -2.0945414991    0.8568934121
 C    0.0287146869   -0.7889103350    1.2387237852
 C    0.0629235639   -0.8005609156    2.6716623030
 C    0.0821809735   -2.1203835876    3.0182567146
 O    0.0630344668   -2.9345145847    1.9099486321
 H    0.8680820958    1.9425881696    0.4975850287
 H   -0.0486691536    1.9181609255   -1.0204582299
 H   -0.8907422095    1.9276151645    0.5404197597
 H   -0.0527474875   -0.4939845182   -2.0807041885
 H   -0.8875860067   -2.8080282760   -0.9804253607
 H    0.8732786831   -2.7928234643   -1.0222145320
 H    0.0722783148    0.0293109587    3.3611880209
 H    0.1088963771   -2.6355414824    3.9639825953