17

 C    0.0141400160    1.5063506519    0.1784007421
 N   -0.0228639191    0.0599924955    0.0103536906
 C    0.7564358164   -0.6223850957    1.0325947820
 C   -1.3826105842   -0.4570585078   -0.0681780366
 C   -2.0272241829   -0.1020484937   -1.3695445144
 N   -2.9985542927    0.7512369772   -1.5242190220
 O   -3.2575608100    0.7490202995   -2.8503568684
 N   -2.3882469717   -0.1536295673   -3.4735395065
 N   -1.6578172009   -0.6556362270   -2.5870062618
 H    1.0508819446    1.8509543263    0.1287647811
 H   -0.5444546423    1.9965387170   -0.6232508215
 H   -0.4144893317    1.8381637820    1.1430264382
 H    0.3650750878   -0.4692327643    2.0562651346
 H    0.7769734435   -1.6976577839    0.8310816024
 H    1.7858950306   -0.2534264002    1.0089143312
 H   -1.3382608130   -1.5491487654   -0.0077878065
 H   -2.0352437204   -0.1037307340    0.7501787555