16

 C    0.1137054141    1.4362068513    0.0377593918
 O    0.3274153441    0.0176218707    0.0317320002
 C    0.2622378527   -0.5682883081   -1.1797082789
 O    0.0433420821    0.0308486099   -2.2039493453
 C    0.4919480141   -2.0543253546   -1.0905640000
 C   -0.5509428972   -2.9441361977   -1.8169859233
 O    0.4625167062   -3.5613845358   -2.6298919676
 C    1.4648192359   -2.6533280867   -2.1384633405
 H    0.8638704104    1.9404597070   -0.5763683297
 H   -0.8780070402    1.6770284999   -0.3530550292
 H    0.2005352094    1.7447909204    1.0793781130
 H    0.6970183802   -2.3549724039   -0.0646536555
 H   -1.0787753239   -3.6699122012   -1.1889969675
 H   -1.2706341740   -2.3754837422   -2.4174780382
 H    1.7795249982   -1.9344095409   -2.9037544933
 H    2.3376760378   -3.1779024583   -1.7351993360