21

 C   -0.0157385329    1.5279998729    0.0297297378
 C   -0.0394498856   -0.0131993034   -0.0079292615
 C    0.6806817125   -0.5376944037   -1.2794460682
 C    0.8784235110   -2.0573484182   -1.2215237099
 C    1.5602277611   -2.4475750964    0.0900319680
 O    0.8384431444   -1.9730714774    1.2155739569
 C    0.7214505868   -0.5689481470    1.2257726345
 C   -1.4285261735   -0.4796222371    0.0155233215
 C   -2.5773177699   -0.8346526164    0.0294657210
 H    1.0165268609    1.8939730961    0.0304162972
 H   -0.5261171339    1.9411452386   -0.8446684779
 H   -0.5187086359    1.9072276546    0.9241042054
 H    0.1175344685   -0.2458886301   -2.1714169326
 H    1.6589849056   -0.0415026286   -1.3378343162
 H   -0.0933049783   -2.5590549669   -1.2821664191
 H    1.4821923855   -2.4000438373   -2.0694474691
 H    1.6181600537   -3.5337446841    0.2033275949
 H    2.5903134233   -2.0486163198    0.1113457532
 H    1.7210226568   -0.0989725473    1.2501126689
 H    0.1948587479   -0.3062911138    2.1472319726
 H   -3.5886624180   -1.1575181450    0.0499138926