14

 O    0.2618595238    0.3199936530    1.1490655017
 C   -0.1446429930    1.0723931287    0.3068796451
 C    0.6942993007    1.4879262333   -0.8382779485
 N    1.3438445388    1.8165237937   -1.7364533210
 C   -1.5611258112    1.6690085741    0.2878094981
 O   -1.4441719057    3.0673599284    0.2786355703
 C   -2.3306715393    3.5665892781   -0.7278911330
 C   -2.3834188959    2.4157633509   -1.7279538476
 O   -2.2232375830    1.2642321942   -0.8874596604
 H   -2.1042674844    1.2920029041    1.1657433326
 H   -3.3172681905    3.7767682898   -0.2952075487
 H   -1.9024241572    4.4859639920   -1.1303357555
 H   -3.3405032389    2.3229796593   -2.2456714103
 H   -1.5710477342    2.4726455504   -2.4605032928