21

 C    0.0782274174    1.4902832107   -0.3606676973
 C    0.0286116338   -0.0068187594   -0.0170432210
 C   -1.3648399898   -0.5550329956   -0.0032790014
 C   -1.9202627111   -1.5113135717   -0.8127124058
 N   -3.2300860301   -1.6348760662   -0.3933668586
 C   -3.4179042843   -0.7595033088    0.6386141703
 C   -4.7058851747   -0.6419408085    1.3911326840
 C   -4.7395404952   -1.5105619479    2.6615019065
 N   -2.3099141826   -0.0969869919    0.8941878816
 H    1.1031219463    1.8718407724   -0.3111016172
 H   -0.3059325919    1.6735372692   -1.3694780966
 H   -0.5376185759    2.0597494546    0.3405460299
 H    0.6326566100   -0.5770770036   -0.7321074620
 H    0.4834130021   -0.1602812766    0.9697910485
 H   -1.5238374575   -2.0942079234   -1.6276616163
 H   -3.9219092958   -2.2530387986   -0.7823818651
 H   -4.8376939567    0.4089762489    1.6647436339
 H   -5.5436445441   -0.9084581700    0.7350436811
 H   -5.6833406047   -1.3777639516    3.1993871315
 H   -4.6337670906   -2.5728290505    2.4183347514
 H   -3.9187930645   -1.2358775916    3.3293541923