21

 C   -0.4668297108    1.4169489123    0.0851950531
 C   -0.1749135443   -0.0883417896    0.1450586044
 C    0.4536301381   -0.5773448597   -1.1912088919
 C    1.9364786509   -0.5572990886   -0.9093154619
 C    2.1925423161   -0.4767804551    0.3937275853
 C    0.9226449268   -0.4592809093    1.2118283320
 C    0.9560433188    0.4625103458    2.4260154928
 C   -0.1136927741    0.2270693552    3.4795323633
 O    1.7967961235    1.3235908485    2.5531936872
 H    0.4487116630    1.9858817924   -0.1030468168
 H   -1.1750342695    1.6309087318   -0.7215117872
 H   -0.9050651072    1.7909992336    1.0156801041
 H   -1.1060200165   -0.6221203251    0.3582910801
 H    0.1192057054   -1.5928073478   -1.4474698002
 H    0.1667340647    0.0635817677   -2.0334259793
 H    2.6838800484   -0.6291400743   -1.6916668410
 H    3.1721617202   -0.4530031950    0.8540055850
 H    0.7045311485   -1.4723997335    1.5868739926
 H    0.1034945601   -0.7060832906    4.0137150918
 H   -0.1232815850    1.0513813488    4.1936797971
 H   -1.1025335473    0.1074553827    3.0245306195