21

 C   -0.0312901200    1.4460038088   -0.0939224417
 C    1.3161499300    0.7905587886    0.0512843371
 C    0.0373918184   -0.0435995702    0.0977165936
 C    0.4326610360   -0.7598430850   -1.1996654594
 C   -0.4932837254   -0.7162109012   -2.4191595950
 O   -0.3439756058    0.4711629972   -3.1864929036
 C    0.9896285552    0.6234421617   -3.6450362932
 C    1.9288707831    1.0294524022   -2.5037402705
 C    1.7445410514    0.1239446027   -1.2685555792
 H   -0.3621753413    2.0029597540    0.7770515230
 H   -0.3542980039    1.8616066692   -1.0427557826
 H    1.9881932506    1.0491953961    0.8610404298
 H   -0.4248140922   -0.5306108822    0.9485271845
 H    0.6966208371   -1.8003390914   -0.9901989027
 H   -0.2978357210   -1.5867740511   -3.0689774625
 H   -1.5445413019   -0.7538020540   -2.1153063915
 H    1.3303029446   -0.3154677814   -4.1147518703
 H    0.9651583896    1.3937148603   -4.4218086482
 H    2.9649961969    1.0093259032   -2.8605409308
 H    1.7075413755    2.0667310187   -2.2315148367
 H    2.6226734430   -0.5094567361   -1.1252959801