23

 C    0.0220901876    1.4930480158   -0.2748095923
 C    1.4403953340    2.0295410855    0.0846112963
 C    2.2178052071    0.8121800113    0.6418346964
 C    1.4792870773   -0.4321413726    0.0946138033
 C    0.0119471340    0.0221198091    0.1906247295
 C    1.9397223000   -0.7311085878   -1.3697549014
 C    2.8862361837   -1.8959748342   -1.2203529499
 C    2.8232311436   -2.4383287695   -0.0061585577
 C    1.8229779655   -1.7322156516    0.8742534032
 H   -0.7771076812    2.0771245286    0.1895817075
 H   -0.1398060681    1.5476271579   -1.3561779793
 H    1.9317725710    2.4406764285   -0.8021890121
 H    1.3994597270    2.8409145844    0.8166348317
 H    3.2794352119    0.8202749354    0.3764724247
 H    2.1616922770    0.8042224650    1.7370831788
 H   -0.3131541919   -0.0392992568    1.2372447777
 H   -0.6663448272   -0.6089389319   -0.3928944996
 H    1.0903213759   -1.0029505242   -2.0137923272
 H    2.4111085116    0.1386563331   -1.8436190822
 H    3.5103389159   -2.2495790731   -2.0341797924
 H    3.3859930945   -3.3046920419    0.3245171338
 H    2.2118239270   -1.5153637172    1.8770900079
 H    0.9311420939   -2.3589278238    1.0239423231