21

 C    0.0967734613    1.5341266908    0.1465182659
 C    0.1100482834    0.0085790029    0.0334565377
 C    0.6074572707   -0.4810992290   -1.3376601637
 C    0.5552272435   -1.9699427897   -1.4653263139
 O    1.5201339554   -2.7562901447   -0.7300607464
 C    1.3906613118   -2.9742292279   -2.1489899854
 C    0.2218364170   -3.9408251737   -2.3356815769
 C   -0.6780583887   -2.9000462638   -1.5612876698
 O   -1.2531564952   -3.2859970150   -0.3433066527
 H    1.0979995168    1.9522947379   -0.0072447229
 H   -0.5663291426    1.9823203103   -0.6020691373
 H   -0.2501874763    1.8562429006    1.1330257896
 H    0.7548274029   -0.4181766021    0.8107276343
 H   -0.8942310399   -0.3916417471    0.2157656099
 H   -0.0072068788   -0.0387096666   -2.1331866904
 H    1.6372129469   -0.1424904556   -1.5050369594
 H    2.2865710239   -2.8452707776   -2.7455160954
 H   -0.0847877670   -4.0721054558   -3.3764452394
 H    0.3370584830   -4.9166159834   -1.8573542664
 H   -1.4803024510   -2.4975843766   -2.1850511083
 H   -0.5120151571   -3.5173039740    0.2321446111