18

 C   -0.0321330412    1.4964590569   -0.1902263223
 C    0.0111889871    0.0104287161    0.1830053884
 C   -1.3548182014   -0.6405567238    0.1023450491
 O   -1.9456398018   -0.5877589457   -1.2297889136
 C   -2.2170379014   -2.0036008622   -1.2243522699
 C   -1.5005912429   -2.1848019879    0.1390455185
 N   -0.4807820210   -2.9560743606   -0.5662084443
 C   -1.0268716595   -2.8032731399   -1.8342286711
 O   -0.6538752348   -3.1310808308   -2.9242515793
 H    0.9676447302    1.9383479186   -0.1556280740
 H   -0.4280005243    1.6230606724   -1.2014115658
 H   -0.6729467846    2.0603858000    0.4962535842
 H    0.6994688232   -0.5195120418   -0.4846789890
 H    0.3904999416   -0.1147301201    1.2062520613
 H   -2.0488546024   -0.1739823246    0.8165399407
 H   -3.2469981852   -2.2642434821   -1.4681629623
 H   -1.9237111754   -2.6576430803    1.0239933420
 H    0.4699094939   -3.1769313941   -0.3025844625