16

 C    0.1270526507    1.5885464073   -0.0419170934
 C   -0.0173517332    0.0509829431    0.0019677770
 N    0.3583301100   -0.6294998218   -1.2285282834
 C    0.8758691700   -0.4881922769    1.1285542108
 O    1.9931204265   -0.8944739467    0.9338811758
 N    0.2834815169   -0.4160259397    2.3948529018
 C    0.8582431849   -0.7131319043    3.6302914072
 O    1.9867559065   -1.0640684997    3.8274199821
 H    1.1694694053    1.8637619175   -0.2292964276
 H   -0.4907233898    1.9948744563   -0.8490699982
 H   -0.1925241979    2.0612878457    0.8932815230
 H   -1.0646750430   -0.1888827536    0.2416523151
 H    0.1866208186   -0.0323283761   -2.0300768168
 H    1.3569938814   -0.8195008818   -1.1907699687
 H   -0.6819290613   -0.1211465822    2.4240790040
 H    0.1101271445   -0.5741840870    4.4378000015