21

 C   -0.1622687383    1.5646689294   -0.0359540159
 C   -0.0390761855    0.0680202740    0.0124305180
 C   -1.2394904270   -0.8924618532    0.0716284607
 C   -0.4542261381   -1.8015380580    1.0690372871
 C    0.7375703942   -0.8413529602    0.9817315217
 C    1.2018099069   -0.6588909991   -0.4452187025
 C    1.2620911059   -1.7509962698   -1.5033871645
 C    2.4748835867   -2.6350407886   -1.3097726305
 O    3.3118612367   -2.8556042444   -2.1470599669
 H    0.8030765456    2.0491053776    0.1437947765
 H   -0.5236939077    1.9031612658   -1.0149763088
 H   -0.8670269918    1.9307034977    0.7197440431
 H   -2.1124761752   -0.4300647261    0.5388584438
 H   -1.5590819810   -1.3388560896   -0.8761888066
 H   -0.9114039925   -1.8110210152    2.0605812117
 H   -0.2747262352   -2.8396838781    0.7692851065
 H    1.3724376457   -0.5618794652    1.8153672754
 H    2.0535903425    0.0174034336   -0.5030677999
 H    0.3763770869   -2.3958025054   -1.4406624004
 H    1.2967610788   -1.3289539478   -2.5125373186
 H    2.5523444522   -3.0810369474   -0.2905529798