17

 C    0.0191180306    1.3825658011    0.0608497764
 C    1.4755703268    1.9209989311   -0.0190855326
 C    2.1340604118    0.7765870419   -0.7489545299
 N    2.6654157651    0.8349015593   -2.1179337412
 C    3.4539518249    0.1714570676   -1.0688279877
 C    3.2320514068   -1.3477175398   -0.9136351701
 N    1.8036719905   -1.5757595162   -0.5827021768
 C    1.3022519525   -0.4167245181   -0.4431920657
 O    0.0930691718   -0.0704101943    0.0289008113
 H   -0.5003278748    1.6563801788    0.9806129814
 H   -0.5778218227    1.7126304368   -0.7962797137
 H    1.5365410562    2.8691750282   -0.5546422924
 H    1.8899398394    2.0531678624    0.9850164475
 H    2.2105317595    0.1456750475   -2.7167365170
 H    4.4140388839    0.6227784857   -0.8421594224
 H    3.5108169387   -1.8948817366   -1.8230617800
 H    3.8475119989   -1.7501549354   -0.1000574873