19

 C    0.1955803252    1.5158186002    0.1059061358
 C    0.0031675473    0.0019069301    0.2249954808
 C   -1.3649161522   -0.4548351541   -0.2815703295
 N   -1.4797427715   -1.9095443925   -0.1896197633
 C   -2.0161189675   -2.4546788281    1.0440366005
 C   -2.8260186555   -2.5105033752   -0.2187989342
 C   -4.0143039946   -1.7120839605   -0.3518314336
 C   -5.0173807042   -1.0655122905   -0.5053023204
 H    1.1796695680    1.8195502418    0.4750318257
 H    0.1150219014    1.8460670951   -0.9357246789
 H   -0.5591049565    2.0608590745    0.6838002560
 H    0.7806130208   -0.5264869850   -0.3382081419
 H    0.1178280965   -0.3059260001    1.2722150668
 H   -2.1645228400    0.0626721643    0.2735388092
 H   -1.4839101870   -0.1803421723   -1.3366177053
 H   -1.5452103607   -3.3591712227    1.4198037372
 H   -2.3602448058   -1.7585618549    1.8075906462
 H   -2.8591746105   -3.4529530553   -0.7611199551
 H   -5.9037826129   -0.4943164648   -0.6299929261