17

 O   -0.0586442123    1.3472614016   -0.0631423193
 C    0.0329031401   -0.0438474520   -0.0310206793
 C   -0.3997057443   -0.7422214201    1.2458095045
 C   -1.2965573823   -0.7431014312    0.0056363601
 C   -1.3477583067   -2.2446616136   -0.3173836249
 C   -1.5455167447   -2.8512542021    1.1274936737
 C   -0.1121566858   -2.2441532877    1.3985380033
 C    0.1075416462   -2.6813867535   -0.0629342903
 O    0.9342417927   -3.3068055362   -0.6571995591
 H    0.7005441749    1.7071243157    0.4079488444
 H    0.8450370368   -0.4690060228   -0.6230449399
 H   -0.6315306741   -0.1386099008    2.1154439838
 H   -2.1941915530   -0.1401062896   -0.0547318012
 H   -1.9127744256   -2.5821958266   -1.1833976211
 H   -2.3590393038   -2.4204098074    1.7139650643
 H   -1.5734001157   -3.9432144085    1.1466548098
 H    0.5303691875   -2.5837256053    2.2080743712