23

 C    0.0908025674    1.4710920860   -0.2749121489
 C   -0.0225933105    0.0127515328    0.0896392103
 O    1.1908603179   -0.7405007331    0.1994363276
 C    0.3862481423   -0.5764034222    1.3768152922
 C    0.9973640041    0.1758756270    2.5337314397
 C    2.0717253455   -0.6553119328    3.2545458052
 C    2.6973333485    0.0716908922    4.4252518766
 C    2.0360943580    0.0489058170    5.7818444478
 C    3.3299984821   -0.6963085669    5.5563980196
 H    0.8803489631    1.9733346461    0.2868262278
 H    0.3178205334    1.5747146210   -1.3412535853
 H   -0.8572448818    1.9860339863   -0.0841464654
 H   -0.8093112049   -0.5177341314   -0.4528535035
 H   -0.1286799535   -1.4950956403    1.6727897617
 H    1.4394468687    1.1134619964    2.1827150274
 H    0.2021828696    0.4426850879    3.2425161493
 H    1.6280512188   -1.5956373194    3.6094489998
 H    2.8449387680   -0.9346906105    2.5281352008
 H    3.1880846392    1.0052823199    4.1586468763
 H    2.0570785820    0.9475501652    6.3885333059
 H    1.1293133812   -0.5378119536    5.8926424468
 H    3.2887982653   -1.7800390617    5.5157725713
 H    4.2354653057   -0.3048681060    6.0068168171