14

 O    0.1307035008    0.0021766432    0.5576754511
 C    0.0701063841    1.1527450055    0.2264538345
 C    1.2772693842    1.9964881320   -0.1740059504
 C    1.6880152717    2.9476522857    0.9682490159
 O    2.5787839030    2.1234184123    1.7143680380
 C    3.2729477106    1.3639782877    0.7644303042
 O    2.4299893115    1.1911397965   -0.3590141275
 C    4.5229015054    2.0531109075    0.3326948876
 N    5.4960260206    2.5870999609    0.0146424026
 H   -0.8921739533    1.7159655040    0.2068528471
 H    1.0531667394    2.5363308265   -1.1012618532
 H    2.1976033662    3.8379218057    0.5789171023
 H    0.8722969499    3.2489425039    1.6276943555
 H    3.5208770060    0.3951358486    1.2082384922