19

 O    0.1148294412    1.3529201889   -0.3599029134
 C   -0.0461894174   -0.0524507227   -0.2953232436
 C   -1.4494271672   -0.4977934036   -0.0067514672
 C   -2.5408930154    0.2615284758    0.0909862726
 C   -3.7813110156   -0.5283641752    0.4246485707
 C   -3.3349564492   -2.0001545003    0.3048576571
 O   -3.8675260360   -2.5228187938   -0.9054333671
 C   -1.7661157877   -1.9586203685    0.2339092711
 O   -1.2440118879   -2.8287853454   -0.7645912658
 H   -0.1294260311    1.7104254870    0.5001869691
 H    0.2752783026   -0.4387406917   -1.2697967993
 H    0.6376971824   -0.5069703573    0.4430644930
 H   -2.5511118547    1.3377233469   -0.0406158524
 H   -4.1427536021   -0.3020986717    1.4358683725
 H   -4.6142802472   -0.3308411599   -0.2587677944
 H   -3.6766174669   -2.6034769564    1.1557476638
 H   -3.5331343091   -3.4238214324   -0.9861409615
 H   -1.3194568121   -2.3149607372    1.1706335475
 H   -1.6540116666   -2.5498687127   -1.5934851326