20

 C   -0.5414902165    1.3472664658    0.1682957875
 C    0.3860705751    0.1440833030   -0.0700650583
 C    0.9087851196   -0.4614103624    1.1985360991
 N    2.1898470012   -0.3271719713    1.5283609940
 N    2.3185064282   -0.9801029796    2.7171389017
 C    3.6000271286   -1.0530628974    3.3760855682
 C    1.1376297040   -1.4950968409    3.1460405905
 N    1.0691083498   -2.2584698157    4.3179881731
 C    0.1940305997   -1.1848468083    2.1841743696
 H   -0.0149222672    2.1415868441    0.7062175189
 H   -0.9015366188    1.7578866184   -0.7805987428
 H   -1.4146022647    1.0637808132    0.7649666499
 H   -0.1537000137   -0.6185876538   -0.6455226089
 H    1.2444592992    0.4520495694   -0.6749208722
 H    3.7209851991   -0.2672613187    4.1329109263
 H    3.7098548528   -2.0292348230    3.8565054914
 H    4.3735499497   -0.9280638309    2.6181822698
 H    1.4060284553   -1.7670065352    5.1384150566
 H    0.1254609829   -2.5771356098    4.4935450488
 H   -0.8533072045   -1.4424379570    2.1975312668