16

 N    0.0395063481    1.3454843148    0.0858734257
 C   -0.0566568196   -0.0204528315    0.0628571123
 N   -1.1941598185   -0.6036067571    0.0291521341
 C   -1.2214404133   -2.0582997241    0.0337370294
 C    0.1097442524   -2.6863203573   -0.4286986113
 C    1.2428325662   -1.9881698792    0.3058391963
 O    1.1832658117   -0.5694606940    0.0973506420
 C   -1.5831683377   -2.5616432107    1.3759916114
 N   -1.8423302092   -2.9686191620    2.4263709209
 H    0.9194818135    1.7357836433   -0.2098279402
 H   -0.7913638573    1.8322224277   -0.2085780885
 H   -2.0231931325   -2.3805305287   -0.6420068247
 H    0.1352580290   -3.7620031569   -0.2353226268
 H    0.2116683398   -2.5280321996   -1.5069767351
 H    1.1887183907   -2.1879045309    1.3830521920
 H    2.2250411568   -2.2967327737   -0.0572432376