16

 O    0.7889231082    1.1954723709    1.3252792729
 C    0.5456481096    1.7726937601    0.2991169957
 C    1.1981735855    1.4440518600   -1.0406168551
 N    1.2760906581    2.6185901444   -1.8843040156
 C    2.2752753817    3.5465751901   -1.5780918825
 C    3.0568184075    3.6097490021   -0.4577669703
 O    3.8672308532    4.7125814520   -0.5155674628
 C    3.6043578863    5.3364880310   -1.6846346768
 C    2.6404592548    4.6818161148   -2.3811657413
 H   -0.2062627406    2.5910462129    0.2365148500
 H    2.1680279867    0.9582839707   -0.8486881444
 H    0.5472034074    0.7074855173   -1.5283135129
 H    1.2168183872    2.4148989719   -2.8711346823
 H    3.1450632920    3.0042513213    0.4269003489
 H    4.1759981069    6.2285277153   -1.8821468350
 H    2.2277778854    4.9612477551   -3.3381275983