16

 O   -0.0159593767   -0.0973105185   -0.2811936832
 C   -0.0213563322    1.1112209393   -0.1434840537
 N   -1.2065159949    1.8268242543   -0.3793577536
 C   -1.6623938265    3.0481741787    0.1084820545
 N   -1.0443350499    4.1087816155    0.4219532999
 C    0.3508537913    4.2737035449    0.2061173331
 C    1.3621896855    4.1175655596    1.3122516676
 C    1.3955109422    3.1891673174    0.1104576055
 N    1.0644255329    1.8130677182    0.2986023478
 H   -1.9352098900    1.1717357894   -0.6262476461
 H   -2.7495731350    3.0529443003    0.2047947457
 H    0.5375391376    5.1213936005   -0.4497945615
 H    2.1360743737    4.8679381020    1.4283441885
 H    1.0014750099    3.6719639173    2.2324318168
 H    2.1839001644    3.3548382287   -0.6218151148
 H    1.8328427179    1.1920114525    0.5077419235