8

 C   -0.0187040036    1.5255820146    0.0104328082
 C    0.0021037439   -0.0038819102    0.0019988214
 H    0.9948727479    1.9397432357    0.0029412016
 H   -0.5420761069    1.9236106317   -0.8651173523
 H   -0.5252411248    1.9141730785    0.9000239916
 H    0.5254865372   -0.4019078419    0.8775439536
 H   -1.0114765071   -0.4180337979    0.0095084879
 H    0.5086261934   -0.3924704005   -0.8876011721