20

 C   -0.0460725632    1.5714006971   -0.0077958735
 C    0.0153610929    0.0351603743   -0.0086060138
 C    0.6747298265   -0.5144205369   -1.2844473606
 C    0.9842017342   -2.0095321405   -1.1570630040
 C    1.9668320692   -2.2718706067   -0.0087673212
 C    1.5887003254   -1.4886760017    1.2346419250
 C    0.7072814822   -0.4767425787    1.2271686037
 C    2.2206843733   -1.8762682932    2.4577982266
 N    2.7528165458   -2.2166482348    3.4291850447
 H    0.9602103630    2.0035115639   -0.0210942671
 H   -0.5818827221    1.9352760476   -0.8900840003
 H   -0.5628294216    1.9493076549    0.8801896669
 H   -1.0233730000   -0.3318115300    0.0283449549
 H    0.0246621313   -0.3251038828   -2.1453110218
 H    1.6074688189    0.0360445836   -1.4682833550
 H    0.0527291468   -2.5585871595   -0.9696345270
 H    1.3971610245   -2.4001475087   -2.0924198284
 H    2.0039035523   -3.3394673940    0.2336357610
 H    2.9882887667   -1.9980984147   -0.3060292452
 H    0.4721279039    0.0218060110    2.1644843651