19

 C   -0.1655857345    1.4489100740    0.7230111788
 C    0.0900367161    0.0237724664    0.2836138923
 C    0.2832226185   -0.3831296970   -1.1445837765
 C    0.2308393519    0.5853742287   -2.3062439326
 N    1.3982151317   -0.4433967378   -0.1872228876
 C    2.5214330195    0.4700884688   -0.2956239872
 C    3.7135753568   -0.2585483175   -0.9007331825
 O    4.5861421651    0.2785845152   -1.5311721284
 H    0.2402703500    1.6198683204    1.7263792816
 H    0.2731081459    2.1940665367    0.0569753313
 H   -1.2434659338    1.6367146724    0.7710110022
 H   -0.3931609724   -0.7055141924    0.9348172414
 H   -0.0689225740   -1.3780942704   -1.4172814542
 H    0.4493574292    1.6179555653   -2.0286951377
 H    0.9393261051    0.2930322314   -3.0894512844
 H   -0.7709466270    0.5701292434   -2.7480558697
 H    2.3619812095    1.3936113136   -0.8671008959
 H    2.8237628008    0.7693131047    0.7192551010
 H    3.7142776816   -1.3519100656   -0.6947366322