17

 O    0.3623525006    1.3119570956   -0.3201391186
 C    0.0424601473   -0.0564348070   -0.1293820201
 C    0.5065159341   -0.8786317305   -1.2658624572
 N    0.9105367528   -1.4891462855   -2.1596653993
 C    0.6448907594   -0.5729074961    1.1799672570
 C    0.0474729170   -0.2222289256    2.5635331003
 C   -1.0482385903   -1.2549091783    2.2243584876
 N    0.2229540541   -1.9616722818    1.7044747521
 C    0.8428009419   -1.4634942454    3.0282265787
 H    1.3152548441    1.3863303808   -0.4496800215
 H   -1.0490459565   -0.0929993430   -0.1153890772
 H    1.7364500127   -0.4940469527    1.1009598510
 H   -0.0451971901    0.7591455498    3.0384850525
 H   -1.5176891627   -1.7844047721    3.0566928105
 H   -1.7901774038   -1.0292014644    1.4576024905
 H    1.9348970761   -1.4193609324    3.0094875654
 H    0.4779424532   -2.0075114813    3.9021955882