19

 C   -0.1091072034    1.4255938621    0.1315391487
 N   -0.0407218249   -0.0234169790    0.1001763767
 C   -0.0193198640   -0.8165351451   -1.0027820111
 N    0.0599673442   -2.0936577877   -0.7044179326
 C    0.0910317485   -2.1453504564    0.6714701035
 C    0.1852575170   -3.4558085113    1.3859289183
 C    0.0327705430   -0.8710724983    1.1977780615
 C   -0.0038855061   -0.3599225513    2.5958499556
 O   -1.2287488216    0.3077029347    2.9226428597
 H    0.8620943131    1.8642202257    0.3867721614
 H   -0.4055730685    1.7891748591   -0.8542627672
 H   -0.8436490970    1.7414129595    0.8748209315
 H   -0.0728589718   -0.4013439967   -1.9995107743
 H    1.1323640999   -3.9587370458    1.1611716241
 H    0.1186384318   -3.3345506985    2.4704397509
 H   -0.6172281084   -4.1290027404    1.0668247861
 H    0.1913918102   -1.1925116648    3.2848792915
 H    0.7750234624    0.3906153620    2.7742528213
 H   -1.9445960544   -0.2994145579    2.7044795544