19

 O   -0.0674716992    1.4023355909   -0.0350362968
 C    0.0091840494    0.0090238355   -0.0647066468
 C    0.9180336681   -0.6635324951   -1.0457122531
 C    0.3932885078   -1.8170350536   -1.4610128781
 C   -0.9070625911   -2.1288628875   -0.7316232049
 C   -0.5922352147   -3.0737043897    0.4625434988
 C    0.1662996861   -2.1686755905    1.4683689664
 C   -0.3832901432   -0.7645863234    1.2045380023
 C   -1.2577543986   -0.7964167076   -0.0317246285
 H    0.6374892176    1.7290208865    0.5339051727
 H    1.8749282663   -0.2457330504   -1.3373058478
 H    0.8733211216   -2.5313837165   -2.1209084970
 H   -1.6914618074   -2.5259137513   -1.3815412584
 H   -1.5337833728   -3.4185502561    0.9052672606
 H   -0.0198027774   -3.9591667509    0.1672793035
 H   -0.0133560106   -2.4719568496    2.5035647980
 H    1.2469713444   -2.2225146111    1.3006651999
 H   -0.6790975804   -0.1400500206    2.0412118322
 H   -2.2364633157   -0.3370548593   -0.0850099829