18

 C   -0.1163726348    1.5463782463    0.1027115187
 C    0.0166652446    0.0347184078   -0.0043005731
 C    0.7547834474   -0.5907526535    1.1748934580
 O   -1.3446929595   -0.4721372876   -0.0698945355
 C   -1.5335396621   -1.6739463318   -0.6136848009
 N   -0.5653308227   -2.4286432914   -1.0880371161
 O   -1.2062917152   -3.5755901893   -1.5721332924
 C   -2.5246536053   -3.4565110083   -1.3623776315
 C   -2.8178717834   -2.2819611491   -0.7579886553
 H    0.8741856560    2.0091351625    0.1342053820
 H   -0.6613935761    1.9501244228   -0.7544623516
 H   -0.6545957059    1.8212984678    1.0152950720
 H    0.5156462289   -0.2389407002   -0.9399501480
 H    0.2446620272   -0.3540064484    2.1140648095
 H    0.8145188491   -1.6750052056    1.0634249467
 H    1.7741814342   -0.1956777188    1.2271809946
 H   -3.1284708193   -4.2860617289   -1.6976608764
 H   -3.7737233430   -1.8884011643   -0.4589612208