18

 C   -0.1243752235    1.4681476614    0.4027874711
 N   -0.2469333904    0.0256556035    0.4309698252
 C   -1.1550797602   -0.6420819286   -0.3137439667
 O   -1.9642254252   -0.1315812283   -1.0656992280
 C   -1.1141382815   -2.1914380384   -0.1259471772
 C   -1.2239938505   -2.8621979882   -1.5028252024
 O    0.1311125245   -2.5326136444    0.5055389854
 C   -2.2317167547   -2.5745365074    0.7417772396
 C   -3.1171295012   -2.9304152565    1.4727380949
 H    0.8571780721    1.7779132141    0.0265895906
 H   -0.8981799930    1.8518156214   -0.2634150920
 H   -0.2663154384    1.8959399614    1.4012895194
 H    0.3879563271   -0.5371390317    0.9748456344
 H   -0.3322781422   -2.6240811629   -2.0886540303
 H   -1.2974009539   -3.9467865480   -1.3886584571
 H   -2.1054155235   -2.4880257944   -2.0246222706
 H   -0.0068363246   -3.3448093824    1.0032988275
 H   -3.9118369509   -3.2270516607    2.1122772861