16

 C    0.0752544662    0.9543768860    0.8389280392
 O   -0.5415670165    0.0859594321   -0.0955610721
 C    0.2978183894   -0.4255560544   -1.1009547514
 C    1.1437867762   -1.6493878946   -0.6824657779
 C    2.3508315354   -1.3283786348    0.0661964520
 C    3.3578904177   -1.0603119177    0.6660080653
 C   -0.6272755692   -0.7815500264   -2.2659615374
 O   -0.3742319172   -1.5982159045   -3.1111247695
 H    0.8006088464    0.4314776489    1.4716850824
 H    0.5889336311    1.7844138093    0.3312775617
 H   -0.7240621799    1.3601502127    1.4634463873
 H    0.9752993650    0.3627691342   -1.4776624626
 H    0.4982025618   -2.3183926185   -0.1010643359
 H    1.4046541958   -2.1838613713   -1.6036086113
 H    4.2484664215   -0.8318805681    1.1972111907
 H   -1.5682587937   -0.1914186228   -2.2641378505