20

 C   -0.9212911625    1.4941935354    0.5664822766
 N   -1.0173750724    0.0645450209    0.3626187337
 C   -0.0598137807   -0.6544399476   -0.2710796702
 O    0.9509494410   -0.1956213512   -0.7793447535
 C   -0.3414718662   -2.1517726028   -0.3261424194
 O   -1.5828868293   -2.5496697965    0.3024169574
 C   -2.0907533343   -3.0994072355   -0.9376047756
 C   -0.7962233873   -2.7317441852   -1.6981235153
 C   -0.9166652158   -1.7837974706   -2.8818832119
 H   -0.8472992292    1.7439282052    1.6311414680
 H   -0.0187628469    1.8372332139    0.0580713795
 H   -1.7891604365    2.0147401595    0.1469641366
 H   -1.7795484703   -0.4680872212    0.7554708761
 H    0.5191682540   -2.6633489406    0.1193533624
 H   -2.3111103449   -4.1682004690   -0.8411835413
 H   -2.9944640535   -2.5750682922   -1.2731375645
 H   -0.2094496797   -3.6099808400   -1.9763496346
 H   -1.5431648512   -0.9198994777   -2.6364698579
 H    0.0651792531   -1.4065797587   -3.1786950995
 H   -1.3675967375   -2.2950877362   -3.7388290967