15

 N   -0.0024455719    1.3287032499    0.0075927348
 C   -0.0311541253   -0.0053653488    0.0011791022
 N   -1.2137549096   -0.5739690865    0.0050789424
 C   -1.4492353207   -1.9002961901   -0.0005423419
 C   -0.5973444470   -2.9726128973   -0.0112066021
 C    0.8220056381   -2.9313975824   -0.0192785974
 N    1.6690406846   -1.9454973960   -0.0189831209
 C    1.3722492326   -0.6006574573   -0.0102791529
 N    2.3068956521    0.2840179102   -0.0099064419
 H    0.9089421145    1.7687004065    0.0043317227
 H   -0.8716152835    1.8361237235    0.0152926314
 H   -2.5144676217   -2.1322486825    0.0044734928
 H   -1.0473319448   -3.9602668882   -0.0137976206
 H    1.3016259480   -3.9139610743   -0.0272674218
 H    3.2090674746   -0.1934498268   -0.0172552766