17

 N   -0.0364516114    1.4855472695   -0.2250768214
 C   -0.0160767784    0.0402233508   -0.0454031271
 C    0.6594586737   -0.5274351238    1.1920099561
 C   -0.0186633921   -1.5382443367    1.7283706565
 C   -1.2759578187   -1.8606945298    0.9502421888
 O   -2.3968019268   -2.2223262654    1.7185153322
 C   -1.4534144163   -0.5750619741    0.0579836175
 C   -2.3634782541    0.3454823085    0.7371523614
 N   -3.0720979667    1.0429141753    1.3279346892
 H   -0.3473651433    1.9471858244    0.6251225077
 H    0.8957210397    1.8290530362   -0.4313752964
 H    0.4563892002   -0.3787274356   -0.9440584723
 H    1.6132570256   -0.1439247535    1.5392032979
 H    0.2704045079   -2.1299981044    2.5894069167
 H   -1.1070637888   -2.7201145171    0.2896882500
 H   -2.6295134944   -1.4787262128    2.2890431940
 H   -1.8704211461   -0.8064967316   -0.9246832908