14

 O    0.2414738671    1.3081069841   -0.4508814044
 C    0.0196215905   -0.0005800222   -0.0815608644
 C   -0.4900423923   -1.0159161720   -1.1081623650
 C   -1.3269379758   -0.6604561951    0.0781265028
 O   -1.2683949435   -1.6076081775    1.1450654015
 C   -0.0214615820   -1.6206821129    1.7082714171
 N    0.3716406591   -2.3787270088    2.6339082787
 C    0.8158604661   -0.5333137974    1.0544419360
 O    1.8576833656   -0.0708047261    1.4445455857
 H    1.0749626400    1.5627235253   -0.0275028747
 H   -0.7613932415   -0.5558525281   -2.0523731385
 H   -0.0583429201   -2.0093975150   -1.1711609165
 H   -2.2768213552   -0.1468412441    0.0104143398
 H   -0.3706778881   -3.0184431002    2.9264243118