22

 C   -0.0478546719    1.5068289126    0.0261179926
 C    0.0000906384   -0.0192437261   -0.0153758403
 C   -1.4156792122   -0.6612741033    0.0179747851
 C   -1.2610800420   -2.0521819062    0.6812416050
 C    0.0504538280   -1.9741697893    1.4525819251
 C    0.7209460252   -0.6743798444    1.1860554990
 N    1.3403802870   -1.9243059871    0.7264770821
 C    1.2836030851   -1.9639266498   -0.7509461540
 C    0.8230872788   -0.5655902681   -1.2101419994
 H    0.9598415785    1.9360867939    0.0340173037
 H   -0.5723875836    1.9095864487   -0.8474175467
 H   -0.5732496842    1.8631267234    0.9188773988
 H   -2.0684218413   -0.0386263265    0.6402169136
 H   -1.8728408999   -0.7070722976   -0.9763765085
 H   -2.0856303955   -2.2642885835    1.3682818707
 H   -1.2565194860   -2.8673744898   -0.0517039114
 H    0.1185948914   -2.4825765883    2.4108810487
 H    1.2493302612   -0.0762133013    1.9237235950
 H    2.2822946669   -2.2096519411   -1.1236304518
 H    0.6115681496   -2.7573353749   -1.0969697940
 H    0.2543438527   -0.5828579386   -2.1453530598
 H    1.6975934235    0.0752180976   -1.3715792036