17

 C   -0.0000710532    1.5870560519   -0.0583743697
 C    0.0354790731    0.0707397518   -0.0316354812
 C   -1.0814815731   -0.6047416544   -0.6334843757
 C   -2.0087997014   -1.1870242854   -1.1330341833
 C    1.3711909047   -0.6873153479   -0.1517112609
 O    2.5374215685    0.0760719429    0.0284564960
 C    2.7370378694    0.1361190280    1.4318467995
 O    1.4520849216    0.0861631506    2.0313290409
 C    0.6611859201   -0.6807956323    1.1586427973
 H   -0.0413263953    1.9461537129   -1.0904622173
 H   -0.8857135752    1.9539405093    0.4678411007
 H    0.8849686990    2.0067263824    0.4190253126
 H   -2.8323161442   -1.6893153077   -1.5767400437
 H    1.4632188209   -1.5412677614   -0.8129081300
 H    3.3508301211   -0.7158837555    1.7687065911
 H    3.2168313583    1.0844497197    1.6871160172
 H    0.1540287857   -1.5292730448    1.6033552364