15

 O   -0.0229627552    1.4500893448    0.0088740649
 C    0.0302948361    0.0313684450    0.0018391207
 C   -1.3695951239   -0.4874946880    0.0116118924
 C   -2.5347769877    0.2426340055    0.0230355801
 N   -3.5496791286   -0.6599315776    0.0284644207
 N   -3.1389645804   -1.9339081551    0.0213008431
 C   -1.8006956952   -1.8437208445    0.0111973905
 C   -0.9707236944   -2.9925164701    0.0013600911
 C   -0.2169510726   -3.9312179241   -0.0074252210
 H    0.8789025093    1.7824769682    0.0030250130
 H    0.5611350992   -0.3456922009   -0.8874964522
 H    0.5764846571   -0.3540151511    0.8781936245
 H   -2.7016288021    1.3064587705    0.0275824299
 H   -4.5379950131   -0.4725048860    0.0369736853
 H    0.4324252013   -4.7708275967   -0.0155824329