18

 C   -0.1635425794    1.4363916232   -0.2949759557
 C    0.2104740841   -0.0341972016   -0.2471446332
 N    1.4357822571   -0.4570998504   -1.0166312558
 C    1.9041076902   -1.2524542135    0.1283407481
 C    2.2915403431   -0.3036181164    1.2092100135
 N    2.8275558045    1.0089371710    0.9737534378
 C    0.8042212073   -0.6418512861    1.0429448434
 C    0.0339674170   -1.2199566861    2.0872813138
 N   -0.5955291031   -1.6940051000    2.9371983493
 H   -0.4189498862    1.7306511420   -1.3184820837
 H   -1.0411827824    1.6155792156    0.3351177227
 H    0.6507867809    2.0671092825    0.0646869270
 H   -0.6458561846   -0.6506582628   -0.5439510030
 H    1.1953278719   -1.0310556419   -1.8159450081
 H    2.2305818360   -2.2820793933    0.0348953132
 H    2.6895963239   -0.7839774062    2.0980358356
 H    3.7941026749    1.0393471837    1.2803323845
 H    2.8204519646    1.1829611001   -0.0292633996