16

 O    0.0086830744    1.4990115594    0.0324526177
 C    0.1016387660    0.0901560762    0.1338934212
 C   -1.2580484832   -0.5470609399    0.0389969101
 C   -2.3191579575   -0.4095540128    1.1505752425
 N   -2.7594117106   -1.8172684463    0.9116152747
 C   -1.6401670110   -2.0447669896   -0.0417669279
 C   -2.1062095412   -1.6889380421   -1.4626323127
 O   -2.5543594860   -2.2215806318   -2.4217304990
 O   -1.8351615217   -0.3385922336   -1.2996081611
 H   -0.3918842168    1.6945341950   -0.8228492378
 H    0.7586963926   -0.3361640236   -0.6397798605
 H    0.5475199029   -0.1251892307    1.1102671004
 H   -1.8632439216   -0.2412590035    2.1327222951
 H   -3.0984790781    0.3374169814    0.9800958586
 H   -2.7048744970   -2.4069959012    1.7322416765
 H   -0.9871879312   -2.9044699370    0.1066251722