23

 C    0.0156556637    1.5891832013    0.0572330577
 C   -0.0049795328    0.0560980682    0.0541220278
 C   -1.4116036513   -0.5551643735   -0.0333718650
 O   -2.1914080961   -0.1360390899    1.0893966650
 C   -2.1583094410   -0.3218220705   -1.3994274201
 C   -2.4450250368   -1.7868494842   -1.7865427457
 C   -2.8965439415   -2.4056594361   -0.4322774130
 C   -1.4228151196   -2.0996365160   -0.0345758053
 C   -1.0683713930   -2.4548991265   -1.5092443505
 H    1.0427517944    1.9639850167    0.0931999884
 H   -0.4555221189    2.0051018845   -0.8401930902
 H   -0.5023777839    1.9967299417    0.9324628231
 H    0.6036282771   -0.3100530340   -0.7794414667
 H    0.4641324854   -0.3122713100    0.9745451894
 H   -2.3207764213    0.8150568592    1.0241634507
 H   -3.0712584309    0.2627889551   -1.2515395734
 H   -1.5385160409    0.1882103055   -2.1439203131
 H   -2.9937436400   -1.9590193734   -2.7134173112
 H   -3.6847782757   -1.9085097406    0.1341678629
 H   -3.0901373739   -3.4780397671   -0.5096093535
 H   -0.9372498403   -2.5798353698    0.8156648982
 H   -1.0808067875   -3.5335549634   -1.6823805040
 H   -0.1751250952   -2.0184509772   -1.9650815614