18

 C   -0.0053365576    1.3887462194    0.0504234905
 N   -0.0159785167   -0.0497621136    0.0301883131
 C    0.0543382029   -0.9481395791   -1.0024070135
 O    0.1418417535   -0.8213310945   -2.1982829407
 C    0.0219637948   -2.1434154606   -0.0079371328
 O    1.1488747303   -2.9812151549   -0.0099696002
 C    0.0377520579   -1.0576025529    1.0798726180
 C    0.8756960994   -1.0284004776    2.3121868533
 C   -0.6465884855   -1.0218211498    2.4064917239
 H    0.8910931301    1.7786988448    0.5480748264
 H   -0.0071080279    1.7326836021   -0.9864420200
 H   -0.8904352951    1.7902868318    0.5578182382
 H   -0.9186349862   -2.7108260872   -0.0468483985
 H    1.3021189143   -3.2550825037   -0.9214452990
 H    1.4122878916   -1.9358591254    2.5659697006
 H    1.3962529719   -0.1104760171    2.5648876137
 H   -1.1223805358   -0.0966732191    2.7159966220
 H   -1.1520202617   -1.9189217728    2.7488504052