21

 C    0.0598740840    1.5355535856    0.0770445853
 C    1.5338552003    1.9889167130   -0.0270729146
 C    2.5304052608    1.5418087112    1.0771488820
 C    2.4203423507    2.1829133945    2.4408434193
 C    1.6018644859    1.7551710966    3.4206347354
 C    0.6686516381    0.7321340186    3.1193001791
 C   -0.0496033127   -0.0248848925    2.5081329090
 C   -0.8092305610   -0.5575890399    1.3837867180
 C   -0.1838258451    0.0006026527    0.0711464385
 H   -0.3929512920    1.9779877402    0.9687771689
 H   -0.4636057476    1.9784858863   -0.7783477875
 H    1.9362038321    1.6194758048   -0.9802004998
 H    1.5510398479    3.0834749718   -0.0982970963
 H    2.4531327647    0.4547679355    1.1973477290
 H    3.5379185524    1.7414648624    0.6936139585
 H    3.0840451281    3.0186744380    2.6520108042
 H    1.6115708352    2.2224749371    4.4004978576
 H   -0.8171437577   -1.6536805897    1.3583913387
 H   -1.8591764647   -0.2452216834    1.4613074231
 H   -0.8423629859   -0.2761915186   -0.7596214513
 H    0.7614672065   -0.5259119643   -0.1022563270