15

 O    0.6132864747    0.1312050066    0.2741181913
 C    0.6095910701    1.3157796156    0.4010939106
 O    1.0280610059    2.1465839121   -0.5919824481
 C    0.9769879091    3.5210097632   -0.3152411921
 C    1.8473711097    4.1028337513    0.7945460797
 O    2.8408460884    3.2617441650    1.3062018520
 C    3.7144765838    2.8940472000    0.2380568401
 O    3.4105870153    3.7095708564   -0.8826524803
 C    2.2007686494    4.3597920699   -0.6367966896
 H    0.2762219099    1.8627282913    1.3002686205
 H    0.0093973499    3.9856241583   -0.4926974494
 H    1.4767577754    4.8238878011    1.5125958072
 H    4.7528398495    3.0681802722    0.5444941706
 H    3.5569086372    1.8394948919   -0.0169185215
 H    2.1087673818    5.3043156150   -1.1577754409