27

 C   -0.0730876037    1.5163901347   -0.1344182267
 C    0.0243368439   -0.0026241408    0.0627960483
 C    0.7969844739   -0.3286842350    1.3499027134
 C   -1.3786561354   -0.6336267432    0.0379496430
 C   -1.3934564918   -2.1587416774    0.0322727275
 O   -2.7336934679   -2.5793350293   -0.1231763734
 C   -2.9210783011   -3.9803006262   -0.2830854072
 C   -2.7619041213   -4.7369866127    1.0400383967
 C   -4.3128765595   -4.1626727044   -0.8797930265
 H    0.9199618597    1.9771948406   -0.1614930116
 H   -0.5861191871    1.7657432904   -1.0690960825
 H   -0.6323012756    1.9819162946    0.6860694216
 H    0.5921907551   -0.4138612799   -0.7849620639
 H    0.2512739134    0.0289673905    2.2316166262
 H    0.9613348727   -1.4031327789    1.4737377099
 H    1.7790055555    0.1560653437    1.3494297514
 H   -1.9603653994   -0.2780594469    0.8985817621
 H   -1.9143180523   -0.2962842159   -0.8573799679
 H   -0.7764314301   -2.5420140477   -0.8001751415
 H   -0.9608182916   -2.5558918639    0.9626173176
 H   -2.1716505876   -4.3585797293   -1.0001839448
 H   -1.7594761211   -4.6168002633    1.4604051133
 H   -3.4879713205   -4.3711023939    1.7734141053
 H   -2.9312154770   -5.8082791067    0.8907475979
 H   -4.3980452904   -3.6165112192   -1.8228510533
 H   -4.5204305694   -5.2206262943   -1.0663322880
 H   -5.0724854813   -3.7769760654   -0.1922314568