18

 C   -0.4399033604    0.8931298365    0.9137234180
 C    0.2530422449   -0.3201818076    0.2793182274
 C    0.6733130817   -0.0915378625   -1.1612670766
 C    0.5363591678   -1.2082482281   -2.1547717060
 N   -0.3486163929   -0.0504153308   -2.2331658766
 C    1.8203183980    0.8649456986   -1.3513407976
 O    2.4909700720    1.2540864719   -0.4164084922
 C    2.1177916634    1.2865552760   -2.7108762020
 C    2.4197784627    1.6525190316   -3.8167649056
 H    0.2351939221    1.7513065581    0.9488816304
 H   -1.3333118418    1.1849764726    0.3508732710
 H   -0.7510525981    0.6651726133    1.9373695885
 H    1.1414150117   -0.5790820375    0.8637467500
 H   -0.4146901653   -1.1898474711    0.3094043881
 H    1.2435190331   -1.2965620770   -2.9740668510
 H    0.1556694921   -2.1504502455   -1.7687134052
 H   -1.2554941830   -0.2676100898   -1.8251668643
 H    2.6784178221    1.9819472913   -4.7936352763