18

 N   -0.0333369261    0.6400783961    1.0656944464
 C    0.0107876798   -0.0813079452    0.0250044105
 C   -1.3330781056   -0.5616610301   -0.5338033581
 O   -1.3480804101   -1.7434233669   -1.3157668573
 C   -0.6414672675   -2.8021927652   -0.7445912203
 C    0.0603618074   -3.6927846450   -1.7170339878
 C    0.8602440838   -2.7082155305   -0.8844568009
 C    1.3342831918   -1.4261229914   -1.5188587795
 O    1.1862603445   -0.3083028136   -0.6228501899
 H    0.9055192214    0.9674648531    1.3030482755
 H   -2.0017295450   -0.6441050895    0.3311062339
 H   -1.7289972925    0.2235282471   -1.1868025294
 H   -1.0774410920   -3.2226814713    0.1607792450
 H    0.1448396069   -4.7466954825   -1.4796905311
 H   -0.0787854812   -3.4706318395   -2.7693975629
 H    1.4786002967   -3.1007555240   -0.0837721485
 H    2.4040158729   -1.4528884993   -1.7393881322
 H    0.7953123147   -1.2313735624   -2.4500427033