21

 C   -0.1523263233    1.5442688485    0.9466576180
 C   -0.0621605053    0.0716880342    0.5592822404
 O   -1.3838842162   -0.4374076374    0.4675094413
 C    0.9694219088   -0.4111592879   -0.5256465988
 C    2.0763971782   -0.2085407864    0.5503669693
 C    0.9007010465   -0.9054026672    1.2974075248
 C    0.8275942751   -1.8585241837    0.0544431895
 C   -0.3455334071   -2.7946466656   -0.2465100783
 O    0.2313853086   -4.0517719927   -0.6050744528
 H    0.8122246620    2.0348054230    1.0776706230
 H   -0.6937007121    2.1000188594    0.1693806569
 H   -0.7197034131    1.6433674694    1.8773065492
 H   -1.8991703171    0.1680295004   -0.0752259483
 H    1.0107102080   -0.1225107931   -1.5786703401
 H    2.9723507023   -0.8180239745    0.4205344990
 H    2.3383860664    0.8083271256    0.8381946860
 H    0.8593751136   -1.1893780777    2.3509421306
 H    1.7381574329   -2.4512988726   -0.0706249838
 H   -0.9997207140   -2.8978816559    0.6281239238
 H   -0.9627445321   -2.4012282299   -1.0646039643
 H   -0.4886596520   -4.6651397859   -0.7784204153