14

 O   -0.0172549360    0.0495163951   -0.3170650386
 C   -0.0169747676    1.2245189208   -0.0720964567
 C   -1.2441417037    2.1019573079    0.1928389590
 O   -0.7434157436    3.3593099027    0.6101833533
 C    0.5500433260    3.5498903735    0.0091379510
 C    1.1971795394    2.1517974003    0.0348345668
 C    0.4411712070    4.0898473266   -1.3497648400
 C    0.3434147490    4.5154887315   -2.4693981309
 H   -1.8381901865    2.1761303835   -0.7311591358
 H   -1.8766703002    1.6859174694    0.9815880617
 H    1.0747969229    4.2655722676    0.6474412247
 H    1.6827054024    1.9754202597    1.0009285963
 H    1.9185639173    1.9630802592   -0.7600077064
 H    0.2583161336    4.9029611722   -3.4549495642