23

 C   -0.2017801610    1.5952177109    0.0625102228
 C   -0.0024343616    0.0774901412   -0.0017760629
 C    0.8203773132   -0.4930054925    1.1588342008
 C    0.7038742619   -2.0344509550    1.2750870734
 C    1.5221345339   -2.5978363365    2.4435685661
 C    2.9993604471   -2.2016407790    2.3343948438
 C    3.1597347660   -0.6716776651    2.2147281454
 C    2.3049653738   -0.1275982239    1.0781360806
 O    2.7791862257    0.5072841694    0.1626538880
 H    0.7573213870    2.1156663303    0.0150071338
 H   -0.8166269719    1.9433322842   -0.7733585467
 H   -0.7081835449    1.8895332827    0.9893804860
 H   -0.9805475711   -0.4196694475   -0.0079150836
 H    0.4918137860   -0.1853454746   -0.9437599561
 H    0.4493016168   -0.0732225099    2.1077756708
 H   -0.3529550987   -2.3030737948    1.3825615344
 H    1.0451612783   -2.4875119857    0.3340393281
 H    1.1117834982   -2.2198885202    3.3901801759
 H    1.4263265303   -3.6887848171    2.4766115294
 H    3.5647944765   -2.5670258593    3.1981489956
 H    3.4399750379   -2.6761957170    1.4480492175
 H    2.8275461993   -0.2024204144    3.1511787238
 H    4.1983213973   -0.3816226764    2.0392336830