16

 C   -0.0306931579    1.4870934518   -0.0033418793
 C   -0.0321158184   -0.0153090281   -0.0254652857
 N    0.8909152677   -0.6744008052   -0.9130511567
 C    0.5389699644   -1.9920336174   -1.1475661141
 O    1.1426244392   -2.8059943442   -1.8037453562
 C   -0.7028784669   -2.1980408772   -0.2635500221
 O   -0.1210728320   -2.1802333934    1.0920978738
 C   -0.4825986083   -0.8134501308    1.2154819549
 C   -1.3177296020   -0.8033285315   -0.0407227774
 H    0.9292504883    1.8798148642    0.3496391912
 H   -0.2213411200    1.8925652739   -1.0023318953
 H   -0.8074749754    1.8601280764    0.6709260665
 H    1.8586853753   -0.3997634852   -0.9910163340
 H   -1.3016759218   -3.0856681538   -0.4509160651
 H   -0.6125921907   -0.4063203227    2.2119991457
 H   -2.3043137816   -0.4374230068   -0.2922686362