19

 C   -0.0537469790    1.6120437113   -0.0921904864
 C    0.0211845395    0.0887632102   -0.0136034791
 N    0.7899966467   -0.5131989358   -1.0902912529
 C    1.6609012533   -1.5081520246   -0.6977088881
 O    2.4233852120   -2.1218248839   -1.4086259861
 N    1.5331453990   -1.6570030844    0.7026386521
 C    2.7351264815   -1.2581652582    1.4948034036
 C    2.0815979034    0.1249162235    1.7783781595
 C    0.7677800244   -0.4880214610    1.2142782306
 H    0.9435258248    2.0594567208   -0.1113261038
 H   -0.5829354224    1.9271515857   -0.9973232623
 H   -0.6015137413    2.0127422726    0.7670545181
 H   -1.0058290298   -0.3073982170   -0.0026411044
 H    0.5599482490   -0.4072515247   -2.0642349845
 H    2.8508448591   -1.8866246939    2.3817202269
 H    3.6598176550   -1.2776194386    0.9142547925
 H    2.0570237050    0.4668901442    2.8148941689
 H    2.4961611358    0.9166886289    1.1505010372
 H    0.0655629739   -0.7656635853    2.0051904782