23

 C   -1.3538193915   -0.4174627679   -0.4370141500
 C    0.0972948036   -0.0563021139   -0.0935740616
 C    0.5281805806   -0.4450685814    1.3138277783
 C    1.9681266197   -0.8617052887    1.5111949587
 C    0.8695782490   -1.8974062329    1.5726296186
 C    0.5206244278   -2.5614093489    2.8926404069
 C    0.2086764486   -1.5849049739    3.9935378878
 C   -0.0668741126   -0.2978706250    3.7908835231
 C   -0.1161061203    0.3589335917    2.4382956487
 H   -2.0697418795    0.0962381386    0.2125037800
 H   -1.5911065563   -0.1389833536   -1.4686457630
 H   -1.5255011814   -1.4939207266   -0.3316371195
 H    0.7635213366   -0.5488057538   -0.8125352770
 H    0.2495640343    1.0233650537   -0.2318168818
 H    2.6265295066   -0.8589695552    0.6484878100
 H    2.4500795604   -0.5881398627    2.4446973596
 H    0.8000496568   -2.5580293224    0.7117898431
 H   -0.3469376260   -3.2231100263    2.7486030850
 H    1.3387732875   -3.2251734593    3.2072232587
 H    0.1991993990   -1.9816346109    5.0059222738
 H   -0.2994675603    0.3396028440    4.6408748567
 H    0.3532318153    1.3525023397    2.4915995816
 H   -1.1695135080    0.5566331557    2.1913106423