15

 O   -0.1461195600    1.4479874441   -0.0188370871
 C   -0.0250853191    0.0808859142    0.0102370143
 C   -1.2205143813   -0.8924312685    0.0927256902
 C   -0.4207475211   -1.8545993277   -0.7023423629
 C    0.6924123493   -0.8548266922   -1.0690932950
 C    1.8393571934   -1.1297455608   -0.0651870997
 C    0.7710904209   -0.8437215740    1.0016925947
 N   -0.3392773973   -1.8721069111    0.8009635836
 H    0.7252463665    1.8418267951   -0.1419303558
 H   -2.2797664740   -0.7844831269    0.2899744848
 H   -0.7163306212   -2.7691886973   -1.2017861512
 H    0.8420430939   -0.5802082926   -2.1116898461
 H    2.3146455063   -2.1138940632   -0.0696131983
 H    2.6039680214   -0.3457976084   -0.0895928121
 H    0.9845420025   -0.6479727206    2.0516604006