14

 C   -0.0327189935    1.4514429890    0.0156986898
 N   -0.0076501822   -0.0062823157    0.0577189639
 N   -0.0417676249   -0.6291694214   -1.1311361567
 N   -0.0254368076   -1.8880016022   -1.2369683525
 C    0.0309784482   -2.7079920807   -0.0728764280
 O    0.0479385852   -3.9090768515   -0.1370185491
 N    0.0651986843   -2.0314698661    1.1421477721
 C    0.0487274941   -0.6567827465    1.2954268029
 N    0.0772749254    0.0302426096    2.3638220752
 H    0.8643480225    1.8545661257    0.4900133044
 H   -0.0759246427    1.7347933749   -1.0346750161
 H   -0.9050579613    1.8260516213    0.5550682044
 H    0.1052364722   -2.6097291602    1.9702951443
 H    0.1175493605   -0.5561109562    3.1948632654