20

 C   -0.9197030294    0.9038715530    0.3391622950
 C    0.1403513223   -0.1302656626    0.0247022858
 C    1.4430351004    0.2568919486   -0.6265087051
 C    1.4369761575   -0.2508783249    0.8009917755
 C    1.7736089403    0.6582596414    1.9377233078
 C    1.9375377493    0.1108806829    3.3315505921
 N    3.0809606124    0.5720161544    2.5795082776
 C    4.1374011543   -0.2317452891    2.1942225985
 O    4.6422360017   -1.0883159331    2.8796904880
 H   -0.4860650484    1.8770798461    0.5868246087
 H   -1.5750879720    1.0530964176   -0.5255654523
 H   -1.5466515078    0.5932860061    1.1820933830
 H   -0.2687053076   -1.0861799442   -0.2923382279
 H    1.8625085027   -0.3767586266   -1.4000000480
 H    1.6272896018    1.3172837989   -0.7728925504
 H    1.8012801749   -1.2652651121    0.9459369862
 H    1.4069006031    1.6782805982    1.8462205970
 H    1.6535444691    0.7132636907    4.1900321637
 H    1.8444073470   -0.9638342400    3.4687872634
 H    4.5226898684    0.0525797247    1.1965611214