16

 C   -0.0001297767    1.5957922703    0.0616323031
 C    0.0156510222    0.0567029197   -0.0831855621
 C    0.6187927966   -0.6540393511    1.1610656381
 C    0.0152760527   -0.2238053484    2.4202069870
 N   -0.4409036509    0.1410355035    3.4170078297
 C   -1.4293789771   -0.4334503715   -0.3198347932
 O   -1.9653273258   -1.2894572642    0.3264987008
 C    0.7667680327   -0.3341858166   -1.2764145127
 C    1.3510985733   -0.6715316799   -2.2713007594
 H    1.0209887178    1.9762101667    0.1449606631
 H   -0.4606324672    2.0550998769   -0.8169613164
 H   -0.5603855174    1.8908554884    0.9525921275
 H    0.4837222903   -1.7335473944    1.0560539665
 H    1.6932674425   -0.4523017380    1.2004867589
 H   -1.9354390463    0.0767453249   -1.1666938407
 H    1.8780732433   -0.9629152563   -3.1468905102