18

 C   -0.2041097705    1.3726234723    0.1841206126
 N    0.5385661015    0.1457811300   -0.1187527732
 C    0.8413008526   -0.6888269240    0.9463469039
 C    0.6273442712   -2.0162125929    1.1700809840
 O   -0.1221440423   -2.8257220126    0.3493786666
 C    1.2622181143   -2.3305194468    2.4201672542
 C    1.8029577934   -1.1708466679    2.8775884237
 C    2.5568219206   -0.8006478051    4.1022337898
 O    1.5526568440   -0.1597051295    1.9816067800
 H    0.3777973733    1.9789630074    0.8816047786
 H   -0.3309468237    1.9449802348   -0.7382081264
 H   -1.1943604300    1.1892776455    0.6288452792
 H    0.0884962008   -0.4008118619   -0.8425392227
 H    0.3718432430   -3.6337458796    0.1772632920
 H    1.2893703118   -3.2893554132    2.9153254787
 H    3.5479661850   -0.3954612483    3.8651636518
 H    2.0278826573   -0.0410711736    4.6906053614
 H    2.6921259678   -1.6831046547    4.7319954157