17

 C   -0.0707655334    1.1950693700    0.3331857622
 C    1.1742736169    0.4586161884   -0.0463562507
 N   -0.1058120055    0.0751112784   -0.6108066557
 C   -0.6905031328   -1.1267520419   -0.2438989901
 N   -0.0471891109   -2.1944299679    0.0472106652
 C   -1.0119197002   -3.2927466553    0.2221693965
 C   -2.4014028165   -2.6810300215    0.0971113740
 O   -2.6503378723   -1.6635151853    1.0726504571
 C   -2.1875188353   -1.2652991518   -0.2336775631
 H   -0.4700749965    1.0229323291    1.3291227184
 H   -0.2823036673    2.1713502061   -0.0922259253
 H    1.8730841015    0.9104012042   -0.7435910911
 H    1.6080244627   -0.2200235167    0.6815055881
 H   -0.8442474690   -4.0570216369   -0.5470891785
 H   -0.8599061039   -3.7710095135    1.1963035268
 H   -3.2684036516   -3.2508033228   -0.2249452507
 H   -2.8508756060   -0.6306855324   -0.8119392432