16

 C    0.3280989534    1.4494045814    0.1586458555
 C    0.0966758557   -0.0238472202    0.0460327415
 C   -0.0775530438   -0.7842013591   -1.0653489673
 O   -0.2630227809   -2.0755080000   -0.7468174729
 N   -0.2120571125   -2.2022234586    0.6346848442
 C   -0.0002712710   -0.9933618341    1.0956445597
 C    0.0924918321   -0.7799375182    2.5842786819
 C    1.3709144086   -0.2117199881    3.0068542317
 C    2.4215015264    0.2588883285    3.3507937855
 H    1.2548623490    1.6634638212    0.6995881968
 H    0.3921979974    1.9123740172   -0.8293873479
 H   -0.4841103253    1.9434059429    0.7043781066
 H   -0.0931057683   -0.5528432186   -2.1196532011
 H   -0.7222848100   -0.1188506196    2.9089509658
 H   -0.0720479779   -1.7451460707    3.0747170094
 H    3.3519608573    0.6644857959    3.6628709605