19

 C    0.1442517363   -1.0377089602   -0.4433797357
 C    0.1055885392    0.1445028158   -0.2362551582
 C    0.0238301633    1.5763652397    0.0151368442
 O    1.3313692643    2.1362875216    0.0344543715
 C    1.3306449983    3.5238070537    0.2905976122
 C    2.8007439308    3.9889184695    0.3158434961
 C    2.9260179966    4.9042247756   -0.9234909056
 C    1.6696885129    4.5491880761   -1.7274383068
 O    0.6870651217    4.2518686986   -0.7324482997
 H    0.1832663986   -2.0828933069   -0.6266289577
 H   -0.5851951762    2.0631145629   -0.7583320692
 H   -0.4785236514    1.7576492436    0.9804435234
 H    0.7660673145    3.7276543649    1.2114285127
 H    3.0344805305    4.5136459412    1.2441156632
 H    3.4448574785    3.1101448491    0.2509521093
 H    2.8967439851    5.9576338223   -0.6308969623
 H    3.8473553573    4.7355596727   -1.4854808621
 H    1.2827251451    5.3657959373   -2.3409741132
 H    1.8417030247    3.6746225325   -2.3700189119