14

 N   -0.0974779617    1.2634158020    0.3126181501
 C    0.0089402433    0.0343674353    0.0105420942
 N    1.1077727258   -0.7544636853   -0.2615217953
 C    0.8202303806   -2.1286466959   -0.6478227678
 C   -0.6892886242   -2.2132005837   -0.5076086545
 O   -1.1454253633   -1.9664315796    0.8152042202
 C   -1.1875483333   -0.8746830539   -0.1265191146
 C   -2.4856847810   -0.3568888601   -0.4695171463
 N   -3.5306393452    0.0394472404   -0.7597710199
 H    0.8098280377    1.7311004987    0.3437942754
 H    2.0314024621   -0.4664881051    0.0145905689
 H    1.1194177221   -2.3370470564   -1.6833443315
 H    1.3144724890   -2.8556814957    0.0079419759
 H   -1.2709329920   -2.9126066807   -1.0990367747