17

 C   -0.0720502753    1.6637089148    0.2034015688
 C   -0.0604311655    0.1370547225    0.0134142139
 C    0.7795270622   -0.5750460098    1.0999419893
 C    2.1796474375   -0.1728845748    1.0988674790
 C    3.3341003225    0.1628566169    1.0768890451
 C   -1.4980828976   -0.3862863570    0.0851385749
 N   -2.1071978196   -0.5790656306   -1.1199919341
 O   -2.0636912761   -0.5930298207    1.1425057558
 H    0.9488105642    2.0535139839    0.2018784148
 H   -0.6333113973    2.1572624149   -0.5958076181
 H   -0.5426238960    1.9206972116    1.1573236386
 H    0.3700651770   -0.0960346774   -0.9678301946
 H    0.3180760596   -0.3740289792    2.0728209626
 H    0.7126933294   -1.6602695869    0.9555405081
 H    4.3557742502    0.4516079327    1.0749491450
 H   -1.6496804516   -0.3859367155   -1.9929219950
 H   -3.0751776935   -0.8568587453   -1.1283629639