14

 C    0.0485011651   -1.1867916109   -0.2088645596
 C    0.0510733798    0.0072908506   -0.0865652975
 C    0.0106113768    1.4678928616    0.0531718776
 C    1.3562562506    2.0461850620    0.0976262390
 C    2.4527472017    2.5313101588    0.1551615953
 C   -0.8739726926    2.0810294108   -1.0452942598
 C   -0.6730148036    3.4355754340   -1.5663698226
 O   -0.2967984384    2.2770493942   -2.3220741968
 H    0.0613778264   -2.2431151594   -0.3181233519
 H   -0.4902437589    1.6996897368    1.0065044043
 H    3.4291991657    2.9470185102    0.1984855563
 H   -1.8767205773    1.6526690844   -1.0562596427
 H   -1.5258479353    3.9902316910   -1.9540737058
 H    0.1580262601    4.0317763660   -1.1973395958