17

 C    0.1228725442    1.5043473597    0.2325865305
 C   -0.0052285204    0.0473552574    0.0014441156
 C   -1.0569541838   -0.7861753748   -0.2087008196
 N   -0.5907031627   -2.0919472335   -0.3697588732
 C    0.6894356591   -1.9828941441   -0.2514441212
 O    1.1323752833   -0.7266622522   -0.0256063171
 N   -2.4094007951   -0.4086148328   -0.2588780345
 C   -3.2721106893   -1.1524962342   -1.1922826260
 C   -3.3882334596   -1.3741126784    0.2689868068
 H    0.5893157865    1.7228734399    1.1998791699
 H    0.7282277035    1.9870953370   -0.5429793048
 H   -0.8765620651    1.9438087769    0.2194875794
 H    1.4376703593   -2.7581607263   -0.3095598160
 H   -4.0028490269   -0.5446002431   -1.7174400682
 H   -2.8040397202   -1.9405037167   -1.7745789905
 H   -2.9973562651   -2.3094543642    0.6581700563
 H   -4.2053572377   -0.9310540607    0.8305157028