15

 O   -0.1960584429    1.4915725767    0.3224372492
 C   -0.0221599531    0.1165515538   -0.0003779498
 C    0.6644516744   -0.7101062381    1.1426984768
 O   -0.3561914304   -1.4227523084    1.8846865054
 C   -1.4612871384   -1.4047532869    1.1005385016
 C   -2.6890574012   -1.9784489113    1.0921759823
 O   -3.3566077683   -1.5123303629   -0.0236065758
 C   -2.5373318000   -0.6599769024   -0.6912581207
 C   -1.3530310586   -0.5625440901   -0.0378517517
 H    0.6668570170    1.9175148177    0.2788731818
 H    0.5528011456    0.0143971182   -0.9306467670
 H    1.3584391644   -1.4488972840    0.7240822306
 H    1.1991516861   -0.0607510231    1.8405370606
 H   -3.2277447698   -2.6664212350    1.7172950645
 H   -2.9486598447   -0.2196005542   -1.5841499079