14

 C   -0.0439374680    1.4118702035   -0.0134351864
 N   -0.0092994377   -0.0308579518    0.0221008312
 N    0.0363836487   -0.7472306640   -1.1337265132
 C    0.0512154577   -2.0131327426   -0.7355515831
 C    0.0380723225   -2.1354095675    0.6689351791
 C    0.0046671670   -0.8278773905    1.1224070730
 N   -0.0956601704   -0.2800845328    2.4072148477
 H    0.9517339359    1.8509046691    0.1286984788
 H   -0.4211652272    1.7114451299   -0.9910424935
 H   -0.7109532608    1.7822677607    0.7698882942
 H    0.0757688792   -2.8023071464   -1.4733569613
 H    0.0552673744   -3.0312172980    1.2684246131
 H   -0.0885891682   -1.0019595323    3.1155273361
 H    0.6355635369    0.3905067927    2.6167538342