18

 O   -0.0463738383    1.3689465889    0.1213754858
 C    0.0243691597   -0.0221496740   -0.0193576903
 C   -0.5494103312   -0.6342462580   -1.2642110028
 C   -1.3019091149   -0.7268707123    0.0666461955
 C   -1.4103521548   -2.0339115996    0.7897743668
 O   -2.4814604074   -2.5081712486    1.1221402496
 N   -0.2224007683   -2.6582916264    1.0745000850
 C    1.1030549889   -2.2037400779    0.6875243154
 C    1.1877776178   -0.6737253974    0.7018311331
 H    0.6497385018    1.7584918442   -0.4197905746
 H   -0.9732853476    0.0478421450   -1.9918762497
 H   -0.1177329317   -1.5364609279   -1.6831342522
 H   -2.1893883340   -0.1140680075    0.1575676025
 H   -0.3246249202   -3.5648921240    1.5044081638
 H    1.8294169061   -2.6135430970    1.3957097659
 H    1.3842720687   -2.5867476917   -0.3047860559
 H    2.1408570795   -0.3660437782    0.2535912613
 H    1.1790014559   -0.3118258577    1.7360318811