17

 C   -0.0177441638    1.5204252651    0.0677471244
 C    0.0314556686    0.0199077475   -0.0154249981
 C   -0.0180488873   -0.6580959948   -1.2330270768
 C    0.0344224555   -2.0466169507   -1.1957452125
 C   -0.0106512469   -2.8947090913   -2.4416200615
 O   -0.1099747097   -2.0664638507   -3.5829121612
 N    0.1288660295   -2.7196871119   -0.0424993118
 C    0.1690076393   -1.9750483606    1.0607090794
 N    0.1261103455   -0.6469841356    1.1449646610
 H    0.8799747370    1.8987285207    0.5669357304
 H   -0.0943443861    1.9793932650   -0.9203303937
 H   -0.8734303977    1.8353364518    0.6734163392
 H   -0.0943213029   -0.1362901763   -2.1773399281
 H    0.8961787463   -3.5191330519   -2.4602836435
 H   -0.8657842661   -3.5828366278   -2.3531751823
 H   -0.1369965670   -2.6283260255   -4.3617363693
 H    0.2457760958   -2.5148910030    2.0024347043