21

 O   -0.0683101016    1.4260696669    0.1309548406
 C    0.0042705294    0.0077844936    0.0019042155
 C    0.8762401602   -0.5527852168    1.1453461984
 O    0.8720272368   -1.9615929665    1.2440069336
 C   -0.2362929389   -2.5087477158    1.9437384604
 C   -1.6057424188   -2.2097352025    1.3216028897
 C   -1.5295593085   -2.0508751883   -0.2242057318
 C   -1.4333771614   -0.5115794727   -0.0142849075
 C   -2.0520180137   -0.7203967114    1.3953875345
 H    0.8270843658    1.7784630159    0.0947218010
 H    0.4697932390   -0.2664878774   -0.9591616901
 H    1.9197371198   -0.2615201746    0.9693379230
 H    0.5613031948   -0.0844247053    2.0902891924
 H   -0.0583030103   -3.5892190920    1.9384156369
 H   -0.2230119501   -2.1703362723    2.9938497662
 H   -2.3226995558   -2.9392140319    1.7113083784
 H   -0.6975532988   -2.5418309621   -0.7344739428
 H   -2.4676676418   -2.3295562774   -0.7102099034
 H   -2.0003754688    0.1124728057   -0.7092508516
 H   -3.1413600022   -0.6328824172    1.3678321840
 H   -1.6797558652   -0.1051409780    2.2189342126