19

 C   -0.0009371461    1.4821569337    0.0193987051
 C    0.0095930881    0.0303473123    0.0027265220
 C    0.0181555576   -1.1799829362   -0.0103027266
 C    0.0275054144   -2.5402416822   -0.0245159475
 C    0.0334596474   -3.7515398373   -0.0376861382
 C    0.0343847154   -5.2094107406   -0.0670712551
 C   -1.3948152523   -5.7856453959   -0.0084566776
 C    0.7974063704   -5.7138688357   -1.3057457043
 O    0.8870673620   -7.1253953242   -1.2039179654
 H    1.0122890641    1.8880338219   -0.0800579608
 H   -0.6025673618    1.8849864239   -0.8034180227
 H   -0.4213199976    1.8649633247    0.9564094260
 H    0.5885494312   -5.5765582362    0.8084102619
 H   -1.9869027229   -5.4280521949   -0.8566679630
 H   -1.3507274360   -6.8758345839   -0.0461735610
 H   -1.8986585870   -5.4782705910    0.9111068585
 H    0.2561746064   -5.4045450531   -2.2131469790
 H    1.7925585609   -5.2472075107   -1.3328275695
 H    1.3170647559   -7.4590161046   -1.9962589526