19

 O   -0.1406805541    1.4040075626   -0.0976241160
 C   -0.0104266215    0.0073965907    0.0246619165
 C   -0.0130216723   -0.6505615209    1.4270171358
 C   -1.5219198676   -0.1993062350    1.5483429549
 C   -1.3643171651   -0.7671312445    0.0990904995
 C   -2.0377931678   -1.3510802316   -1.1176111382
 C   -0.9609471767   -2.4422419118   -1.4898090769
 O   -0.0426146536   -2.6186616587   -0.3763879503
 C   -0.5965360706   -1.9223446229    0.7190871012
 H    0.7368011334    1.7922585100   -0.0313842589
 H    0.7276300736   -0.3898565577   -0.6768624006
 H    0.7491460770   -0.5933894899    2.2056063389
 H   -2.1507663392   -0.7775252289    2.2302810166
 H   -1.6843952743    0.8715328460    1.6428407329
 H   -2.9962288285   -1.8174986215   -0.8702769181
 H   -2.1976287791   -0.6476630145   -1.9382950112
 H   -1.4334952546   -3.4043081942   -1.7186647478
 H   -0.3674604838   -2.1388209831   -2.3584879254
 H   -1.1493930252   -2.5959490442    1.3853427673