17

 N   -0.0810819572    1.4845475540    0.1465387638
 C   -0.0086436048    0.0330255385    0.0006274211
 C   -1.3513670086   -0.5364676427    0.1126340454
 C   -2.4587143231   -0.9988067908    0.1565078552
 C    0.6671127676   -0.4655738500   -1.3291239899
 C    2.1061544367    0.0791466909   -1.5105282483
 O    2.7037020591   -0.3605136854   -2.7053059506
 C    0.7247600963   -1.9271898519   -1.3792494001
 N    0.8526356466   -3.0757426727   -1.4231137217
 H    0.8413804880    1.9046558356    0.1442447528
 H   -0.6227330512    1.8982872566   -0.6056740986
 H    0.6017205765   -0.3435271118    0.8323026430
 H   -3.4331440342   -1.4176079347    0.2157851808
 H    0.0592789949   -0.1224225878   -2.1746039303
 H    2.0630661422    1.1692456840   -1.5777751688
 H    2.7045128989   -0.1846918256   -0.6240970296
 H    2.8045972123   -1.3187325262   -2.6577402441