17

 C    0.0719749346    1.5380251630    0.0861474211
 C   -0.0633769462    0.0574972842   -0.0618659905
 C    0.5003737661   -0.8200124072   -1.1100723373
 N    0.9778213334   -0.9494178944    0.3284173309
 C   -0.0614783415   -1.6928499646    1.1100841090
 C   -1.2029642643   -0.8843821929    0.4369045897
 N   -1.6573080683   -1.5535798593   -0.7730531836
 C   -0.5820814109   -1.7292354162   -1.6358182529
 O   -0.5518866487   -2.4396458225   -2.6137740323
 H    1.0719168137    1.8556618087   -0.2228054445
 H   -0.6637195277    2.0610275258   -0.5343503647
 H   -0.0763636861    1.8499506161    1.1255607029
 H    1.2887659588   -0.5017860033   -1.7794078727
 H   -0.0746278376   -2.7796011875    0.9753182222
 H    0.0816258827   -1.4463786175    2.1651961985
 H   -2.0207448536   -0.4907634862    1.0386095794
 H   -2.3392752141   -2.2985559162   -0.7236184353