22

 C   -0.0915200499    1.5695918602    0.1169892059
 C   -0.0056449919    0.0427585968    0.0170066455
 C    0.7067381605   -0.4853096993   -1.2372553049
 C    0.8614623651   -2.0114404184   -1.2089373898
 C    1.6782238612   -2.4990472072   -2.4093261478
 C    1.2438838787   -1.9150859793   -3.7493986495
 O    1.5380104144   -2.4353660494   -4.8103061472
 N    0.5522876390   -0.7349327297   -3.6967291192
 C   -0.0281095972   -0.0931514996   -2.5245663857
 H    0.9025333299    2.0267826516    0.0572844176
 H   -0.7040457543    2.0012434939   -0.6807933860
 H   -0.5385621490    1.8720788060    1.0687962293
 H    0.5263752156   -0.3430025219    0.8954222269
 H   -1.0155722461   -0.3872397104    0.0640287698
 H    1.7130773370   -0.0423335615   -1.2767256067
 H    1.3390135190   -2.3290752651   -0.2752628806
 H   -0.1356531632   -2.4729134392   -1.2207590513
 H    2.7337160650   -2.2251634435   -2.2816532678
 H    1.6546621999   -3.5866219138   -2.5123419179
 H    0.2677610020   -0.4002175890   -4.6064413583
 H   -1.0923923225   -0.3629808037   -2.4224107766
 H    0.0108626864    0.9907875723   -2.6747145957