16

 C    0.0023761196   -1.2399105649    0.0461265460
 C   -0.0250766876   -0.0393534275    0.0067429242
 C   -0.0221663322    1.4167075713   -0.0389599451
 C    1.4072926149    1.9900047061   -0.0196319381
 C    1.4296771990    3.5444520664   -0.0122604201
 C    2.7934384149    4.0608950744    0.1054147944
 C    3.9213771965    4.4549008906    0.2166009635
 C    0.7638685104    4.0893070096   -1.2085461956
 N    0.2194637173    4.4921193763   -2.1442775814
 H    0.0113220418   -2.3012678850    0.0778288086
 H   -0.5452966242    1.7602613899   -0.9398150372
 H   -0.5887438512    1.8118110844    0.8151371631
 H    1.9349460734    1.6503084538    0.8751634303
 H    1.9688877667    1.6294383592   -0.8850724695
 H    0.8478979093    3.8888769864    0.8548732840
 H    4.9169850314    4.8137036992    0.3101872028