20

 C   -0.0838106036    1.4816082732    0.1499148203
 C    0.0403114034   -0.0272499655   -0.0462337087
 C    0.7619693576   -0.4178537416   -1.3275593807
 O    1.1912812777    0.4061881912   -2.1051087572
 C    0.9201493339   -1.9090858371   -1.5878583340
 C    1.6529145567   -2.1970573752   -2.8876246178
 O    1.7372099733   -3.6184257083   -3.0172635107
 C    2.3682836112   -4.0759662847   -4.1148222215
 N    2.4829149518   -5.3184351041   -4.3058249997
 H    0.9014978161    1.9531805462    0.1828055897
 H   -0.6344907174    1.9385588037   -0.6760790402
 H   -0.6076431183    1.7069041749    1.0827696620
 H    0.5723744826   -0.4957041725    0.7934376512
 H   -0.9467075273   -0.5101788211   -0.0574310568
 H    1.4516233138   -2.3696746695   -0.7455937931
 H   -0.0701276085   -2.3815450982   -1.6009375693
 H    1.1116598446   -1.7649442056   -3.7372370486
 H    2.6546170680   -1.7522758989   -2.8701387700
 H    2.7420966532   -3.2780105048   -4.7719654644
 H    2.9829964011   -5.4897718319   -5.1756519404