11

 O   -0.0374406461    0.3380012321    1.1025180133
 C   -0.0120832677    1.2225725291    0.2828204752
 C   -1.2904036098    1.7274751237   -0.2788069350
 N   -1.6448075920    2.6155228227   -1.1286271855
 O   -0.8138790858    3.4542981510   -1.8462891724
 N    0.5624301761    3.5753207294   -1.8584550868
 C    1.3985944300    2.8965052818   -1.1681909951
 C    1.3321208534    1.8065526904   -0.1621896819
 O    2.3558667727    1.3772010069    0.3096316973
 H   -2.1489426405    1.2060061198    0.1426726955
 H    2.4264472598    3.1952372831   -1.3705338646