17

 C    0.0741543589    1.4288650986   -0.1404140775
 N    0.0367658971   -0.0200062134    0.0585358467
 C   -1.1442200753   -0.6005287181    0.8543409548
 C   -0.2067035321   -1.8463076020    1.0654123884
 O    0.0949863885   -2.6350366519   -0.0289812427
 C    0.6785955002   -0.5760953844    1.3413756250
 C   -0.5016489024   -0.0165473025    2.1017911719
 N   -0.6929473724    0.7038332428    3.1185357585
 O   -2.0628633837    1.0252477006    3.2639847588
 H    1.0705525924    1.7030969052   -0.5003451612
 H   -0.6490983277    1.6916592758   -0.9183541190
 H   -0.1479942071    2.0168577293    0.7616030949
 H   -2.1690831608   -0.5502094047    0.4937113078
 H   -0.4259237634   -2.4816678014    1.9226714083
 H    0.2751809189   -2.0035171793   -0.7431297107
 H    1.7464603960   -0.4981602650    1.5372534167
 H   -2.0573336772    1.5515990007    4.0706975092