13

 O    0.4179079769    1.0608422414   -0.7053780843
 C    0.0051884777   -0.0787282786   -0.0342086001
 C    0.5766604183   -0.2606019936    1.3697782566
 O    1.6474569690    0.1583491440    1.7237116965
 C   -0.4697634951   -0.9709199064    2.2016679833
 O   -1.4995685450   -0.0065911298    2.4661999027
 C   -1.7324177230   -0.9798024331    1.4348026011
 C   -1.5125149848   -0.2950437431    0.0934570160
 O   -2.3572289008   -0.0017313463   -0.7029997289
 H    1.2419711181    1.3429456365   -0.2828573206
 H    0.3277725072   -1.0103249041   -0.5565008023
 H   -0.2273869640   -1.6640403215    3.0001715274
 H   -2.5429637546   -1.6810609653    1.6026917425