15

 C    0.2804734485    1.5255263670    0.0198523355
 O   -0.0681698996    0.1499212169    0.0797443120
 C    0.5705249637   -0.5661255141    1.1089738392
 C   -0.0838670441   -1.9540177538    1.1821831529
 C   -1.5438688709   -1.8794493419    1.5967801295
 O   -2.0714169027   -2.6874208088    2.3147509114
 C    2.0269354349   -0.6865092597    0.8665039647
 N    3.1619916349   -0.7708570965    0.6677963100
 H    1.3487332239    1.6598656317   -0.1929027034
 H   -0.3060131872    1.9598319644   -0.7910966060
 H    0.0354919835    2.0396654015    0.9602505482
 H    0.4486074305   -0.0442112198    2.0735107492
 H   -0.0359618700   -2.3960900182    0.1788212482
 H    0.4521068560   -2.6106851458    1.8708213416
 H   -2.1053535213   -1.0210380030    1.1720165571