17

 O   -0.0221824012    1.2962426247   -0.3378929427
 C   -0.0617529026   -0.1264274060   -0.2567876004
 C   -1.4891945952   -0.4822160336    0.1323014960
 O   -1.8554699858    0.1693555136    1.3181740486
 C   -2.5045417681   -0.3802618162   -1.0702399323
 C   -2.3106723841   -1.8860843163   -1.2301337413
 O   -2.3022794532   -2.6562357869   -2.1513985274
 C   -1.7416267157   -2.0242246221    0.1806545082
 O   -0.6832285714   -2.9176214120    0.3730010962
 H    0.8962168501    1.5795410450   -0.3379218007
 H    0.2115811412   -0.5916143922   -1.2149156509
 H    0.6192997739   -0.5069738785    0.5143286731
 H   -1.4982477608    1.0649466860    1.2470284885
 H   -3.5035058196   -0.1230873639   -0.7067481232
 H   -2.2454130441    0.2485718541   -1.9231509007
 H   -2.5452367580   -2.1902506842    0.9143037070
 H   -0.6253500653   -3.4543066916   -0.4283457482