21

 C   -0.0422070753    1.5404470920    0.0383710482
 C    0.0233616281    0.0086900319    0.0141476707
 C    0.7092952813   -0.5023471726   -1.2584353224
 N    0.7747786892   -0.4523967005    1.1758984336
 C    0.1817122340   -1.1983499445    2.0070151213
 N    0.8125468353   -1.6869947204    3.1431400875
 C    2.2050915665   -1.3365812220    3.3986690452
 C    0.1257197917   -2.4977604528    4.0225271656
 O    0.5840004019   -2.9714174011    5.0347192267
 H    0.9670896358    1.9634746414    0.0285244241
 H   -0.5859836244    1.9165525554   -0.8339719971
 H   -0.5497089179    1.8958708425    0.9400096923
 H   -1.0093392660   -0.3848479161    0.0355951462
 H    1.7403409330   -0.1384445149   -1.3058237637
 H    0.7348297784   -1.5958980657   -1.2766729573
 H    0.1762020308   -0.1552925523   -2.1492193741
 H   -0.8631033445   -1.5245218357    1.9152834495
 H    2.3080799277   -0.2516417630    3.4764800407
 H    2.4984034155   -1.8185602827    4.3297659145
 H    2.8330728812   -1.6785623961    2.5725532031
 H   -0.9153258525   -2.6714114629    3.6922261553