19

 C   -0.2098681182    1.5974169659   -0.1331944316
 C    0.0190722080    0.0725509896   -0.0851956630
 C   -1.2856408131   -0.6934767330    0.2130997037
 C    0.6407164077   -0.4035354395   -1.3176691886
 C    1.1357032405   -0.8101897912   -2.3422911741
 C    1.7553173932   -1.2540097442   -3.5609748039
 O    1.4887705385   -2.3085465868   -4.1088910992
 C    2.7999103456   -0.3312263449   -4.1781848537
 O    3.3185133654   -0.8780391109   -5.3511647797
 H    0.7255245775    2.1325659948   -0.3147289876
 H   -0.9125908217    1.8570235609   -0.9304849955
 H   -0.6278736629    1.9409783709    0.8175946202
 H    0.7290900246   -0.1360414876    0.7279060367
 H   -2.0261339389   -0.5136629833   -0.5718234078
 H   -1.1063510460   -1.7697150180    0.2713287290
 H   -1.7058171284   -0.3579692611    1.1659575226
 H    2.3250715889    0.6471787471   -4.3595317105
 H    3.5873923569   -0.1575059962   -3.4262908520
 H    2.8572763028   -1.7263106824   -5.4579802651