12

 N    0.0530271513    1.3430308113    0.0660821643
 C   -0.0557153569    0.0005159051    0.0226340805
 C   -1.2406014148   -0.7121588274    0.0146318557
 C   -1.1099072422   -2.1040017660   -0.0094601882
 N    0.0193582540   -2.7825018840   -0.0243123827
 C    1.1927475363   -2.1108862566   -0.0163316510
 O    2.3116215512   -2.5179384681   -0.0256718613
 O    1.1059729568   -0.6217566867    0.0049636685
 H    0.9642931097    1.7577529941   -0.0337416491
 H   -0.7604499558    1.9237414944   -0.0330377977
 H   -2.2014812102   -0.2189560515    0.0289644854
 H   -2.0157733395   -2.7100876347   -0.0179341844