21

 C    0.0000997025    1.5762295834    0.0350083751
 C    0.0846943375    0.0545492940   -0.0264081977
 C    0.8187193074   -0.5617088516   -1.2323651581
 C    1.2134849743   -1.9820071495   -0.7634136603
 C    1.5299187654   -1.7927361255    0.7129305818
 C    1.7776309993   -2.9107436018    1.7001889249
 C    2.9134807635   -2.0235774640    1.3101991183
 C    0.8017726880   -0.5673323995    1.1799206185
 O    0.7940250437   -0.1350117731    2.3093865965
 H    0.9948979636    2.0253124953   -0.0567563637
 H   -0.6255136738    1.9732775642   -0.7699357731
 H   -0.4195959424    1.8916627589    0.9938741636
 H   -0.9349258228   -0.3633423446    0.0061222543
 H    0.2137756933   -0.5696909309   -2.1426727370
 H    1.7221161839    0.0239982833   -1.4440433371
 H    0.3646426490   -2.6664852274   -0.8878901794
 H    2.0495464967   -2.3961552688   -1.3336796758
 H    1.3519550480   -2.7775064080    2.6892128612
 H    1.7524881440   -3.9236340509    1.3121801308
 H    3.6746777730   -2.4127719354    0.6423568281
 H    3.2537618460   -1.2906636482    2.0334826993