21

 O    0.0401342730    1.3931900022    0.3236354066
 C   -0.0096889916    0.0592349934   -0.1473464710
 C   -1.3864267448   -0.5408100985    0.0021903111
 C   -1.8043227850   -1.1650848103    1.3028849112
 C   -1.5765466171   -2.0350023179    0.0704104932
 C   -2.7743795306   -2.6628959808   -0.6431456434
 C   -3.4334234369   -1.6843097112   -1.6305805845
 C   -3.5544137152   -0.2906755648   -1.0216971469
 O   -2.2775077481    0.2640920845   -0.7354280528
 H   -0.7064010221    1.8444044025   -0.0871445885
 H    0.2888680395   -0.0002027960   -1.2068473077
 H    0.7132278030   -0.5155156483    0.4398218191
 H   -1.0797718371   -1.1944623713    2.1095192921
 H   -2.8307646677   -1.0410617656    1.6328097867
 H   -0.6688806956   -2.6316656847    0.0696929637
 H   -2.4526233457   -3.5609783913   -1.1789812383
 H   -3.5148792991   -2.9961378902    0.0942266545
 H   -2.8281183751   -1.6046774790   -2.5413191821
 H   -4.4241595157   -2.0453132177   -1.9268764597
 H   -4.0228854343    0.4092156939   -1.7192091629
 H   -4.1777361037   -0.3175895590   -0.1131326303