19

 C   -0.0635700009    1.5060625361    0.1168888974
 C    0.0238189307    0.0161754084    0.0279153038
 C    0.1536009401   -0.7434233926   -1.0619592495
 C    0.2104118422   -2.2208144557   -0.7645718287
 C    0.2486004674   -2.2875986991    0.7807801689
 O    1.5372566975   -2.6074691961    1.3046295555
 C    2.1254351479   -1.3997892154    1.7368316032
 O    1.0778885273   -0.5710566202    2.1772203756
 C   -0.0070299875   -0.8342201440    1.2816938973
 H    0.7137685170    1.8951091173    0.7843100062
 H    0.0479639332    1.9790106142   -0.8623433221
 H   -1.0254252007    1.8220241576    0.5413272833
 H    0.1977364079   -0.3560051298   -2.0756429474
 H   -0.6660667455   -2.7479674490   -1.1639226430
 H    1.0916034255   -2.7140367392   -1.1896621787
 H   -0.4537687429   -3.0217054309    1.1827574159
 H    2.7938563820   -1.6051174769    2.5780225910
 H    2.6849298106   -0.9240326880    0.9126611298
 H   -0.9261415518   -0.7044079367    1.8624973214