23

 C    0.0277547398    1.4955855273   -0.0219319902
 C    1.3308698544    0.7305873113    0.0387431584
 C    0.0263894561   -0.0061545447    0.0319922456
 C   -0.6115155973   -0.8490813645    1.1429349531
 C   -1.4734993953   -1.5422767519    0.0480277653
 C   -0.5445085168   -0.9362527712   -1.0461477336
 C   -1.1358716354   -0.4926201984   -2.4062338478
 C   -0.5831463732   -1.7993269750   -3.0377949310
 C    0.3626332411   -1.9394841945   -1.8154058692
 H   -0.2915141063    2.0376275724    0.8630980617
 H   -0.2345595974    1.9791498665   -0.9579830797
 H    1.9433950686    0.6996344041   -0.8577729701
 H    1.9003967912    0.7557474091    0.9627598641
 H    0.0980955628   -1.5344901148    1.6173117940
 H   -1.1509395461   -0.3104883241    1.9269630649
 H   -1.5423089718   -2.6328247443    0.0861059638
 H   -2.4853330537   -1.1291332271   -0.0012650113
 H   -2.2144663448   -0.3149705424   -2.4471518107
 H   -0.6253967749    0.3927473099   -2.8012360990
 H   -1.3381684882   -2.5898655467   -3.0630216978
 H   -0.1239669058   -1.7288436478   -4.0265448578
 H    1.3507399129   -1.5124592146   -2.0157309271
 H    0.4970523298   -2.9337288784   -1.3795128259