16

 N   -0.1458058405   -1.0830895967   -0.1393775073
 C    0.0055475007    0.0370915324    0.0961105965
 C    0.2086535127    1.4514751488    0.4196775388
 N    1.1237158408    2.0798753348   -0.5270948432
 C    1.3034398631    3.4814235400   -0.3014194517
 C    2.0797362952    4.0449644659    0.8657665839
 C    2.6600597829    4.1132563781   -0.5454018020
 C    3.7713435994    3.2651071267   -0.8715374357
 N    4.6476314809    2.5529852929   -1.1255823531
 H   -0.7618995767    1.9595696756    0.3596856498
 H    0.5324026078    1.5208854371    1.4727516025
 H    2.0068743991    1.5826878949   -0.5724809978
 H    0.4623127142    4.0790336993   -0.6458977526
 H    1.7654053075    4.9808524304    1.3134955142
 H    2.5536778655    3.3450492345    1.5447227348
 H    2.6727578275    5.0774245953   -1.0407783571