17

 O   -0.1276706289    0.1754063346   -0.2046773637
 C   -0.0473233751    1.3549639908   -0.0415004059
 O    1.1238176417    2.0186929378   -0.1080123864
 C    1.0897102561    3.4453852063    0.1474984410
 C    1.1230586106    3.6994624687    1.5874569364
 C    1.1525420825    3.9085918664    2.7698417647
 C    2.2585176637    4.0640634021   -0.5812275551
 C    2.1389170021    4.3638073815   -2.0513159952
 C    2.1599069302    5.4920526706   -1.0521953797
 H   -0.9106733659    2.0170433997    0.1652311329
 H    0.1562618736    3.8508579879   -0.2688369932
 H    1.1766220474    4.0915088779    3.8161416887
 H    3.2220250119    3.7261151219   -0.2154471140
 H    3.0124555399    4.2011115718   -2.6715908449
 H    1.1989119611    4.1342463838   -2.5421913080
 H    1.2338963400    6.0266986267   -0.8675911909
 H    3.0473467692    6.1097491914   -0.9801052468