18

 C    0.5882778305    1.4382348191    0.1241729041
 O    0.8672527676    0.0586242987    0.1189156437
 C   -0.0331624020   -0.6818527071    0.9171743883
 C    0.3679747103   -2.1134312821    0.9037832113
 C    1.5533375446   -2.9005870812    1.5247814584
 C    1.2887956309   -4.0353941461    0.5259953180
 C    0.5709680191   -3.9947813429    1.8486873505
 N   -0.6045229027   -3.2086033867    1.2646154454
 C    0.1146184261   -3.2163294946   -0.0629019776
 H    0.6496604494    1.8652099151    1.1381056685
 H    1.3336377112    1.9247267421   -0.5095409451
 H   -0.4150636107    1.6547181239   -0.2762078515
 H   -0.0364663400   -0.2983919875    1.9527581377
 H   -1.0668388666   -0.6018300168    0.5394978256
 H    2.4805534057   -2.6048791837    1.9935045938
 H    1.9803510064   -4.7535145505    0.1105699478
 H    0.4947692210   -4.6999756613    2.6665190806
 H   -0.4155861410   -3.2366173684   -1.0076810195