17

 C    0.0450290614    1.6311155109    0.1203996730
 C    0.1029325308    0.1149958350    0.0428853687
 C    0.7996039356   -0.6272362095   -1.1634428698
 C    1.8631535861    0.1231646357   -1.7971904567
 C    2.7980777266    0.7119300590   -2.2752264596
 C    1.3917964934   -1.6845935419   -0.1262317652
 O    2.6542032019   -2.2246113306   -0.2917948618
 C    1.0975760036   -0.6229527360    0.9587783715
 O    1.6107080261   -0.3424922447    2.0019361616
 H    1.0266613828    2.0696566528   -0.0746123446
 H   -0.6639276748    2.0408496924   -0.6050366593
 H   -0.2712175658    1.9384377749    1.1214193469
 H   -0.8944708478   -0.3210916324    0.1762294774
 H    0.1182780302   -1.0499822277   -1.9041150837
 H    3.5973439433    1.2467080214   -2.7267292482
 H    0.6865892355   -2.5176100438   -0.0318087948
 H    3.2730150012   -1.4970563354   -0.4349440654