17

 N   -0.0160344690    1.0355953806   -1.1091276311
 C   -0.0082077211    0.1496937604   -0.1945104152
 O    1.1229765385   -0.0688495674    0.5381253357
 C    1.3480935809   -1.3125390850    1.1848993651
 C    0.5574618273   -1.5044726466    2.4672253770
 N   -0.1440547119   -0.3422699290    2.9943408332
 C   -0.9346638823   -1.4644551610    2.4247846008
 C   -1.6593247633   -1.2529936035    1.1540392345
 C   -1.2518071466   -0.5991798459    0.0580865073
 H    0.9044203790    1.4765815622   -1.1659264937
 H    1.1450364860   -2.1461655049    0.4990900871
 H    2.4187292595   -1.3163479625    1.4090880413
 H    1.0145651212   -2.2057782599    3.1639800219
 H   -0.1820299485   -0.3766470463    4.0096120127
 H   -1.4543888664   -2.1009753499    3.1358312102
 H   -2.6497549464   -1.6997862612    1.1165679878
 H   -1.9407889469   -0.5077159800   -0.7742873647