20

 C    0.1161562063    1.4731352010   -0.0812972264
 C    0.0044242615   -0.0327634600   -0.0535805758
 C   -0.6879041366   -0.7313984955    1.0625615292
 N    0.7805470774   -0.7655177541    0.9746571458
 C    1.3560126652   -1.9775492886    0.3416529134
 C    1.0113995410   -1.9673420365   -1.1466752400
 C   -0.4308605537   -2.1325481610   -1.5905681959
 C    0.1539686170   -0.7564969272   -1.3966860592
 O    0.4004719626    0.0368417121   -2.5188336310
 H    1.0168640044    1.7914610869   -0.6122804753
 H   -0.7464888474    1.9234694681   -0.5858589453
 H    0.1551821141    1.8608460757    0.9394427942
 H   -1.0732828679   -0.1537258779    1.9005857594
 H   -1.2514427702   -1.6390260781    0.8670479522
 H    2.4430967342   -1.9310540465    0.4639758447
 H    1.0087774255   -2.8772974768    0.8626457066
 H    1.7817460636   -2.2384664983   -1.8601141858
 H   -0.5643036437   -2.4334604706   -2.6251304255
 H   -1.1771168232   -2.5301521018   -0.9128667844
 H   -0.4464755901    0.3396396791   -2.8638422410