23

 C   -0.9535412571    0.6391143833   -2.9892005137
 C   -0.4718129547   -0.3716727255   -1.9394921818
 C   -1.5848450072   -0.8448962213   -1.0211044847
 O   -2.1705167475    0.2036982258   -0.2783113780
 C   -2.5028664542   -2.0005830860   -1.3683081216
 C   -2.3984390904   -2.8319746745   -2.6299739875
 C   -1.5005421750   -2.1235100263   -0.2258820959
 C   -0.3368217709   -3.0869447739   -0.2743100038
 O   -0.7459202997   -4.4448299356   -0.1382176735
 H   -0.1277123283    0.9614733246   -3.6299359322
 H   -1.7279775062    0.2075504785   -3.6324234719
 H   -1.3649519611    1.5362447712   -2.5148046590
 H   -0.0085571977   -1.2228060888   -2.4463663058
 H    0.3089344466    0.0889488894   -1.3219228556
 H   -2.7341536993    0.7073872776   -0.8752586838
 H   -3.5245093086   -1.8453936798   -1.0292730117
 H   -1.3732225543   -2.9103357548   -2.9993523326
 H   -2.7500943885   -3.8522274891   -2.4472498827
 H   -3.0048765366   -2.4026013297   -3.4350681746
 H   -1.9383055764   -2.0233002889    0.7654497819
 H    0.1868459448   -3.0431135933   -1.2322151490
 H    0.3974063402   -2.8183776472    0.5017293627
 H   -1.2469248479   -4.5159569657    0.6806894047