16

 O    0.0294546145    1.4528230044    0.0421309587
 C    0.0838984841    0.0340055465    0.0318478109
 C   -1.3087663786   -0.6567381351    0.0700963635
 C   -1.2381214915   -1.8593528272   -0.9095227299
 C   -2.4683717304   -1.9578929643   -1.7937222511
 O   -3.1394721569   -2.9439050773   -1.9449150189
 C    0.0142792940   -1.5593063844   -1.7163289959
 C    0.7211944037   -0.5545251153   -1.2047334856
 H   -0.3929310645    1.7329674291   -0.7779956637
 H    0.6716592909   -0.2134266125    0.9244118066
 H   -1.6105983979   -0.9572859646    1.0749214976
 H   -2.0505395055    0.0718149683   -0.2816865869
 H   -1.1437244304   -2.8175352678   -0.3857147683
 H   -2.7116410909   -1.0045882323   -2.3229671510
 H    0.2890489240   -2.1504222248   -2.5832224253
 H    1.6695781357   -0.1887054127   -1.5826633906