21

 C    0.4080771685    0.9651967044    0.9139818465
 C   -0.0757204898   -0.1237916181   -0.0529309918
 N    0.8604098330   -0.2008923918   -1.1752235411
 C    0.4607326879   -0.2686482248   -2.4778197975
 O   -0.6809385686   -0.4274767043   -2.8506510018
 C   -0.2857067480   -1.4807764330    0.6414300961
 C   -1.2299909044   -1.4464900445    1.8276366579
 C   -0.2099212680   -2.7226480467   -0.1632625469
 N    0.8600835955   -2.3958866086    0.8062581456
 H    1.3574105689    0.6818082393    1.3842247879
 H    0.5524940302    1.9090335166    0.3807388065
 H   -0.3167043995    1.1367737456    1.7116832368
 H   -1.0363996385    0.1739120138   -0.4866791787
 H    1.8201284734    0.0591773721   -1.0049967944
 H    1.3175927777   -0.1716330177   -3.1744935008
 H   -2.1972531735   -1.0145894490    1.5458508193
 H   -1.4021705323   -2.4598004560    2.1969699491
 H   -0.8210390812   -0.8606788371    2.6562945805
 H   -0.8293628809   -3.5719235309    0.1117184556
 H    0.0081257322   -2.6459463500   -1.2226148894
 H    1.6577936974   -2.0386469392    0.2833537008