21

 O   -0.0790932837    1.3987971694    0.0139731300
 C   -0.0356983241   -0.0237619461    0.0057914864
 C   -1.4525056851   -0.5467152832    0.0098649113
 C   -2.3576734759   -0.1397576706   -1.1835558815
 C   -3.6081402842   -0.8898506122   -0.7404737298
 C   -3.1385958331   -2.1233882144    0.0092922200
 C   -1.6140709910   -2.0895001147    0.0019472971
 C   -3.6006280400   -0.8984303800    0.7775647960
 C   -2.3458038623   -0.1533050911    1.2166914089
 H    0.8246221807    1.7266303637    0.0109439412
 H    0.4938630098   -0.3965658535   -0.8866856673
 H    0.5026445923   -0.4064950079    0.8887651019
 H   -2.4949158999    0.9432312733   -1.2427832068
 H   -1.9607954461   -0.4947001788   -2.1418656525
 H   -4.5302858648   -0.8819835974   -1.3068588365
 H   -3.7028345677   -3.0467578838    0.0068700085
 H   -1.1791602173   -2.5511903787   -0.8918967094
 H   -1.1703714280   -2.5612512086    0.8861674150
 H   -4.5171226017   -0.8970235602    1.3531011288
 H   -1.9394871339   -0.5190205945    2.1669604406
 H   -2.4824076739    0.9289380492    1.2894980378