21

 C   -0.0451695864    1.5602132610    0.0278508634
 C    0.0440860704    0.0292763930   -0.0007623013
 C    0.7003335081   -0.4889944328   -1.2865703662
 N    0.7333904680   -0.4814033370    1.1863647845
 C    2.0470172543   -0.2273262382    1.5359491739
 C    2.2574548123   -0.9020398686    2.7058616995
 N    1.1172660626   -1.5648999401    3.0908239633
 C    0.2188904365   -1.2967612998    2.1638033460
 C   -1.1827993074   -1.8137094939    2.1735248013
 H    0.9489641905    2.0142595739   -0.0301519215
 H   -0.6300756692    1.9203197153   -0.8238312737
 H   -0.5230957559    1.9063435164    0.9482126722
 H   -0.9712221681   -0.3734207858    0.0512235062
 H    1.7204961008   -0.1064751950   -1.3903580967
 H    0.7456799214   -1.5813429582   -1.2889104924
 H    0.1279972977   -0.1633132135   -2.1603673599
 H    2.6870592252    0.3939527176    0.9319253582
 H    3.1625814152   -0.9489492900    3.2924961843
 H   -1.9272473661   -1.0096771579    2.2106054536
 H   -1.4087844477   -2.4327060387    1.2972672526
 H   -1.3027803620   -2.4299075477    3.0654592926