19

 C    0.0154606333    1.4516899219    0.0110662321
 C   -0.0246505473   -0.0595286518    0.0371339222
 C   -1.3248329124   -0.7670806771   -0.3706417295
 C   -1.2936172693   -2.1215011223    0.3827323195
 C    0.1791379894   -2.2719036159    0.7992385320
 C    0.6842611759   -0.8302246133    1.0912047553
 C    1.3012157556   -0.7585843920   -0.3372540663
 C    1.1154354996   -2.2334426854   -0.4358352096
 O    1.6456534396   -3.0934791534   -1.0857825625
 H    0.9800246038    1.8342896810    0.3581958367
 H   -0.1519387393    1.8336634410   -1.0017753929
 H   -0.7646963044    1.8682979378    0.6576323517
 H   -2.1906653931   -0.1641001229   -0.0780959893
 H   -1.3783613312   -0.8991979165   -1.4562635473
 H   -1.9305314062   -2.0849183157    1.2730236044
 H   -1.6323389792   -2.9598043020   -0.2322797601
 H    0.3939031069   -3.0674167985    1.5124428978
 H    1.1210050417   -0.4535246708    2.0056726726
 H    2.1403895767   -0.1793070440   -0.7052872868