20

 C    0.2579294995    0.7241220748    0.5895468933
 O    0.1365971215   -0.5059782543   -0.0834483892
 C    0.5783678324   -0.4772593299   -1.4381969404
 C    2.1224468878   -0.5557336933   -1.5718876975
 C    2.4490122630   -2.0358489352   -1.7078671272
 C    1.8248560567   -2.9858430035   -0.7135443023
 C    1.1725027263   -2.7702215860   -2.0577932849
 C    0.0479350422   -1.7482542921   -2.1369536633
 H    1.3033973666    1.0481081810    0.7020472356
 H   -0.2921823358    1.5241433278    0.0684949700
 H   -0.1720060759    0.5913991904    1.5856247566
 H    0.1843703418    0.4353012471   -1.9095732744
 H    2.4395768229   -0.0230572487   -2.4767781160
 H    2.6219742249   -0.0731036008   -0.7252281183
 H    3.3957246935   -2.3118698527   -2.1593771930
 H    2.3283494823   -3.9341155912   -0.5571078759
 H    1.3433827428   -2.5744400268    0.1659836127
 H    1.1741317368   -3.5874616222   -2.7705708691
 H   -0.8834100513   -2.0704860219   -1.6618773403
 H   -0.1735236478   -1.5246831225   -3.1869900565