21

 C   -0.1561797124    1.5272147563    0.0784914727
 C   -0.0244924823    0.0136222597   -0.0563942606
 O    0.6046505829   -0.3775666403   -1.2789309743
 C    0.7456893412   -0.5967447837    1.1062370853
 O    0.1115656173   -0.4030670234    2.3890880757
 C    0.3924267693   -1.7677777515    2.7738685790
 C    0.7876351901   -2.1390487539    1.3300239561
 C   -0.2408054823   -2.9659126090    0.5704014093
 O    2.0706886147   -2.7256359443    1.2716995958
 H    0.8330634099    2.0027080892    0.0928026376
 H   -0.7262403933    1.9401043419   -0.7583038633
 H   -0.6610176796    1.7807830806    1.0148273708
 H   -1.0240702560   -0.4305704500   -0.0976693738
 H    1.4248282273    0.1229572109   -1.3561002734
 H    1.7740450831   -0.1965798469    1.1110935784
 H    1.2376776710   -1.8355307212    3.4694408904
 H   -0.4851289804   -2.2641184608    3.2018053624
 H   -1.2542434082   -2.5834527737    0.7211873935
 H   -0.0337722092   -2.9505531001   -0.5049049472
 H   -0.2093898972   -4.0007338313    0.9250716456
 H    2.2465080940   -2.9593482985    0.3537270899