20

 C    0.0853769072    1.6978796521    0.5092026556
 C    0.0645332463    0.1884910010    0.2050158991
 C    0.8595528072   -0.6362993718    1.1680491422
 C    2.0564217206   -1.3047298334    1.0154479442
 C    2.3940581426   -1.8901763390    2.2677467395
 C    1.3907245462   -1.5764102307    3.1576201824
 C    1.1774354990   -1.9254020527    4.5917005000
 O    0.8237304693   -0.7910525610    5.3865244355
 N    0.4655074324   -0.8195718495    2.4730257691
 H    1.1093226643    2.0827488348    0.4914265855
 H   -0.5042147492    2.2532064007   -0.2271394570
 H   -0.3313785603    1.9125957429    1.4990013004
 H   -0.9776027951   -0.1589072254    0.1800056791
 H    0.4663431781    0.0146024552   -0.7982236235
 H    2.6257963588   -1.3607079643    0.0995923531
 H    3.2648803999   -2.4883734494    2.4917002073
 H    0.3366326382   -2.6188545298    4.7197025084
 H    2.0749181411   -2.4327864621    4.9733415260
 H    1.5252400421   -0.1401573207    5.2729295175
 H   -0.3408832888   -0.4039510868    2.9086307655