18

 C   -0.0149119848    1.3805977963   -0.0297579541
 O    0.0577404607   -0.0243018729   -0.0362489673
 C    0.6441287756   -0.5475437875    1.1344127357
 C    0.6846661304   -2.0707793424    1.0031327667
 C    1.3294770005   -2.7230479692    2.1808768000
 C    0.8062290311   -3.5622506835    3.1077598227
 O    1.7902210773   -3.8916011266    4.0007317862
 C    2.8736450913   -3.2177890207    3.5578305695
 N    2.6752171747   -2.5122142961    2.4949396827
 H    0.9827726872    1.8419146427    0.0438762655
 H   -0.4779109108    1.6895724664   -0.9702000504
 H   -0.6262564507    1.7554744532    0.8069329023
 H    1.6649445922   -0.1574249720    1.2722907231
 H    0.0601564881   -0.2579058436    2.0250252047
 H   -0.3351179168   -2.4476672921    0.8774444434
 H    1.2381834788   -2.3194740404    0.0907204926
 H   -0.1616810708   -4.0022759317    3.2744812226
 H    3.7836017658   -3.3357209899    4.1251872141