17

 C   -0.0041681147    1.4580118738   -0.0168720640
 C    0.0346497816   -0.0400919640   -0.0737328280
 C    0.5602480427   -0.9757976493   -1.1863554394
 C    0.0650419043   -1.9586710787   -0.1050163151
 C    0.0728699536   -3.3941830366   -0.0963814382
 N    0.0698134107   -4.5513625259   -0.0692966610
 C    0.5176463765   -1.0029341356    1.0682632365
 N   -0.8078399775   -0.9471613115    1.7523623424
 C   -1.1369744217   -1.0165905599    0.2981065413
 H    1.0033710887    1.8805828700   -0.0918174188
 H   -0.6006717548    1.8673808487   -0.8390142529
 H   -0.4470086058    1.7862603469    0.9280141387
 H    0.0067421644   -0.9790154492   -2.1293500940
 H    1.6381059166   -0.9655597251   -1.3700272102
 H    1.4746682821   -1.0147230477    1.5912877858
 H   -1.0168211261   -1.8345822471    2.2170726091
 H   -2.1530781906   -1.0446666288   -0.0972784022