19

 C    0.0363439194    1.5044706213   -0.0176459302
 C    0.0049555827   -0.0025413901   -0.0017303022
 N   -0.0626473435   -0.6205142720   -1.1825460251
 C   -0.0812713099   -1.9549113176   -1.2036630359
 C   -0.0284927432   -2.7280323635   -0.0516906703
 C    0.0422939160   -2.1096983742    1.1938590570
 C    0.1137594723   -2.9031760795    2.4713872274
 C    0.0553620055   -0.7054316299    1.2204978714
 N    0.1810399650   -0.0159021146    2.4300586965
 H    0.9320314993    1.8966332334    0.4801372990
 H    0.0285100612    1.8503019903   -1.0516736194
 H   -0.8341369488    1.9395428531    0.4936670548
 H   -0.1376798497   -2.4220875676   -2.1833900442
 H   -0.0409461531   -3.8115372307   -0.1188026858
 H    1.0055701374   -2.6433212335    3.0545943427
 H   -0.7562009870   -2.7178456856    3.1167556600
 H    0.1436334501   -3.9757238046    2.2668634318
 H   -0.1652367986   -0.5091464375    3.2397973034
 H   -0.1545600049    0.9355319228    2.4113039090