21

 C    0.3231988586    1.6302169857    0.1082019314
 C    0.0454454467    0.1246395075    0.0511558887
 C    0.5139104767   -0.4902428827   -1.2563685157
 O    1.9485648236   -0.3737763563   -1.4366081288
 C    2.0906334875   -1.7969654979   -1.6024048872
 C    0.5878792370   -2.0295138240   -1.3884678660
 C    0.0343368543   -3.0176410447   -0.3449076425
 O   -0.7523579789   -3.7028890837   -1.3397940639
 C   -0.2816049577   -2.8219885626   -2.3786862111
 H    1.3903548855    1.8251625020   -0.0286268193
 H   -0.2201821604    2.1624559877   -0.6802389097
 H    0.0170841566    2.0518455349    1.0698894179
 H    0.5513401809   -0.3793178930    0.8840607566
 H   -1.0294448099   -0.0689701741    0.1649738861
 H   -0.0148367616   -0.0204547687   -2.1009657783
 H    2.4651580338   -2.0628763301   -2.6003737966
 H    2.7533957240   -2.2376714873   -0.8459015528
 H    0.7835646849   -3.6761850265    0.1148850841
 H   -0.5903034482   -2.5849549632    0.4461351117
 H   -1.1003026856   -2.2560128455   -2.8437369801
 H    0.2681136022   -3.3612340076   -3.1619535843