16

 C    0.0291830798   -1.1294533271   -0.0085821647
 C    0.0085729804    0.0719878050   -0.0333280335
 C   -0.0670079329    1.5014019094   -0.0383935446
 C   -1.2917928079    2.1808412237    0.5872108123
 O   -1.4315675566    3.4275663132   -0.0961294083
 C   -0.1722148449    3.6918394394   -0.6867612755
 C    0.9651059646    3.6547963884    0.3635898610
 N    1.2659556898    2.2142122844    0.0420756529
 C    0.3925356660    2.3365269327   -1.1738891727
 H    0.0635896804   -2.1906349302    0.0090306997
 H   -2.1931492902    1.5817223417    0.4295556432
 H   -1.1615134258    2.3348430586    1.6665397348
 H   -0.2648374523    4.5428693336   -1.3593761785
 H    1.8373591301    4.2475875335    0.0785563942
 H    0.6959702154    3.8701800399    1.4019930542
 H    0.6702946041    1.9850067039   -2.1594105344