13

 N    0.0805893417   -1.1991414411   -0.1288204608
 C    0.0413400547   -0.0466799372   -0.0568612425
 C   -0.0133039163    1.4033707323    0.0329879401
 C   -0.3057118711    2.0547748598    1.4416096449
 C    1.0386955143    2.7906680960    1.3184180610
 O    2.0570999106    1.7919264760    1.1812984177
 C    1.3392683687    2.1541762016    0.0151069310
 C    1.3919475462    4.0753499285    1.8351023699
 N    1.6320166872    5.1223155909    2.2623059025
 H   -0.6952016415    1.7967222344   -0.7248502018
 H   -1.1744036756    2.7126986393    1.4155899180
 H   -0.3669351324    1.3714085381    2.2883051541
 H    1.8974934935    2.5120394116   -0.8411674841