17

 O   -0.0019520609    0.0744114445   -0.5818843119
 C   -0.0678538577    1.2185389500   -0.2281615660
 C   -1.2291510636    2.1735027195    0.1151229933
 C   -1.4789297598    2.3224656325    1.6377959424
 O   -0.4625629732    3.3407323032    1.7672011579
 C   -0.1647298966    3.2933066806    0.3570226129
 C    0.9481429768    2.3062777339   -0.0005640510
 C    2.3344226010    2.1656299040    0.5788481264
 C    2.1795637017    2.5333302445   -0.8592282601
 H   -2.0809696314    2.2275237242   -0.5602725613
 H   -2.4706088942    2.7190522798    1.8830170411
 H   -1.2793892540    1.4404246157    2.2567637287
 H   -0.1621593136    4.2797724533   -0.1110118694
 H    2.6393030035    2.9305837919    1.2845200876
 H    2.6549688696    1.1582085989    0.8220391839
 H    2.3827541821    1.7796462460   -1.6126131614
 H    2.3823755403    3.5554971676   -1.1609239429