22

 C   -0.0719139272    1.5859535957    0.0085486849
 C    0.0114445167    0.0592074071    0.0042562674
 C    0.8088458549   -0.5245267589   -1.2121576125
 C    1.3767241302   -1.8194391422   -0.6860050245
 C    2.7906590997   -2.4316794680   -0.6673259006
 C    2.7168501824   -2.4401320526    0.9062822004
 C    1.3070657554   -1.8274178502    0.7990971007
 C    0.6917811971   -0.5379354167    1.2836385757
 N    0.4921357445   -2.7768563610    0.0115659820
 H    0.9270803469    2.0344946506    0.0578164793
 H   -0.5608883771    1.9600081998   -0.8972016193
 H   -0.6437096260    1.9505221830    0.8685113814
 H   -1.0160071097   -0.3227594945   -0.0459881461
 H    0.1761244720   -0.6154151910   -2.1030090954
 H    1.6346529050    0.1489020137   -1.4764234576
 H    2.8935352320   -3.4001877772   -1.1622359879
 H    3.5559525958   -1.7489792420   -1.0445309977
 H    2.7734390332   -3.4139412097    1.3982386515
 H    3.4431338133   -1.7618985938    1.3607587956
 H    1.4888889262    0.1322059423    1.6312444535
 H   -0.0215006366   -0.6380508957    2.1103304064
 H   -0.4659676992   -2.4381099891   -0.0315543461