11

 O    0.1244465940    1.3586617270    0.0091017596
 C    0.0809311704    0.0231515696   -0.0249162748
 C    0.0153821273   -0.7644038954   -1.1642695959
 N   -0.0082623202   -2.0684959578   -0.6653935908
 C    0.0423737440   -1.9880211582    0.6783731049
 N    0.0970496293   -0.7353914505    1.1000486116
 C   -0.0235560323   -0.4539401618   -2.5321646324
 N   -0.0565766269   -0.2178633829   -3.6675771497
 H    0.1657008900    1.6158022847    0.9393603118
 H   -0.0548626912   -2.9041943101   -1.2248632826
 H    0.0373671054   -2.8610964646    1.3128484984