27

 C   -1.6251607774    0.3561302213   -0.4696948036
 C   -0.1468349960    0.2839489043   -0.0593101628
 C   -0.0122006023   -0.3187802030    1.3464980799
 C    0.6579009488   -0.4841145125   -1.1269282496
 C    2.1854300884   -0.5524635870   -0.9840306444
 C    2.8184934048    0.8342129814   -0.8307213647
 C    2.7850601528   -1.5800867851    0.0374375495
 C    3.7684628188   -2.0737371240   -1.0549429153
 C    2.8886262589   -1.3690136732   -2.1197767706
 H   -1.7464703299    0.8282095076   -1.4504150789
 H   -2.0654477455   -0.6467974085   -0.5277065555
 H   -2.2099828568    0.9321551585    0.2553577718
 H    0.2322850524    1.3139520909   -0.0211187377
 H   -0.3563849904   -1.3600984523    1.3608006161
 H    1.0207204987   -0.3062176897    1.7042341205
 H   -0.6198791379    0.2385165635    2.0676520984
 H    0.2692675285   -1.5115117364   -1.1837793584
 H    0.4406141507   -0.0296721955   -2.1049644367
 H    2.5241583234    1.3146926589    0.1081903114
 H    3.9118742998    0.7713886369   -0.8354175012
 H    2.5213549047    1.4946363693   -1.6541137407
 H    3.2195467781   -1.1726710311    0.9551440852
 H    2.0598071209   -2.3505699392    0.3140155202
 H    4.7590308240   -1.6207078013   -0.9627940168
 H    3.8988226263   -3.1537572069   -1.1547336299
 H    2.1955205341   -2.0639546243   -2.6043119921
 H    3.3971268321   -0.7920786624   -2.8981865143