22

 C   -0.0803981283    1.5915963942    0.0407420852
 C    0.0171520559    0.0646846864    0.0765388588
 C   -1.2328663443   -0.5611396839   -0.5339648673
 N    1.1876108428   -0.7878473655   -0.3387739188
 C    2.5387630186   -0.3268607313    0.1452404194
 C    2.6727529462    0.9566110577    0.9026132502
 C    2.0983034762   -0.2583982668    1.5920522830
 C    0.7143214686   -0.7553269152    1.1034396788
 C    0.1600801128   -1.9589210241    1.8170500123
 H    0.5187999149    2.0168272522   -0.7702190471
 H   -1.1203860868    1.8737106588   -0.1480612044
 H    0.2124323767    2.0621389348    0.9797534352
 H   -1.4147420478   -0.1177959405   -1.5188965746
 H   -1.1220726250   -1.6366732483   -0.6723256316
 H   -2.1115013292   -0.3654098287    0.0914046432
 H    3.3866652127   -0.8275284682   -0.3057567463
 H    3.7020987600    1.1356160991    1.2061628607
 H    2.1365032151    1.8644050452    0.6816634930
 H    2.5661061183   -0.6904244029    2.4677553997
 H   -0.1158220634   -1.6862408776    2.8434880731
 H   -0.7230676822   -2.3720564714    1.3280036129
 H    0.9171068181   -2.7492487341    1.8770794245