15

 C    0.0262257620    1.5801550108    0.1145522043
 C   -0.0171028257    0.0541324940   -0.0795658190
 C   -1.4177155182   -0.4780790254   -0.1120686213
 C   -2.0264585125   -1.0321483826   -1.1759326866
 C   -3.3988209584   -1.5007027204   -1.0806628536
 O   -4.0480596820   -2.0090701584   -1.9522736765
 O   -3.9753267714   -1.3195166560    0.1675220102
 N   -3.2724345157   -0.7237075654    1.2680446379
 N   -2.1098865766   -0.3492592723    1.1067537199
 H    1.0623628803    1.9227426825    0.1763073385
 H   -0.4559691889    2.0958706345   -0.7211906312
 H   -0.4862712672    1.8675326242    1.0362127698
 H    0.4938016082   -0.2300763818   -1.0039735017
 H    0.5109946694   -0.4298832109    0.7507445428
 H   -1.5312947236   -1.1538385028   -2.1319250534