12

 O   -0.0981557957    0.0157108006    0.1025405532
 C    0.0139690638    1.2109417636    0.1607361505
 N    1.2237032502    1.8985128518    0.0223326159
 C    1.2616586307    3.3582343749    0.0802751263
 C    0.9550292715    3.8824632692    1.4153084006
 N    0.6923029788    4.2957131793    2.4610618452
 C    2.4238613004    1.2066978048   -0.1859477378
 O    3.4839886589    1.7594836525   -0.3317314036
 H   -0.8332122757    1.9003323714    0.3293551877
 H    2.2757258680    3.6505117838   -0.2060122036
 H    0.5632030977    3.7897599687   -0.6438691649
 H    2.2665426214    0.1209573195   -0.2023943795