18

 N    0.9862493124   -0.0274090391   -0.5683175762
 C   -0.1316390863    0.2304256368    0.1643527710
 O   -0.2277334938    1.1835394495    0.9201440294
 C   -1.2778229348   -0.7472255057   -0.0181878185
 C   -2.1588377554   -0.9123602467    1.1753429654
 N   -2.6126915914   -0.1152824080    0.0355973358
 C   -1.0930986866   -1.8669416137   -0.9954665827
 C   -2.2063897686   -2.3762859391   -1.8229520186
 N   -1.1312908427   -1.5791108272   -2.4504662433
 H    1.7171349534    0.6658092124   -0.5435053613
 H    0.9613247102   -0.6665202262   -1.3467372382
 H   -2.6722602239   -1.8599732003    1.3092177832
 H   -1.8639322353   -0.3870178092    2.0778143759
 H   -2.4660047648    0.8676523173    0.2655262510
 H   -0.3042867018   -2.5662529570   -0.7230551751
 H   -2.2234580992   -3.4239320511   -2.1080567100
 H   -3.1734803021   -1.9029752474   -1.6910520616
 H   -1.4851022594   -0.6312002853   -2.5748494563