19

 C    0.0893778253    1.3720799097   -0.0076599187
 O   -0.0401859050   -0.0404940254    0.0545294659
 C   -1.3580115632   -0.5902610025   -0.0250466592
 C   -2.1204477964   -0.1436606592   -1.2714315753
 C   -1.1733397985   -2.1207110587    0.0800199525
 C   -1.7829884464   -2.4965384688    1.4050070953
 C   -2.3073125966   -1.4564293987    2.0644768866
 C   -2.1498985787   -0.2246759292    1.2687017821
 O   -2.5474021546    0.8872478315    1.5416527174
 H    1.1510846191    1.5787674669    0.1490318789
 H   -0.2010305693    1.7694370303   -0.9892686505
 H   -0.4977349422    1.8784712536    0.7646358575
 H   -1.5208515546   -0.3211956161   -2.1696846154
 H   -3.0560915991   -0.7043905180   -1.3623232553
 H   -2.3774062393    0.9167016259   -1.2115728484
 H   -1.6556136926   -2.6608284002   -0.7434731199
 H   -0.1076758925   -2.3678097195    0.0420971723
 H   -1.7850024406   -3.5223591561    1.7592682792
 H   -2.7965848746   -1.4707436456    3.0298952551