14

 N    0.0995617741   -1.0843830755   -0.0837697206
 C    0.0416862493    0.0707442491   -0.0279045407
 C   -0.0397469054    1.4896144552    0.0413639829
 C   -1.1336477386    2.3522781541    0.6788704294
 C   -0.4540189639    3.5299752450   -0.0569875635
 N    0.8607692055    3.6306762640    0.6780851914
 C    1.2201474083    2.3902801391   -0.0366391447
 C    0.1724174810    2.5035745104   -1.0929734225
 H   -2.1120087127    2.1101318763    0.2592799720
 H   -1.1753882911    2.4188608271    1.7683093571
 H   -0.9800779766    4.4552339909   -0.2755391024
 H    1.3964125875    4.3814886459    0.2420307483
 H    2.2141646681    1.9632583202   -0.0559778536
 H    0.1468316446    2.3572572381   -2.1643610132