19

 C    0.2458952537    1.5597012883   -0.2084526707
 O   -0.3444456771    0.3268709473   -0.5490256585
 C    0.5446052997   -0.5641963608   -1.1665289164
 C    1.6221543359   -1.2862589782   -0.3090996123
 C    1.2803745929   -2.5890666251   -1.0851611242
 C   -0.0636431424   -1.9425202558   -1.5414197236
 C   -1.2692897820   -2.3511444396   -0.6984937212
 H    1.0638244168    1.4398022873    0.5179379270
 H    0.6482553913    2.0758816966   -1.0949587681
 H   -0.5323020342    2.1826616171    0.2394292637
 H    1.0088227003   -0.0858697500   -2.0446143629
 H    2.6497000923   -0.9181206115   -0.3536021467
 H    1.3089891021   -1.3404017291    0.7372450372
 H    1.9641953827   -2.7662491113   -1.9194007679
 H    1.2033896310   -3.5086966826   -0.4998627042
 H   -0.3037170960   -2.0575453781   -2.6026704301
 H   -1.0587442503   -2.2769921748    0.3729453254
 H   -2.1302387253   -1.7102349251   -0.9070249487
 H   -1.5487186814   -3.3876423745   -0.9159356978