18

 C    0.1403304793    1.3543367393   -0.0678519475
 N    0.0255183769   -0.0812695040    0.0251579918
 N    0.0729907597   -0.8505994691   -1.0953118245
 C   -0.0526250256   -2.0972478788   -0.6532441253
 C   -0.1000142970   -3.2389733223   -1.6169817632
 O    0.6898986347   -4.3049363158   -1.0979172847
 C   -0.1511297231   -2.1517157760    0.7547206949
 C   -0.0861509661   -0.8301338904    1.1546088092
 N   -0.1908121177   -0.2209163508    2.4112427901
 H    1.1742843329    1.6951850916    0.0710628182
 H   -0.1949072245    1.6545321555   -1.0607355703
 H   -0.4932830645    1.8201008053    0.6916942434
 H   -1.1434115128   -3.5684004823   -1.7543505663
 H    0.2654358778   -2.8882491205   -2.5925835986
 H    0.5544220362   -5.0702039722   -1.6645483670
 H   -0.2298918905   -3.0249944206    1.3806310735
 H   -0.2948055224   -0.9110616024    3.1433765470
 H    0.5991469167    0.3744316037    2.6351376291