17

 C   -0.2393418694    1.5169368285   -0.0024784174
 C   -0.0231759501    0.0176712205    0.0464395996
 O   -1.3221889860   -0.6164843150   -0.0173725901
 C   -1.3217289372   -1.9626124662    0.0218188833
 O   -0.3479003283   -2.6554054438    0.0996750865
 C   -2.7785853726   -2.4688377175   -0.0307319840
 O   -2.8568693571   -3.8295758283   -0.2691167289
 C   -3.4635841772   -2.0942007342    1.2803618189
 O   -3.9318063068   -2.9446827856    1.9943090801
 H    0.7260823454    2.0296458695    0.0385583173
 H   -0.7454725863    1.8094081058   -0.9266035724
 H   -0.8435793614    1.8542572551    0.8443624300
 H    0.5788176380   -0.3399692236   -0.7941138477
 H    0.4761620812   -0.2983563076    0.9674020140
 H   -3.2765746141   -1.8918080015   -0.8268627654
 H   -3.2086140618   -4.2245538029    0.5444758190
 H   -3.4916694766   -1.0182147233    1.5318078372