16

 N   -0.5356448068    0.4810132361   -2.2144673104
 C   -0.4693857106   -0.8067353793   -1.8362890832
 O    0.1432240635   -1.6855395346   -2.4296688327
 C   -1.3044749944   -1.0792572023   -0.5570488877
 O   -2.0501968789   -0.2073838546   -0.1530258360
 C   -1.2163551357   -2.4353957175    0.0430755524
 O   -0.1254719608   -3.2353025967   -0.2585811416
 C   -1.8071279433   -2.6198529657    1.4176877666
 C   -2.5894927210   -3.1145908719    0.2430226805
 H   -0.0905328177    0.7789149059   -3.0662350577
 H   -1.1472153070    1.0967987963   -1.7013296850
 H    0.1038652216   -3.0557924144   -1.1873208407
 H   -1.2907300945   -3.3501912528    2.0293187152
 H   -2.1539833831   -1.7263848949    1.9228111468
 H   -3.4738793377   -2.5654620264   -0.0587760740
 H   -2.5850574436   -4.1777696573    0.0340486576