18

 C    0.2306375785    1.5783205714   -0.0224997755
 C    0.0899975801    0.0518553765    0.0033154342
 C    0.6952734897   -0.5927948801   -1.2270584304
 N    2.1568824487   -0.6815219865   -1.2634216367
 C    1.3474152995   -1.9293348763   -1.1292049533
 C    1.4016755246   -2.5905733791    0.1914636384
 C    1.0899186550   -1.9386927972    1.3184097563
 C    0.6125423699   -0.5392023114    1.3257076583
 O    0.5569811564    0.0990762879    2.3584143889
 H    1.2852221140    1.8547739040   -0.1133111303
 H   -0.3128018355    2.0050751487   -0.8712556870
 H   -0.1575545641    2.0076439859    0.9019705294
 H   -0.9820576974   -0.2025706890    0.0050193408
 H    0.1823703976   -0.3629376874   -2.1595934018
 H    2.4895071605   -0.5980777448   -2.2214209025
 H    1.3063438461   -2.5834444998   -1.9951811400
 H    1.7325981246   -3.6253901002    0.2264277718
 H    1.1901261216   -2.3989653926    2.2959991294