21

 O   -1.0871724791    1.7354531829    0.9345339305
 C   -0.3705774397    1.5581412002   -0.0180058632
 C    1.1094962539    1.8799294399   -0.0700610407
 C    1.4141071800    2.7483809801   -1.3126085770
 C    2.9152286517    2.8387755039   -1.6396172638
 C    3.7228146624    3.8612622236   -0.8155492173
 C    3.2888718756    4.0103964279    0.6512638041
 O    2.9684369113    2.7833935885    1.2857653363
 C    1.5915736686    2.4592004670    1.2658277067
 H   -0.7765649435    1.1285422350   -0.9647001249
 H    1.6140974451    0.9137439118   -0.2361694501
 H    0.8935389458    2.3045913132   -2.1707869696
 H    0.9828407987    3.7499964953   -1.1836470166
 H    3.3516135957    1.8425993835   -1.5049032948
 H    3.0372921701    3.0807040213   -2.7011628405
 H    4.7806704081    3.5794054576   -0.8582359649
 H    3.6527387042    4.8547998912   -1.2770950801
 H    4.1043832063    4.4628761059    1.2272439586
 H    2.4295145244    4.6939171552    0.7229636508
 H    0.9854658682    3.3410091604    1.5219618192
 H    1.4340850623    1.7222313856    2.0580613374