21

 C   -0.1123971614    1.4669792127    0.2623237276
 C    0.0648728801   -0.0272552621    0.0520870909
 O    1.1603961275   -0.5333363520   -0.0384711342
 C   -1.2140023056   -0.8486297977   -0.0361197127
 C   -0.9729342423   -2.3496628023   -0.1905419303
 C   -2.2728048457   -3.1319491806   -0.2181477946
 C   -2.2098861137   -4.6638048408   -0.0228487638
 C   -3.1063281270   -4.4018030725    1.2032700609
 O   -3.0362517831   -2.9739732924    1.0074142849
 H    0.8609577287    1.9587944851    0.2716678159
 H   -0.7373666634    1.8965056890   -0.5285425949
 H   -0.6284034697    1.6561914317    1.2105042122
 H   -1.8190068042   -0.6566410042    0.8595715142
 H   -1.8101002530   -0.4554832305   -0.8728119730
 H   -0.4096733659   -2.5486547539   -1.1099335639
 H   -0.3512455484   -2.7045197994    0.6384167513
 H   -2.8811756178   -2.8259809974   -1.0830095675
 H   -2.6468861413   -5.2686470002   -0.8184441114
 H   -1.2123862580   -5.0420718171    0.2104521719
 H   -4.1349536314   -4.7745361879    1.1158645845
 H   -2.7045864043   -4.7023858175    2.1779739221