13

 C    0.0068144611    1.4791741776    0.0554342862
 N   -0.1043760640    0.0343604596    0.1657509121
 C   -1.2070733887   -0.7137739575    0.0384580189
 N   -1.1288101164   -2.0096862587    0.1693154019
 C   -2.2739370505   -2.7281513355    0.0317289902
 O   -2.4189157786   -3.9078899099    0.1125824720
 O   -3.4704632284   -1.9738512836   -0.2478492025
 N   -3.4564891641   -0.6062731267   -0.3688780771
 N   -2.3858596453    0.0130519976   -0.2355601527
 H    0.6934872162    1.7473787594   -0.7538285871
 H   -0.9746453927    1.8977037612   -0.1567677999
 H    0.3832107551    1.9046025366    0.9912280746
 H    0.7284025462   -0.5033676400    0.3615537735