18

 O    0.4461719964    0.7461521344   -1.2584547798
 C    0.1016415539    0.3355896420    0.0485916547
 C   -1.2300384598   -0.4239125555    0.0965163183
 C   -2.3008147165    0.2284303136   -0.7652144612
 O   -2.3320409934    1.6413508921   -0.6205761071
 C   -1.2001835475   -1.9680125343    0.0340663061
 C   -1.6366073205   -1.8883229821    1.4803557138
 N   -1.8978244140   -2.7264844232    2.3737095835
 O   -1.6645637924   -0.5051958130    1.5114024554
 H   -0.1316375523    1.4901729553   -1.4669906159
 H    0.9092536812   -0.3075964189    0.4118123930
 H    0.0242590231    1.1857169461    0.7394273035
 H   -2.0666032047    0.0353381512   -1.8160997155
 H   -3.2764525096   -0.2255945957   -0.5425517442
 H   -2.5829266934    1.8364393474    0.2893267880
 H   -1.9311722161   -2.4325263334   -0.6316169480
 H   -0.2204186294   -2.4167542193   -0.1352262471
 H   -2.1702262653   -2.2692737867    3.2456370423