16

 N   -0.0718694647    1.2792632735   -0.0838648317
 C   -0.0388651963    0.0233996513   -0.0115096780
 O    1.0979718569   -0.7574202977    0.0379536817
 C    0.6368532892   -2.1364218776    0.0861900721
 C    0.0191927700   -2.3408697055    1.4805746255
 N   -1.2076130778   -1.4949369573    1.4180641541
 C   -1.2034558206   -0.9487507473    0.0337818702
 C   -0.6026744131   -2.0906888104   -0.8194205048
 H    0.8754288554    1.6639570861   -0.0906304023
 H    1.4679453094   -2.7863494912   -0.1799487809
 H   -0.2071990750   -3.3962194653    1.6690560229
 H    0.7011014675   -1.9877839538    2.2601228077
 H   -2.0345988128   -2.0690470528    1.5387139422
 H   -2.1572542816   -0.5095423129   -0.2450960185
 H   -0.3613179136   -1.8131735041   -1.8479167181
 H   -1.1997658930   -3.0057164648   -0.8007418420