18

 C   -0.0858362423    1.5128578563   -0.0214831423
 C    0.0436397801   -0.0083897799   -0.0245565383
 O    0.7897729763   -0.4488035311   -1.1724069129
 C    0.7693339971   -0.5387469073    1.2122701578
 C    0.8435477478   -2.0821581202    1.2673292042
 O    1.6883312014   -2.6178243544    0.2640851422
 C    1.3287311596   -2.5263556990    2.5760535879
 C    1.7069467440   -2.8653116162    3.6646507704
 H    0.9027133028    1.9801416609    0.0188021627
 H   -0.5928264388    1.8624378913   -0.9280676210
 H   -0.6700712391    1.8536974968    0.8390095307
 H   -0.9627836261   -0.4570639961   -0.0560765664
 H    0.2914977188   -0.2309069592   -1.9662272331
 H    1.7895642673   -0.1400554585    1.2411120618
 H    0.2445944026   -0.1775680901    2.1023982695
 H   -0.1863997720   -2.4683456937    1.1467526576
 H    1.5038912932   -2.1030639314   -0.5355781511
 H    2.0457863972   -3.1796541681    4.6206426603