21

 C   -0.0420090724    1.4792114734    0.0239353022
 C    0.0218994763   -0.0374615142   -0.0068560195
 C   -1.2909097924   -0.8116480367    0.3328783540
 C   -0.5617602821   -1.5514375888    1.4963046624
 C    0.7575475974   -0.8036009635    1.1522187337
 C    1.8275601994   -1.5037072235    0.2885466034
 C    1.0656088291   -2.0898058096   -0.9201429350
 C    0.9039216067   -0.5754598287   -1.1636238719
 O    2.2437630646   -0.3965107999   -0.5847495935
 H    0.9602025995    1.9055121085   -0.0810380298
 H   -0.6682801098    1.8648360430   -0.7902074056
 H   -0.4681071801    1.8408662186    0.9661524695
 H   -2.0990515127   -0.1569324573    0.6688417453
 H   -1.6851803271   -1.4471366943   -0.4650441046
 H   -0.9565285042   -1.3041676872    2.4842329189
 H   -0.5182510258   -2.6411149718    1.4171804648
 H    1.2041289572   -0.2088961452    1.9509804522
 H    2.6560987549   -2.0178620686    0.7762908631
 H    1.7547930252   -2.5315148837   -1.6400042313
 H    0.1922267437   -2.7267093835   -0.7723803595
 H    0.7888856826   -0.1371449171   -2.1562752387