21

 O    0.0041098549    0.0130554096   -0.3341563407
 C   -0.0114945789    1.1785349095   -0.0643416102
 C   -1.1312736321    2.1869091336    0.2368280186
 C   -0.0346524925    3.1635134741    0.7788916701
 C    1.0817991584    2.2210794244    0.2171831857
 C   -0.0612103897    4.5906840197    0.2764105878
 C   -1.1556374762    5.5649157390    0.8039610548
 C   -0.0891498768    6.6928823679    0.8196153186
 C    1.0114655834    5.5986297728    0.7849534938
 H   -1.6072962559    2.5453498332   -0.6835926886
 H   -1.9137292604    1.8484119131    0.9206160176
 H   -0.0248230882    3.1574060646    1.8741565005
 H    1.8862491311    1.9070309913    0.8869763321
 H    1.5302489960    2.5937734183   -0.7113815081
 H   -0.0708014153    4.5882897886   -0.8218236788
 H   -2.0502448761    5.7096144311    0.1933581148
 H   -1.4684846008    5.2936618891    1.8179668539
 H   -0.1063599830    7.2783844311   -0.1040804058
 H   -0.0924615276    7.3829798916    1.6661600883
 H    1.3503457017    5.3375180554    1.7932393759
 H    1.8902878980    5.7709212621    0.1587873697