23

 C   -0.7995356273    0.4343365359   -0.0980782562
 C    0.7110403917    0.6437702781    0.1155211354
 C    1.2528027643   -0.1708295084    1.1990004923
 C    1.6835349448   -0.8517068687    2.0974808547
 C    2.2197919441   -1.6518603154    3.1606763079
 C    1.3541167057   -2.0620356156    4.3546652318
 C   -0.0728531401   -1.5835876604    4.4976193642
 C    1.7775382884   -3.1047986143    3.3529753256
 C    0.8154650550   -3.7688582091    2.3943056070
 H   -1.3584681667    0.6899718997    0.8063674877
 H   -1.1615370912    1.0636679682   -0.9167433236
 H   -1.0157473740   -0.6089682280   -0.3444361932
 H    1.2442450068    0.4176744363   -0.8173239903
 H    0.9047315583    1.7046830057    0.3216638254
 H    3.2624105785   -1.4462098103    3.3880493670
 H    1.8988633185   -2.0891086048    5.2953140905
 H   -0.5541379254   -1.4385414745    3.5283306931
 H   -0.6707102196   -2.2984413064    5.0738257409
 H   -0.1043605937   -0.6227231086    5.0223779038
 H    2.5769127825   -3.7602605109    3.6900077337
 H    0.0975234834   -3.0584484934    1.9796399127
 H    1.3576597981   -4.2116332743    1.5519194601
 H    0.2572633380   -4.5707178906    2.8902603697