10

 N   -0.1072766320    1.3361609070    0.0084142959
 C    0.0381415251    0.0766265471    0.0011358675
 N   -1.1168710464   -0.7297077064    0.0035635721
 N   -1.1559827613   -2.0508561054   -0.0029572335
 N   -0.0535269348   -2.6970764588   -0.0125691018
 C    1.1156113262   -1.9365919418   -0.0155878069
 N    1.2286192541   -0.6536761930   -0.0095422924
 H    0.8091150043    1.7815367289    0.0053980883
 H   -2.0207998225   -0.2742907465    0.0110466342
 H    2.0214829172   -2.5384209910   -0.0235584934