12

 N    0.2785127304    1.2746983298    0.0038177114
 C    0.0548427638    0.0273449699    0.0011881351
 N   -1.2173000938   -0.5165025588    0.0113509162
 C   -2.4292710913    0.1299577485    0.0257749241
 N   -2.6279605765    1.4285022403    0.0325355511
 O   -4.0431471272    1.5084722840    0.0469676643
 C   -4.4941942170    0.2620905885    0.0465245550
 N   -3.5739142341   -0.6470280326    0.0342217158
 H    1.2804385166    1.4533318442   -0.0051253921
 H    0.8104245063   -0.7671027479   -0.0091203739
 H   -1.3004548366   -1.5201135153    0.0085450198
 H   -5.5650924607    0.1197892995    0.0566124133