15

 N    1.5810180588   -0.3129461267    0.7765623741
 C    0.7917435781    0.4117219898    0.3456733344
 C   -0.2407898100    1.3052460503   -0.2100220147
 O   -0.3134348425    2.5483952120    0.4488624976
 C    0.6803103380    3.4303035202    0.1407135203
 C    1.8174391715    3.3574508436   -0.6268949999
 C    2.4291501326    4.6490464065   -0.5485469097
 C    1.6511700419    5.4413519903    0.2525170775
 N    0.5753124860    4.6817113860    0.6728738293
 H   -0.0564952222    1.4395681502   -1.2842990357
 H   -1.2176245886    0.8318779060   -0.0817909349
 H    2.1904604995    2.4957514208   -1.1551318852
 H    3.3474482364    4.9450809914   -1.0310892100
 H    1.7573503286    6.4662956950    0.5660322440
 H   -0.1771015181    4.9811257645    1.2679152729