22

 C   -0.0253265711    1.7015031070    0.4891106569
 C    0.0144488136    0.2328641943    0.0265689194
 C   -1.3355304132   -0.4059815829   -0.0856923105
 C   -2.1007479246   -0.7550235620   -1.1845131267
 C   -1.7247244064   -0.6222275896   -2.6340163116
 C   -1.3585388391   -1.9622437748   -3.2958747820
 C   -3.3235187709   -1.3034769892   -0.6868398557
 C   -3.2734414320   -1.2721727677    0.6841424493
 N   -2.0661260536   -0.7262097647    1.0392443611
 H    0.9844075926    2.1189832707    0.5600325832
 H   -0.6023677829    2.3129320260   -0.2109423950
 H   -0.4961199181    1.7967710471    1.4733693171
 H    0.5092648418    0.1740666882   -0.9475619107
 H    0.6459704330   -0.3443281144    0.7166270982
 H   -2.5575298742   -0.1696906495   -3.1877227935
 H   -0.8841660772    0.0730819386   -2.7408353313
 H   -1.1121010672   -1.8274149794   -4.3546089115
 H   -0.4966148433   -2.4196912047   -2.7995422335
 H   -2.1898653486   -2.6712569782   -3.2293407084
 H   -4.1453105162   -1.6747845796   -1.2814106047
 H   -3.9843529912   -1.5867830758    1.4312630809
 H   -1.7528827013   -0.5832860294    1.9834245990