19

 C   -0.1489683058    1.4948440861    0.0605270224
 C    0.1354949147    0.0308630796   -0.0049710037
 O   -0.7784635966   -0.8607111888    0.6722016884
 C    0.6268539970   -0.9580081064    0.9783219780
 C    1.3026592740   -1.8068739981   -0.1242790565
 C    0.4320951136   -2.9206234275   -0.7677943306
 C   -0.1039318482   -1.8920942982   -1.8262642983
 O   -1.4852748259   -1.6856816267   -1.9189693023
 C    0.7751191900   -0.7700899845   -1.1715318321
 H    0.7377889569    2.0730032578   -0.2178651426
 H   -0.9548782137    1.7606611664   -0.6327663225
 H   -0.4546336395    1.7812137772    1.0704958116
 H    0.8885752893   -0.8600771080    2.0269284712
 H    2.3688560314   -1.9810030813    0.0145188564
 H    1.0132214437   -3.7365479199   -1.2040711552
 H   -0.3428724683   -3.3415663431   -0.1236755236
 H    0.2389630403   -2.1294113260   -2.8372082558
 H   -1.7852408025   -1.5188617077   -1.0157385441
 H    1.4488028594   -0.1953303309   -1.8078258005