19

 C   -0.0686503378    1.6032647601    0.0454446300
 C    0.0308296499    0.0843715436   -0.0178863179
 C    1.0992667036   -0.5715395099   -0.9053219692
 N    1.3248137889   -0.6804114026   -2.1461725091
 O    0.4150486629    0.0995544031   -2.8918638055
 C    1.7249726758   -1.2703980532    0.2487277271
 N    2.0772507072   -0.1875929056    1.2342534954
 C    0.6899890575   -0.6813823161    1.1667315570
 C   -0.0187441160   -1.2673656320    2.3469839100
 H    0.8919531591    2.0334612631    0.3373236702
 H   -0.3499482740    2.0048340364   -0.9312491008
 H   -0.8247649815    1.9138073261    0.7748730768
 H   -0.9406542535   -0.3624914026   -0.2632751205
 H    0.6988821570   -0.0711837624   -3.7960333943
 H    2.2350460864   -2.2247768498    0.2687927021
 H    2.5268312541   -0.6620913233    2.0192324844
 H   -0.3436299198   -0.4832523033    3.0409972402
 H   -0.9074239778   -1.8261113807    2.0353179790
 H    0.6342757578   -1.9518672509    2.8995482752