19

 C   -0.0180492688    1.5724762281    0.1382548400
 C    0.0017795434    0.0460054139    0.0147252941
 C    0.6666021825   -0.4736312816   -1.2706280094
 C    0.7975355097   -2.0217686810   -1.3123405196
 C    0.5729820296   -2.4340398730   -2.7888279588
 C   -0.1406367110   -1.2340520292   -3.3656770683
 C   -0.0848932182   -0.1801186142   -2.5536789945
 H    0.9968680498    1.9847810121    0.1067096676
 H   -0.5884853529    2.0378362010   -0.6722606256
 H   -0.4742918332    1.8864913268    1.0823399489
 H    0.5343782642   -0.3771341397    0.8765806120
 H   -1.0229643852   -0.3450268351    0.0657592461
 H    1.6660002792   -0.0120653999   -1.3322380790
 H    1.7517539327   -2.3733708749   -0.9109024335
 H    0.0067544757   -2.4575587669   -0.6906636130
 H    1.5229856403   -2.6072631080   -3.3147089209
 H   -0.0008712276   -3.3629538132   -2.8848533221
 H   -0.6011115976   -1.2435783963   -4.3479951030
 H   -0.4922180328    0.7992898212   -2.7805596111