14

 N   -0.0306316938    1.3810590156   -0.0664978825
 C   -0.0200314001    0.0209659715   -0.0578513358
 N   -1.1817119689   -0.6278468191   -0.0283535697
 C   -1.1184486478   -1.9571154451   -0.0615886984
 O   -2.3098589873   -2.5842491909   -0.0353532202
 N   -0.0338406707   -2.7211626723   -0.1124389293
 C    1.1337709604   -2.0520410443   -0.1333800908
 C    1.2087701573   -0.6805030916   -0.1092138279
 O    2.3584851795    0.0681050634   -0.1238134576
 H    0.8264714110    1.8653042972    0.1383310140
 H   -0.9012809418    1.8298156202    0.1652977211
 H   -2.1071200897   -3.5285673738   -0.0616616072
 H    2.0413716401   -2.6543949117   -0.1697182785
 H    3.1213809317   -0.5191547889   -0.1301975672