18

 C    0.1063807414    1.5824124547    0.0681236376
 C    0.0448660275    0.0761135028   -0.0262306902
 O   -1.1455636116   -0.4942590873    0.4560900097
 C    0.6019946816   -0.6857383916   -1.2067771904
 C    1.3849487384   -0.0007462819   -2.3142866155
 N    2.7136686048    0.4867311106   -1.9575505160
 C    3.1453485933    0.3415341831   -0.7811022239
 O    2.5462542482   -0.2012176593    0.3127802926
 C    1.2769251203   -0.7861307000    0.1392245464
 H    1.0099048405    1.9921545000   -0.3870752371
 H   -0.7622707798    2.0197593957   -0.4337372377
 H    0.0881730540    1.9023375797    1.1169621004
 H   -1.2052337980   -0.3019481072    1.3992642645
 H    0.0115918919   -1.5465977028   -1.5020338473
 H    1.5177027886   -0.7115930529   -3.1379367329
 H    0.8242679433    0.8419617163   -2.7389926531
 H    4.1375148870    0.6930275549   -0.5053875581
 H    1.1888588087   -1.6950304649    0.7233787312