21

 C   -0.0468181966    1.5305928667    0.0842417495
 C   -0.0303540962    0.0245770443    0.0338049173
 C    0.0158348576   -0.6929945586   -1.3106986804
 C   -0.3793782416   -2.1292218078   -0.9088252728
 C    0.8163612422   -2.8687633458   -0.2996160349
 C    1.4278715165   -2.0196940827    0.8500863500
 C    0.5622635758   -0.8079146021    1.1704233737
 C   -0.9183927487   -0.8578439789    0.8753820626
 O   -1.3682584955   -1.9583996598    0.1205442201
 H    0.8995965185    1.9572424176   -0.2695474761
 H   -0.8490086608    1.9389722515   -0.5423677722
 H   -0.2061783544    1.8919517070    1.1056060429
 H   -0.7185222441   -0.2520906928   -1.9943833006
 H    0.9961463188   -0.6638363455   -1.7984904227
 H   -0.8426655811   -2.7037183744   -1.7140709589
 H    0.4619291727   -3.8322748319    0.0776737000
 H    1.5610338818   -3.0786621535   -1.0751178259
 H    1.5436663603   -2.6327488769    1.7500632160
 H    2.4356390842   -1.6800068858    0.5841074244
 H    0.8525443512   -0.2449038146    2.0537029882
 H   -1.6665970606   -0.4941954157    1.5700434899