19

 C   -0.1571911607    1.3959070080   -0.0921025901
 C   -0.0012968217   -0.0547329203    0.2279435373
 C   -0.9886810898   -0.9281216611    0.4825133691
 C   -2.2357450375   -1.1623376130   -0.3668887452
 C   -1.4058263691   -2.3857012901   -0.9196084330
 O   -0.2263019957   -2.0509511985   -1.7068942632
 C    0.6861427007   -2.1729339187   -0.5539461308
 C    1.2815461438   -0.8218898832   -0.1116142658
 C   -0.5307991945   -2.3836882011    0.3453553074
 H    0.4510944989    2.0208670619    0.5749762676
 H    0.1793463047    1.6135224867   -1.1145804934
 H   -1.1969121994    1.7197788039    0.0093308105
 H   -3.1157205345   -1.5521679460    0.1589617495
 H   -2.5348887260   -0.3660284367   -1.0526924635
 H   -1.9505299375   -3.2361274285   -1.3405987281
 H    1.4074300245   -2.9801690402   -0.7206557028
 H    1.8215498725   -0.3210577967   -0.9235054595
 H    1.9962881387   -0.9603887085    0.7124321688
 H   -0.5916265176   -3.0861838379    1.1741841751