17

 O   -0.1851047213    1.6082438171   -0.2597753684
 C    0.0536798766    0.2397875877   -0.0744983865
 C   -0.3006287013   -0.3947700068    1.2265675336
 C   -1.1864316321   -0.6309231553   -0.0032009444
 C   -2.5332101376   -0.0082013707   -0.0355137622
 O   -3.4943470973   -0.5164701581   -0.5586325583
 C    1.2216720879   -0.2667948625   -0.8721223591
 C    2.5503531460   -0.4531129838   -0.2678507657
 O    1.7019779928   -1.5685171707   -0.5545110170
 H    0.5105285006    2.0956627768    0.1962630434
 H    0.2800488361   -1.2422446081    1.5701180539
 H   -0.7033388242    0.2562179403    1.9955820577
 H   -1.1254672227   -1.6050375189   -0.4753943809
 H   -2.6018789621    0.9757766869    0.4744911087
 H    1.1639545037   -0.0442081341   -1.9380763736
 H    3.4413284251   -0.3751774325   -0.8879507668
 H    2.6919310498   -0.2407899572    0.7907922358