16

 C    0.1087298771    1.3696955628   -0.1949781862
 O   -0.1953708693    0.0003518366    0.0780776386
 C    0.5375865281   -0.5216509014    1.1019902245
 C    2.0036835083   -0.9682773852    0.9763377011
 N    3.0800083357   -0.4595375835    1.7774683235
 C    0.9529995179   -1.9521629534    1.4030709907
 O    0.6900467262   -1.7548586506    2.8223595606
 C    0.1706792912   -0.4823047147    2.5728320956
 O   -0.3768260998    0.2381163544    3.3392142760
 H    1.1659652218    1.4934204469   -0.4609763847
 H   -0.5183215165    1.6627065216   -1.0384879901
 H   -0.1214414761    2.0029712920    0.6693500168
 H    2.2613643410   -1.0564186775   -0.0777939424
 H    2.8374731661   -0.5198637024    2.7628410660
 H    3.9025768325   -1.0430587708    1.6507753082
 H    0.6455521359   -2.8939791348    0.9696620519