19

 O    0.1242815059    1.4325392816    0.0623419428
 C    0.0264096725    0.0042856049    0.0463798808
 C   -1.4476334473   -0.4692503227    0.1362224518
 C   -2.1592907850   -0.5754180770   -1.2330547899
 C   -1.3733891754   -1.6224405738   -2.0023654506
 O   -1.3923865431   -1.6434262676   -3.4598859881
 C    0.0640950988   -1.6404664870   -3.5097915544
 C    0.0858997382   -1.2761487459   -2.0466017886
 C    0.7431397997   -0.5186375111   -1.1822007085
 H   -0.1820727069    1.7511721922   -0.7940508003
 H    0.5441217119   -0.3016370557    0.9629024087
 H   -1.4755287823   -1.4542084212    0.6205067671
 H   -1.9714821932    0.2253499828    0.7979082764
 H   -3.2121727104   -0.8428848794   -1.1036412654
 H   -2.1195577788    0.3770322688   -1.7745217740
 H   -1.5976534264   -2.6288452994   -1.6154384649
 H    0.4588625427   -2.6341875109   -3.7643540568
 H    0.4601632629   -0.9032074407   -4.2172831845
 H    1.7434481761   -0.1350094480   -1.3646944716