18

 O   -0.0466068098    1.4815794984    0.9102146037
 C    0.0471982625    0.3160938564    0.0975018429
 C   -1.2648919239   -0.3027390923   -0.0319044910
 C   -2.3438493465   -0.8266965985   -0.1478157055
 C   -3.6319288856   -1.4695585308   -0.3001914457
 C   -4.2118069463   -1.7049468392   -1.7341636317
 C   -4.7565071567   -3.0728618360   -1.2460333493
 C   -3.7560593140   -3.0110479454   -0.0621662173
 H    0.8371792167    1.8584644644    0.9711044842
 H    0.4304823627    0.5633540073   -0.9064636129
 H    0.7493961655   -0.4144630854    0.5324635148
 H   -4.3766085565   -0.9471224548    0.3110884047
 H   -4.9220364138   -0.9659758035   -2.1110064967
 H   -3.4047949298   -1.8242863118   -2.4613956893
 H   -5.7932226195   -2.9983555589   -0.9049621859
 H   -4.6772388987   -3.9204819631   -1.9296495532
 H   -2.8150962692   -3.5145551844   -0.2976742098
 H   -4.0949156472   -3.3364104926    0.9236694780