15

 O    0.0096189593   -0.0653571624    0.0046614881
 C    0.0348362489    1.1493794467    0.0103018024
 N   -1.0627623906    1.9994236931    0.0287678267
 C   -0.7518458904    3.4287352488    0.0302969596
 C    0.7514325021    3.3982236687    0.0093222789
 C    1.1624698334    2.0894685523   -0.0018287162
 N    2.5245219883    2.0496376634   -0.0214042661
 C    2.9867202832    3.3441572154   -0.0221682149
 C    1.9074095404    4.2137199695   -0.0032329237
 H   -1.9980495695    1.6306135633    0.0389597843
 H   -1.1799968576    3.9320941884   -0.8472535242
 H   -1.1555409875    3.9248658099    0.9234067999
 H    3.0894435805    1.2177743459   -0.0329579941
 H    4.0453528824    3.5506770323   -0.0361279763
 H    1.9736965172    5.2907143647    0.0004727856