16

 C    0.0298767451    1.5508873273    0.0699273781
 C    0.0180449075    0.0225231825    0.0318599716
 N    0.7701733442   -0.4918072572    1.1711303810
 C   -1.4523865749   -0.5182084045   -0.0635423059
 N   -2.2341353390   -0.1301900024   -1.2380348741
 C   -1.4242339998   -1.9889760912    0.0188005328
 N   -1.3440204518   -3.1405529211    0.0766719306
 H    1.0607043967    1.9079613349    0.1194142322
 H   -0.4433077708    1.9872687800   -0.8137111800
 H   -0.4983667194    1.9229993385    0.9570747645
 H    0.5354934090   -0.3142574600   -0.8770072349
 H    0.3295806943   -0.2118237305    2.0438195110
 H    0.7880296081   -1.5075549159    1.1621728163
 H   -1.9928014948   -0.1592934417    0.8236486541
 H   -2.3726723230    0.8741905240   -1.2419361262
 H   -1.7345093114   -0.3714379127   -2.0892939711