19

 C    0.0240501701    1.4912488497    0.0976481158
 C   -0.0223187820   -0.0232120101    0.0060282213
 O    0.7470393033   -0.5571058012    1.0811202035
 C    0.7961967804   -1.9200489607    1.1249154864
 C    1.4001356252   -2.9262959375    0.1095701892
 C    0.9408363295   -3.8174892210    1.2819555129
 C    1.2867061441   -2.7380728534    2.3555608181
 O   -0.0148238633   -2.7976348602    3.0068031687
 C   -0.3151601784   -2.9481263164    1.5894692219
 H    1.0549577689    1.8483683619    0.0228956721
 H   -0.5588648171    1.9383335172   -0.7130672893
 H   -0.3884153872    1.8300569925    1.0519084129
 H   -1.0578928671   -0.3882600721    0.0756869216
 H    0.3871224532   -0.3690351797   -0.9547129959
 H    0.8698185215   -3.0597224650   -0.8371631918
 H    2.4784848300   -2.8578224433   -0.0578653958
 H    1.0179738100   -4.8940290122    1.4073637193
 H    2.1807794847   -2.6131740914    2.9654259896
 H   -1.3514630961   -3.0807016770    1.2802153692