16

 C    0.2937458560    1.4501588729   -0.5417586167
 C    0.1145158021    0.0510124772   -0.0577239809
 N   -0.9010207529   -0.7116157571   -0.4401954106
 N   -0.6683113977   -1.8642163514    0.2347825312
 C    0.4547272923   -1.7551242718    0.9716214072
 N    0.9813730759   -0.5557880438    0.8122218997
 C    0.9616273286   -2.8516541526    1.8182801275
 C    0.1404151384   -3.4312453139    2.8977141529
 O    0.2891363408   -4.1035821427    1.6465554860
 H    1.2560093728    1.5619903591   -1.0508962433
 H   -0.5076976621    1.7140094163   -1.2336065395
 H    0.2863742218    2.1542204984    0.2962354034
 H   -1.2473140412   -2.6773120428    0.1022373418
 H    2.0447578499   -2.9020900590    1.9049528881
 H    0.6334730859   -3.9053672919    3.7443273445
 H   -0.8466540406   -3.0173674370    3.0941445887