19

 C   -0.6094051513    1.3690975780   -0.0397757226
 C    0.0472025806   -0.0030640355   -0.0781746612
 C    1.3791760288   -0.1838616569   -0.8739040012
 C    2.0265393949   -0.8454888933    0.3638952182
 O    2.7946139286    0.0568678341    1.1642072301
 C    1.6532725420    0.3742641499    2.0008692975
 C    0.7240870846   -0.5642076750    1.2131203156
 C    0.0141815139   -1.6337414621    1.9748013839
 O    0.1288826054   -1.8326437232    3.1596300590
 H    0.0978156242    2.1485660298    0.2608032820
 H   -0.9900517642    1.6376407384   -1.0309277325
 H   -1.4526416067    1.3904993725    0.6591865012
 H   -0.6870115996   -0.7430452585   -0.4193866055
 H    1.3016371670   -0.8186575027   -1.7598653022
 H    1.8863263702    0.7455702052   -1.1444989338
 H    2.4967350715   -1.8266881938    0.2577124506
 H    1.8063421488    0.0441336651    3.0327893171
 H    1.4103497062    1.4421132579    1.9857473534
 H   -0.6453455447   -2.2809637598    1.3498877707