19

 C    0.6293870649    1.4637501887    0.2123487864
 O    1.1788531626    0.2434087786   -0.2936865403
 C   -0.2075166029    0.2654886353    0.0529189163
 C   -0.6304200571   -0.5865319448    1.2032103073
 C    0.3886054948   -1.0527133368    2.2292518862
 C   -0.2748617626   -2.0477144547    1.3095511838
 O   -1.3683502254   -2.7912689293    1.7735457709
 C   -2.3026237591   -1.8817052475    2.3525347083
 C   -2.0818910057   -0.5161419669    1.6623481957
 H    0.9673947001    1.7450463104    1.2083982475
 H    0.5603836329    2.2768315579   -0.5086021455
 H   -0.8779276693    0.2319992294   -0.8092483096
 H    1.4222768284   -0.8171990032    2.0011559058
 H    0.1321000911   -1.0409045611    3.2832133502
 H    0.3035417965   -2.5814260125    0.5651932226
 H   -3.3061048429   -2.2892182029    2.2034702513
 H   -2.1304252482   -1.7987874670    3.4345488689
 H   -2.2945086755    0.3175971197    2.3384249506
 H   -2.7315092427   -0.4098850133    0.7854658237