20

 C   -0.0896800926    1.5730773459    0.0008539814
 C   -0.0414391850    0.0567083913   -0.0056987563
 C    1.2224868878   -0.6488157644   -0.5768960652
 O    1.9937665210   -0.1803559586    0.5973572950
 C    0.6969459600   -0.6791253088    1.1624382330
 C    0.4973566032   -0.6200135180    2.6414323110
 C    0.8476281833   -1.8942675261    0.2293580086
 C    0.1441833685   -3.1555124434   -0.0411199552
 N    1.5399753257   -3.1253272681    0.4885512556
 H    0.8797908196    1.9844215231    0.2884243644
 H   -0.3541879589    1.9585731110   -0.9896441522
 H   -0.8467637378    1.9358214972    0.7047595903
 H   -0.9943157859   -0.3969134159   -0.2998353946
 H    1.6911758705   -0.5561191880   -1.5577848904
 H    0.5735081892    0.4096639355    3.0032387093
 H   -0.4924303534   -1.0069433996    2.9044837926
 H    1.2530876012   -1.2287199472    3.1460221087
 H   -0.5929159671   -3.5481177798    0.6542895529
 H   -0.0129638164   -3.4452929928   -1.0776470854
 H    2.2113053672   -3.3381290734   -0.2452835134