17

 C    0.0268787033    1.5805937076   -0.0530773314
 C    1.5894520479    1.4024235574    0.0517613185
 C    1.2771665410    0.0169220573    0.5693918212
 C    1.4444297765   -0.8329857571    1.5762107589
 C    0.1738572301   -1.6662713473    1.7425520536
 C   -0.9225571681   -0.7974264971    1.0386182381
 C   -0.1186312871    0.0163381843    0.0058770178
 H   -0.3796317414    2.0582263913    0.8422575164
 H   -0.3529309269    2.0892168712   -0.9425899917
 H    2.0535818705    1.4026470637   -0.9405720744
 H    2.1496577510    2.0791469419    0.7014753519
 H    2.2921034972   -0.9044242911    2.2481077546
 H    0.2638057499   -2.6557311156    1.2712976183
 H   -0.0614573587   -1.8503989161    2.7966933537
 H   -1.7274177295   -1.3988529599    0.6059126323
 H   -1.3738847344   -0.1243884312    1.7768969743
 H   -0.1900669513   -0.3972299291   -1.0081524021