17

 O   -0.1905679147    1.0212962954   -0.3990229517
 C    0.1262595962   -0.3300777814   -0.1329070066
 C    1.0389489723   -0.7879486804   -1.2633933625
 O    0.3287951562   -0.8548934672   -2.4979943796
 C    0.2926523800    0.2634008487   -3.2586289548
 O   -0.3420700532    0.3240154874   -4.2670551119
 C    0.8168860290   -0.4872482941    1.2418008806
 C   -0.0242732448    0.0450435927    2.3059558677
 C   -0.7623779243    0.5133233560    3.1318350482
 H   -0.7854643808    1.3282989154    0.2954891832
 H   -0.7789559558   -0.9552960965   -0.1457728982
 H    1.8922856388   -0.1020354732   -1.3440590942
 H    1.4139113382   -1.7964000465   -1.0727344485
 H    0.9167250145    1.0790482690   -2.8534876944
 H    1.0371215203   -1.5458834150    1.4270693038
 H    1.7751160814    0.0473732155    1.2249098145
 H   -1.3936755433    0.9101839241    3.8883930647