18

 O   -0.1674604088    0.1522963065    1.1267704765
 C   -0.0890100592    1.2305501586    0.6077960726
 O   -1.1317806598    2.1166280646    0.5576688226
 C   -0.7555850568    3.2607976592   -0.2173425231
 C    0.7786594504    3.2097543858   -0.2679274093
 N    1.0006383893    1.7938987570   -0.0345288135
 C    2.3165529255    1.2573106050    0.1065004884
 C    2.5858702322   -0.1278844365   -0.4033810818
 C    3.1465001731    1.0600916259   -1.1406876356
 H   -1.1954167654    3.1718046146   -1.2172314015
 H   -1.1475150567    4.1565766466    0.2675394819
 H    1.1793899881    3.5318458016   -1.2332005833
 H    1.2398812048    3.8271934760    0.5179074528
 H    2.8453240961    1.5677812143    1.0076742437
 H    3.2574882104   -0.7488058235    0.1772212255
 H    1.7524016291   -0.6572722815   -0.8460057120
 H    2.6877353002    1.3235605435   -2.0870967413
 H    4.2091837274    1.2646165921   -1.0783640127