15

 C    0.0010876098   -1.2177604581    0.0957760640
 C    0.0137926914   -0.0148928911    0.0926478684
 C    0.0225731738    1.4194801094    0.0778993780
 C    0.5306757046    2.2464931712    1.2036229323
 C    1.6631679531    1.5234674353    1.9502607285
 C    2.3841794041    1.4878805657    0.5610644785
 N    1.2635094159    2.2303822697   -0.1118861164
 C    2.3347066386    2.3124684085    2.9674735130
 N    2.8706056514    2.9413075745    3.7760415108
 H   -0.0207760482   -2.2800375886    0.0933738835
 H   -0.7984349891    1.8698281202   -0.4742624647
 H    0.0013623056    3.1190410923    1.5711759650
 H    1.3823226398    0.5521187230    2.3670684443
 H    3.2870977888    2.0968729939    0.5339580753
 H    2.5806579304    0.4960687941    0.1495957197