19

 C   -0.0055636474    1.5759180319   -0.0565069169
 C    0.1217622239    0.0656081906   -0.0470797057
 C    0.6525803920   -0.7800602121   -1.1487863795
 C    1.4206826326   -0.6929619833    0.2203934111
 C    2.5628485773   -0.1105168571   -0.5361836086
 O    3.7392948973    0.0121459180   -0.2943894038
 C    1.8132369652   -0.0935581202   -1.8893031317
 C    2.5992257243   -0.9469654374   -2.8940142636
 O    3.8188097043   -0.3257955653   -3.2326772675
 H    0.8316216691    2.0668262492   -0.5568538291
 H   -0.9267656122    1.8799132088   -0.5650909420
 H   -0.0474610618    1.9583883015    0.9681356853
 H   -0.6969467306   -0.4201746452    0.4817244268
 H    0.1334677240   -1.6573647194   -1.5146810481
 H    1.5006270528   -1.4051468573    1.0328296280
 H    1.6005029926    0.8822318544   -2.3337089543
 H    2.7523676773   -1.9570835587   -2.4770803396
 H    2.0288286041   -1.0615623048   -3.8221992050
 H    4.2823866752   -0.1605347935   -2.3994715460