21

 C   -0.0393491929    1.4226026873    0.0643835659
 O   -0.0493491748    0.0077692643    0.1310986808
 C    0.6284711113   -0.5059326963    1.2157693079
 C    0.3471495182   -0.2806447668    2.7182112123
 C    1.5018184057   -1.2997890657    2.6633525929
 C    0.9265059367   -2.0259993081    1.3976180500
 C    2.2884913987   -1.9521146686    0.6646973579
 C    2.3394784119   -1.9557504669   -0.8563242989
 C    2.1945892804   -0.6144124921    1.4384530778
 H    0.9832831934    1.8163162627   -0.0204219114
 H   -0.6047514750    1.7040335354   -0.8264266311
 H   -0.5157624345    1.8719937918    0.9464151374
 H    0.5844014803    0.7037947566    3.1342745740
 H   -0.6139191392   -0.6438168386    3.0965903483
 H    2.0222283163   -1.7860422209    3.4853387702
 H    0.1792106509   -2.8219514405    1.4037152830
 H    3.0385577795   -2.6380552874    1.0797774130
 H    1.5867270797   -1.2868099799   -1.2801025636
 H    3.3252976706   -1.6374700448   -1.2149604168
 H    2.1592920014   -2.9628016111   -1.2497021030
 H    2.9086953313    0.2100107997    1.4916290834