20

 C    0.1822050546    1.5006260732    0.2399874503
 C   -0.1330451864    0.0258245856   -0.0444115390
 C    0.5141927593   -0.4661962722   -1.3073715863
 C    0.0893469986   -0.1017853552   -2.7421374773
 C    0.5209523401   -1.5460327359   -3.2084608075
 C    1.5511630972   -1.6543352773   -4.2249566836
 C    2.4300864540   -1.7156538133   -5.0445404909
 C    0.9434283716   -1.8380935689   -1.7465232972
 N    1.9191063551   -0.8680338802   -1.2753712679
 H    1.2614932509    1.6499287664    0.3419954376
 H   -0.1724736586    2.1482901813   -0.5692641579
 H   -0.2961011519    1.8336389675    1.1658484728
 H    0.2182970763   -0.5942757990    0.7872139772
 H   -1.2191111321   -0.1164895262   -0.1159987832
 H   -0.9864509279    0.0517383997   -2.8571191580
 H    0.6210562781    0.7339527915   -3.2056017131
 H   -0.3586347440   -2.1313078016   -3.4926326387
 H    3.1970007036   -1.7841285772   -5.7757727601
 H    0.8841101154   -2.8029056157   -1.2549033584
 H    2.4819897762   -0.4824427625   -2.0325425688