23

 O   -0.1191886829    1.4862557803   -0.3383323321
 C    0.0018446924    0.0745089838   -0.2355449327
 C   -1.3707456423   -0.4849580227    0.1282062596
 C   -1.3968376883   -1.9935565999    0.2359271621
 C   -1.5646706963   -2.8257127283   -1.0182880004
 C   -2.6654648517   -2.7946366050    0.0167494645
 C   -2.7133314275   -3.9283006965    1.0300626306
 C   -1.2539301090   -4.0742400844    1.5204774055
 C   -0.6390707610   -2.6623798408    1.3833284433
 H    0.7438254518    1.8462396488   -0.5618724984
 H    0.3402064451   -0.3693820053   -1.1855790391
 H    0.7383236662   -0.2046185667    0.5347737250
 H   -1.6877431876   -0.0315131379    1.0765575635
 H   -2.0848758738   -0.1501403980   -0.6334299344
 H   -1.7447742388   -2.2855427846   -1.9421845027
 H   -0.9811107783   -3.7317897033   -1.1491297236
 H   -3.5916208969   -2.2927341439   -0.2443605726
 H   -3.3709836385   -3.6422993160    1.8601598863
 H   -3.1063191478   -4.8640564582    0.6172273536
 H   -1.1912289617   -4.4591402168    2.5417251557
 H   -0.7125721469   -4.7841651030    0.8871528971
 H    0.4449254367   -2.7012194004    1.2274481668
 H   -0.8088456829   -2.0804461312    2.2990401524