22

 C   -0.1496562713    1.3862802754   -0.0001513388
 C   -0.3773233573   -0.0732235157   -0.3681199264
 O    0.0885745957   -0.5785163424   -1.3717789652
 N   -1.1397619487   -0.7815856724    0.5247473605
 C   -1.2869675498   -2.2028184109    0.4202629541
 C   -2.5512807272   -2.8387524450    0.9430202105
 C   -2.2788732592   -2.8137380186   -0.5466307763
 C   -3.1178656789   -1.8991847371   -1.4152167102
 C   -1.8536659750   -4.1043304150   -1.2181878003
 H   -0.0847778944    1.9719931213   -0.9180578364
 H   -0.9364751012    1.7950645829    0.6401065690
 H    0.8062081247    1.4816446646    0.5260279356
 H   -1.3898036661   -0.3424259352    1.3965542625
 H   -0.3601995581   -2.7578989960    0.5526766461
 H   -2.4632668722   -3.7744621409    1.4851100695
 H   -3.3220188149   -2.1742107801    1.3216997129
 H   -3.3903629623   -0.9809511042   -0.8892648272
 H   -2.5665250917   -1.6164591119   -2.3177311235
 H   -4.0429081500   -2.4009249824   -1.7213350159
 H   -2.7248449681   -4.6977899893   -1.5192081810
 H   -1.2609725798   -3.8927844491   -2.1148278186
 H   -1.2444116742   -4.7232354780   -0.5517739009