16

 C   -0.0137038581    1.4836513457    0.0404278770
 C   -0.0026902100   -0.0073596471    0.0195350142
 N   -0.0559571187   -0.7022723146   -1.1060127419
 N   -0.0219034628   -1.9900331945   -0.6600855756
 C    0.0484812794   -1.9942644624    0.6811011574
 N    0.0986877636   -3.1340363645    1.4615102058
 C    0.0868305850   -4.4243414354    1.0016932732
 N    0.0248962393   -4.7089567228   -0.2420125707
 N    0.0632535672   -0.7648613964    1.1602639723
 H    0.8926734468    1.8724227709    0.5155387823
 H   -0.0742605080    1.8707205719   -0.9780065843
 H   -0.8670142690    1.8578796934    0.6149802692
 H   -0.0456016594   -2.8064451304   -1.2550748555
 H    0.1493851858   -2.9615915200    2.4522867638
 H    0.1360030376   -5.1507889464    1.8184094661
 H    0.0269249612   -5.7147430675   -0.3834626235