18

 C   -0.0668332030    1.5536183440   -0.0426145698
 C    1.4499937997    1.2165689612   -0.0059368151
 C    1.2329275063    0.2839927549    1.2267629364
 C    1.7153191992   -1.1491915326    0.9545770157
 C    0.6515990009   -1.9986598943    1.0450798634
 C   -0.6522615580   -1.2079886885    0.8272867711
 C    0.0476826684    0.0605638623    0.2984156465
 N    1.2108562407    0.0032527550   -0.8666488689
 C    2.2851730128   -0.9992100981   -0.4352731066
 H   -0.4466507424    2.1892434293    0.7599203482
 H   -0.4687733452    1.8269315016   -1.0202506083
 H    2.2798029774    1.8923578177   -0.2232464755
 H    1.0882416233    0.6399730172    2.2481165149
 H    0.7093239269   -3.0230050986    0.6894994124
 H   -1.2840742053   -1.7536868870    0.1185809230
 H   -1.2795950234   -0.9476839834    1.6913563256
 H    3.2664338956   -0.5240389118   -0.5398590260
 H    2.2328255759   -1.8998450789   -1.0470289273