21

 C   -0.0096521042    1.5181721630    0.0181993539
 C    0.0316653133    0.0036363218    0.0025122155
 C    0.6181367574   -0.6520844266   -1.2757666145
 C    0.0395958508   -2.1123711919   -1.2731130854
 C   -0.8170867467   -2.1675033912    0.0127916091
 C    0.1302336640   -2.1359273142    1.2343073427
 C    0.7081631906   -0.6754436020    1.2228026146
 C   -1.3279010169   -0.7210877325    0.0447805830
 O   -2.4397186116   -0.2719420858    0.0893327075
 H    0.9984683378    1.9453832082   -0.0138150489
 H   -0.5675736765    1.9022999123   -0.8415616573
 H   -0.5045363295    1.8857206520    0.9226429571
 H    0.2953088072   -0.1054754199   -2.1671131408
 H    1.7121072915   -0.6354591954   -1.2619436125
 H   -0.5761830028   -2.2899816003   -2.1590345448
 H    0.8253798214   -2.8729211922   -1.2621965315
 H   -1.5833183156   -2.9405416762    0.0332187570
 H   -0.4199896097   -2.3308410046    2.1588823445
 H    0.9128274218   -2.8954190260    1.1522338162
 H    1.7983239751   -0.6575716214    1.1307941561
 H    0.4503946725   -0.1459340072    2.1451273985