25

 C   -0.1285344323    1.5881836054    0.0215025923
 C   -0.0270142400    0.0601231518    0.0073228513
 C    0.6675422047   -0.4574998256   -1.2635427916
 C    0.8002063448   -1.9881231497   -1.2640503616
 C    1.5227206370   -2.5299194479   -0.0131622143
 C    3.0297522028   -2.2306706201   -0.0172519249
 C    0.8077654637   -2.0045525137    1.2440567804
 O    1.5046425457   -2.5007287460    2.3820300134
 C    0.6956601512   -0.4748252241    1.2561411617
 H    0.8671965486    2.0473193646    0.0125404292
 H   -0.6720249038    1.9578735263   -0.8546430081
 H   -0.6506891307    1.9461137316    0.9154506649
 H   -1.0497622681   -0.3474932292    0.0149855862
 H    0.1087646647   -0.1334375686   -2.1497296939
 H    1.6595711532    0.0070627155   -1.3424707939
 H   -0.2049067370   -2.4285705350   -1.3149595637
 H    1.3276664011   -2.3217952380   -2.1651632831
 H    1.4123472497   -3.6215805257   -0.0018491382
 H    3.2453704220   -1.1598818116   -0.0815635353
 H    3.4956331179   -2.6090047779    0.8946704253
 H    3.5075894364   -2.7124211492   -0.8767788627
 H   -0.2172292985   -2.4164101553    1.2318320123
 H    1.0908850246   -2.1292462567    3.1674714338
 H    1.7005940115   -0.0386291163    1.3232800996
 H    0.1582950108   -0.1581360144    2.1615297809