18

 C   -0.3789406301    1.4343295337    0.0102028532
 C    0.0468043007   -0.0034778847   -0.0169013351
 C    1.1917441590   -0.5211093336   -0.8974415006
 O    1.7013845320   -1.3453345555    0.1779609634
 C    0.6940953121   -0.8654472922    1.1080974849
 C    1.2364085332   -0.4700837428    2.4488898822
 C   -0.5762602741   -1.6941433465    0.9855427944
 N   -1.0420292565   -2.6942286451    1.5777628310
 O   -1.0890609681   -0.9338806774   -0.0551202942
 H    0.4879436536    2.0900905685    0.1333737669
 H   -0.8789598685    1.7025560085   -0.9267969281
 H   -1.0776914359    1.6175200649    0.8311860835
 H    0.8805088608   -1.1017443157   -1.7717843202
 H    1.9243811977    0.2398756680   -1.1928840192
 H    2.0540311028    0.2475814183    2.3402222091
 H    0.4513577516   -0.0334843763    3.0730186689
 H    1.6187222880   -1.3583496956    2.9613672788
 H   -1.9398359784   -2.9828633966    1.1841904609