13

 C    0.0008515185    1.4058912427   -0.0013963328
 C    1.4469222562    1.9152371791    0.0359604544
 O    2.1263363646    1.5123836544    1.2312666810
 C    1.8759462559    0.1945963709    1.4340081015
 C    0.8600901456   -0.5131534052    0.8528791711
 O    0.9029944678   -1.7651369753    1.2302504541
 N    2.0852542361   -1.8228284823    2.1627351542
 N    2.5740916397   -0.6637120560    2.2077364157
 O   -0.0640787578   -0.0431144220    0.0182935188
 H   -0.5600744135    1.7869639258    0.8586742463
 H   -0.4915785547    1.7143319461   -0.9246697079
 H    1.9937391216    1.5417358985   -0.8398235471
 H    1.4524779100    3.0067885133    0.0250651407