15

 C   -0.0209067484    1.4422321643    0.0020353934
 N    0.0029949414   -0.0136448852   -0.0264723892
 C   -0.1317683362   -0.7177938748   -1.1613365905
 N   -0.1174062602   -2.0138770384   -1.2364721292
 C    0.0539282135   -2.6361246047   -0.0169924086
 N    0.0731122124   -3.9821568563   -0.0796494713
 N    0.1962379679   -2.0626606902    1.1595462147
 C    0.1805537037   -0.7037551085    1.2324848338
 O    0.2989448686   -0.0318375586    2.2339488065
 H    0.9151185246    1.8228473710    0.4160864736
 H   -0.1591388097    1.8176386993   -1.0140744376
 H   -0.8349394812    1.7898605650    0.6416380079
 H   -0.2629335366   -0.1389009042   -2.0743739167
 H   -0.0463222306   -4.4383057907   -0.9656552739
 H    0.1834354508   -4.5110833682    0.7670465373