17

 C    0.0206248367    1.4922679824    0.0103769177
 C    1.4490878456    2.0142778392   -0.0010105052
 C    2.4915694579    1.1878329049    0.7339289065
 O    2.0946381835    0.0319861888    1.4278507338
 C    1.1383645927   -0.7314599852    0.7366520285
 C    0.0087743682   -0.0285604070    0.0018913873
 C    1.1232849016   -0.7229615184   -0.7633466360
 O    2.0655535966    0.0483856515   -1.4649315554
 C    2.4764969479    1.1963347489   -0.7660698644
 H   -0.5053376741    1.8643625503    0.8992574544
 H   -0.5230345312    1.8743370175   -0.8634981455
 H    1.5630659173    3.0940923247    0.0039680358
 H    3.2951607028    1.6790355621    1.2704126821
 H    0.9463631588   -1.6523404501    1.2751391916
 H   -0.9700003784   -0.4986280339    0.0090735318
 H    0.9203996249   -1.6377011460   -1.3082709763
 H    3.2692035792    1.6936668504   -1.3129981866