14

 C   -0.0383857899    1.5331615513    0.0418956355
 C    0.0344445623    0.0235249417    0.0199021154
 C    1.3350936215   -0.6962375839   -0.2278912884
 C    0.7091476959   -0.7162342826    1.1594958503
 O    1.2650115674    0.0756773396    2.1652166780
 C    0.1185093767   -1.9539484071    1.6239871169
 N   -0.3328580329   -2.9489543979    2.0044603997
 H    0.8453619331    1.9636085415    0.5163576859
 H   -0.1100766155    1.9223487535   -0.9787960760
 H   -0.9175192081    1.8744924107    0.5969871763
 H   -0.8498762094   -0.4732036707   -0.3676770979
 H    1.3365710563   -1.6112069956   -0.8085649186
 H    2.2321680108   -0.0910645605   -0.3083258178
 H    2.0488812916   -0.3711128098    2.5050762006