15

 C   -0.0861146829    1.5450822093    0.0835964758
 C    0.0004502808    0.0504965854   -0.0920139451
 C    0.7034687822   -0.6594512826   -1.2248393566
 C    1.7032869804    0.0469687137   -2.0623199376
 C    2.7415395010    0.4290108470   -1.3060025315
 C    2.4604102646    0.0842782325    0.1138744646
 O    3.0710867352    0.4055879812    1.1004493690
 N    1.2491964985   -0.7090090486    0.1356572667
 H    0.7110561740    2.0773974685   -0.4383968168
 H   -1.0483913082    1.9038505312   -0.2945341240
 H   -0.0245953298    1.7994996166    1.1466083930
 H   -0.8642049036   -0.4845640969    0.2986177613
 H    0.2576207933   -1.5739027097   -1.6089995728
 H    1.5907861773    0.1871845017   -3.1304216202
 H    3.6164608872    0.9895764006   -1.6059817860