20

 C   -0.1373825689    1.2747853225    0.1097665590
 O   -0.0373372592   -0.1236242395   -0.1105863320
 C    0.7688353481   -0.5527112770   -1.2171677292
 C    2.2010622379   -0.0415594438   -1.1460662688
 C    0.6130324406   -2.0793027861   -1.2302656230
 C   -0.7356124853   -2.2571566718   -1.9311952239
 O   -0.8166925066   -1.1630754658   -2.8681067629
 C    0.0469624435   -0.1735073292   -2.5139945598
 N    0.2059172416    0.9100887727   -3.1464856074
 H    0.8045921524    1.6994038037    0.4809129874
 H   -0.4335201989    1.8150577587   -0.7962599047
 H   -0.9038893022    1.4047498570    0.8778049662
 H    2.6329633622   -0.2702948780   -0.1671091422
 H    2.8116639919   -0.5158597290   -1.9190242412
 H    2.2382717682    1.0360868309   -1.3170155108
 H    1.4148385699   -2.5336485487   -1.8194620285
 H    0.6308176775   -2.4913318596   -0.2203149711
 H   -0.8259098842   -3.1855495154   -2.4990422889
 H   -1.5709135828   -2.1793213491   -1.2284431003
 H   -0.4186822057    0.9495911976   -3.9549580578