20

 C   -0.0659586712    1.4712893351   -0.1787599319
 C    0.0724756313   -0.0329025166   -0.0472363091
 N    1.2488681206   -0.8724457586   -0.3324138099
 C    2.5080980332   -0.1499053976    0.0836717553
 C    3.0877701587    0.9520173869   -0.7864630322
 C    1.9399947584    0.0097156434    1.5095769833
 O    2.3833361439    0.3756700732    2.5610675390
 C    0.6996048977   -0.7496640354    1.1029456217
 C    0.0589575682   -1.8531186130    1.8905650167
 H    0.6985378411    2.0320327473    0.3606503651
 H   -0.0503632454    1.7759226282   -1.2304305800
 H   -1.0354930210    1.7679315230    0.2355860558
 H   -0.8131191599   -0.5520675520   -0.4142567048
 H    3.2690509283   -0.9371568888    0.1853819241
 H    2.4201871773    1.8038121134   -0.9142168730
 H    4.0186513351    1.3143958203   -0.3389464225
 H    3.3244419821    0.5536770202   -1.7783455760
 H   -0.4834221042   -1.4402428643    2.7478428655
 H   -0.6503780512   -2.4101201841    1.2724123975
 H    0.8072098770   -2.5534739706    2.2746644954