21

 C    0.0678058644    1.5465767698   -0.0558431914
 C   -0.0282766686    0.0303538374   -0.0602502511
 O    0.7087435303   -0.4650295213   -1.1599970714
 C    0.6812485362   -1.8705319864   -1.2604008478
 C    1.4549381989   -2.2720004670   -2.5101786156
 C    1.4958858379   -3.7982109688   -2.6880101925
 O    0.2087182881   -4.3422871557   -2.8035449254
 C    2.3319172863   -4.1651342985   -3.8967290730
 O    1.8878478932   -4.8357937429   -4.7969746398
 H    1.1104405026    1.8648660889    0.0326744169
 H   -0.3383881822    1.9590374365   -0.9837649896
 H   -0.4952215794    1.9620280111    0.7852271610
 H    0.3688576177   -0.3853113668    0.8818124541
 H   -1.0808762016   -0.2917366885   -0.1328354719
 H    1.1377379829   -2.3324499759   -0.3663529450
 H   -0.3524712475   -2.2418035508   -1.3265186405
 H    0.9820979097   -1.8170197717   -3.3874290004
 H    2.4765916889   -1.8790568462   -2.4406761901
 H    2.0159141511   -4.2324391411   -1.8119426433
 H    0.2048893041   -4.8281820503   -3.6436780315
 H    3.3730382269   -3.7828283218   -3.9104421315