20

 C   -0.1568609192    1.6253321816   -0.1099440340
 C   -0.0639599510    0.0963443911   -0.0482948902
 C    0.7536786333   -0.5107245768   -1.2217179155
 C    2.2640754905   -0.1341830927   -1.2188375440
 N    2.9086350003    0.0672085533    0.0886608792
 C    2.1378859789   -0.1059815031    1.0598013186
 O    2.3167102607    0.2356562012    2.3796180943
 C    0.8589233356    0.2084326618    2.5835075578
 C    0.6756366897   -0.4348244104    1.1867072184
 H    0.8263806973    2.0991041415   -0.0244899667
 H   -0.5978807860    1.9420724953   -1.0604519527
 H   -0.7894420004    2.0186441843    0.6923791650
 H   -1.0799648303   -0.3123513821   -0.0908005757
 H    0.6532451343   -1.6016421633   -1.1705283577
 H    0.3213553965   -0.2048887224   -2.1806581904
 H    2.8230631896   -0.8946795099   -1.7762106710
 H    2.4119013166    0.8020849977   -1.7719439121
 H    0.5901080093   -0.4010623909    3.4485527913
 H    0.4793627166    1.2270537668    2.6981212323
 H    0.5081471578   -1.5112687132    1.2878320930