19

 C   -0.1374464752    1.5816028238    0.0610190705
 C    0.1354856466    0.1179465225   -0.0224044956
 O   -0.7641709586   -0.8074114560    0.6455899267
 C    0.6244830843   -0.9027889336    0.9440818671
 C    1.2571976082   -1.8029097096   -0.1429899039
 C    2.7889911173   -1.7862084596   -0.1341778216
 C    0.6844525948   -3.2097290386   -0.2794583187
 C    0.7334842801   -0.7207123299   -1.1525485402
 O    0.9019062250   -0.5449543134   -2.3235071033
 H    0.7423660845    2.1534555864   -0.2490885275
 H   -0.9659156260    1.8554415549   -0.5999666917
 H   -0.4036135789    1.8641518317    1.0828662706
 H    0.9385978771   -0.7521137386    1.9713395344
 H    3.1750630232   -2.4092042751    0.6797881201
 H    3.1764945773   -2.1786028822   -1.0787268449
 H    3.1864175768   -0.7737431971   -0.0041456683
 H   -0.4044206382   -3.1947599625   -0.1959427128
 H    0.9497781312   -3.6326550735   -1.2538340791
 H    1.0862497606   -3.8731664295    0.4947833883