22

 C    0.0436365787    1.5943377235   -0.0536072831
 N    0.0217966882    0.1379729658   -0.0113621512
 C    0.8933006937   -0.3591079015    1.0486807691
 C   -1.3114430585   -0.4945659806   -0.0421434436
 C   -2.1076441644   -0.4065329509    1.2691336648
 C   -2.1295657229    0.0795562641   -1.2277893611
 O   -3.1929098064   -0.7761952591   -1.6093792179
 C   -1.0541502704   -1.9616100792   -0.4266277237
 O   -1.3768180120   -2.9169329684    0.2275704986
 H    1.0858185762    1.9240578206   -0.1125933240
 H   -0.4666787073    1.9748826011   -0.9404891587
 H   -0.4027015209    2.0752211778    0.8359541916
 H    0.6266460447    0.0107949405    2.0541450023
 H    0.8775092558   -1.4516318608    1.0790356968
 H    1.9213066143   -0.0436056753    0.8419389451
 H   -2.2318267837    0.6349601060    1.5805342787
 H   -3.1008730825   -0.8520332102    1.1562474968
 H   -1.6151861280   -0.9594164021    2.0709039736
 H   -2.4959629779    1.0864104551   -0.9868367592
 H   -1.4764951745    0.1560979180   -2.1026306867
 H   -3.8447310399   -0.7915821677   -0.9016775894
 H   -0.4976540724   -2.0628817367   -1.3841218286