25

 C    1.2421346198    1.6832639449   -1.9044538271
 C    1.0873717366    0.3344124638   -1.1960792089
 C    1.3274907398   -0.8569326972   -2.1326501344
 C    1.1172237491   -2.2412220963   -1.4912487653
 C    1.2261387186   -3.3934043428   -2.5123663239
 C    0.1066256790   -3.4329795983   -3.5572343246
 C    2.1106771983   -2.4748201718   -0.3696184538
 C    1.7834033549   -2.2981712001    1.0510028228
 O    1.8679474913   -3.6028685949    0.4765252906
 H    2.2504481017    1.8004413304   -2.3172079944
 H    0.5339085128    1.7772182762   -2.7352849089
 H    1.0645781152    2.5181626925   -1.2193693968
 H    1.7799955459    0.2874796245   -0.3474951294
 H    0.0783838854    0.2595091690   -0.7689157500
 H    0.6609676895   -0.7600307199   -2.9976140000
 H    2.3498373208   -0.8024495863   -2.5353524221
 H    0.1108851061   -2.2766022530   -1.0492407199
 H    2.2006688064   -3.3347224369   -3.0168399356
 H    1.2255042240   -4.3349047855   -1.9522080393
 H   -0.8773496718   -3.4908232283   -3.0781834629
 H    0.1092946766   -2.5507491175   -4.2047652394
 H    0.2112862823   -4.3105219960   -4.2028969105
 H    3.1598969387   -2.3671493347   -0.6586468417
 H    2.5662173817   -2.0490309627    1.7667066516
 H    0.7811721873   -1.9762511391    1.3317943439