15

 N    0.1025798730   -1.1936399615    0.1143845309
 C    0.0482467338   -0.0410937865    0.0656538514
 C    0.0009835364    1.4292843978    0.0355871871
 C   -0.5847602417    1.9603203291    1.4001193932
 C    0.6559155137    2.2976740830    2.1861723889
 C    1.7517532547    2.3175055093    1.4334146728
 C    1.4713076511    1.9975293136   -0.0122438807
 C   -0.7973297349    1.8665097828   -1.1150495144
 N   -1.4188658527    2.2498461163   -2.0097593978
 H   -1.2066921433    2.8454298065    1.2223275404
 H   -1.2219216169    1.2077474135    1.8713840556
 H    0.6130576146    2.5285126715    3.2436111235
 H    2.7482442129    2.5671532767    1.7768992943
 H    2.1580273783    1.2689149922   -0.4503855991
 H    1.5066054210    2.8945328857   -0.6415027063