18

 C   -0.0364945976    1.5824901445   -0.0258358171
 C    0.1543400180    0.0683549030    0.0263331253
 C    1.2903422813   -0.8353795743   -0.3341827972
 N    2.7127312608   -0.5590354016    0.0594822616
 C    2.8310704665    0.7573786368    0.7205196725
 C    2.2330498504   -0.3593163673    1.4799413769
 C    0.7873741646   -0.7473169289    1.1387313926
 C    0.0773365443   -1.7908583976    1.8737688039
 O    0.4593749292   -2.2780929849    2.9144745131
 H    0.4390388688    2.0238252341   -0.9071141313
 H   -1.1053843060    1.8062241477   -0.0858510712
 H    0.3471774782    2.0846034194    0.8639342991
 H   -0.7521834467   -0.4507151981   -0.2899481920
 H    1.1512465427   -1.6641651151   -1.0177732855
 H    3.8682294540    0.9809317051    0.9562048290
 H    2.2668783125    1.6061696071    0.3668068476
 H    2.7383532742   -0.8537695870    2.3007982745
 H   -0.8679410052   -2.1276787229    1.3876512481