23

 C   -0.0811305816    1.5677183683   -0.0952330773
 C    0.0154608425    0.0624978872   -0.0694444538
 C   -0.0132819422   -0.6390307767   -1.2082328248
 C   -0.0090648779   -2.1409366962   -1.3089086898
 C   -0.3575349402   -2.7936418837    0.0329548828
 C    0.4251940755   -2.1233445504    1.1619610736
 C    0.0965238417   -0.6238503328    1.2891871382
 C    1.1077124243    0.0251424141    2.2464527049
 O    0.5629941861    1.2292102625    2.7698683621
 H    0.7920338483    2.0469959215    0.3582951445
 H   -0.1840971926    1.9312452107   -1.1215504775
 H   -0.9424161795    1.9169792168    0.4861394057
 H   -0.0660545928   -0.0941330726   -2.1495504532
 H   -0.7168587688   -2.4592897501   -2.0848993743
 H    0.9762277078   -2.4921426555   -1.6529624219
 H   -1.4330151643   -2.6828333091    0.2225233129
 H   -0.1489280276   -3.8686598143    0.0053748035
 H    0.2278658542   -2.6192251447    2.1192832900
 H    1.5013335761   -2.2389374936    0.9670175351
 H   -0.8816453909   -0.5164449846    1.7837596001
 H    1.3221638408   -0.6841215406    3.0616460116
 H    2.0547978348    0.2097797204    1.7142498786
 H    1.2319108063    1.6468543533    3.3202943690