16

 O   -0.1876174912    1.3780916870   -0.0713050514
 C    0.0066259849    0.0012316082   -0.0428945134
 C   -0.1910848211   -0.7669829241    1.2501318920
 C   -1.2206005258   -0.8634329080    0.1464064635
 O   -2.4200138796   -0.1230532118    0.3275761040
 C   -3.4909238445   -0.7825893275   -0.3616018082
 C   -2.8730425036   -2.0281570586   -0.9359887440
 C   -1.5776541144   -2.0620329783   -0.6342006636
 H   -1.1456680985    1.5123859519   -0.0357089826
 H    0.7847016099   -0.3288637586   -0.7264579199
 H    0.4332835823   -1.6313788027    1.4534760503
 H   -0.4805864949   -0.1842307789    2.1182855135
 H   -4.3015222104   -0.9938837289    0.3513045717
 H   -3.9008213673   -0.1170939336   -1.1366199765
 H   -3.4310108449   -2.7562467737   -1.5095636478
 H   -0.8594273009   -2.8240946626   -0.9055047576