16

 C   -0.1070559728   -1.1675293309   -0.1147161321
 C   -0.0043075594    0.0185002111    0.0403243789
 C    0.0887373082    1.4571083102    0.2444163851
 O    1.3237422020    1.9381090967   -0.2620064152
 C    1.4606436801    3.3274511892   -0.1348414472
 C    1.9270894742    3.8930091243    1.2310100111
 O    3.0909797102    4.4844684080    0.6188401299
 C    2.8118374651    3.8468024258   -0.6454962475
 H   -0.1914282339   -2.2168042435   -0.2555162142
 H   -0.7521612105    1.9616022306   -0.2612913014
 H   -0.0057460248    1.6839425017    1.3191594002
 H    0.5850105954    3.8452510620   -0.5512504204
 H    1.2907129513    4.6440037454    1.7128447131
 H    2.1893957646    3.1092561578    1.9544844572
 H    3.5140297953    3.0348835296   -0.8713963947
 H    2.7924502150    4.5620223022   -1.4746579828