16

 C   -0.1029918846    1.5574923074   -0.1266622806
 C   -0.0048629379    0.0549280949   -0.0199783197
 O   -1.1673036692   -0.6390870663   -0.3780199088
 C    1.2998829327   -0.6517226699   -0.2376886934
 C    0.6841766728   -0.6040338272    1.1690184836
 C    1.2928359193    0.1639933758    2.2005945902
 C    1.8088478671    0.8123252997    3.0834593685
 C    2.3933420001    1.5463048637    4.0725354331
 N    2.8927806615    2.1747222759    4.9135126193
 H    0.8010192096    2.0468187231    0.2430373424
 H   -0.2437386012    1.8536558104   -1.1727776735
 H   -0.9573073999    1.9224014517    0.4506162733
 H   -1.3113966328   -0.5107347632   -1.3227889371
 H    1.2751058632   -1.6179486243   -0.7275693433
 H    2.1928413767   -0.0602840823   -0.4042865930
 H    0.2035329926   -1.5214918793    1.4939969292