12

 N   -0.0426066213    1.3138090547   -0.1181770621
 C    0.0670287736   -0.0265429780    0.0934201003
 O    1.1201780821   -0.6067636781    0.2667838353
 C   -1.2165346414   -0.7248658364    0.0857197038
 C   -2.2470197394   -1.3504718879    0.0922528163
 C   -3.5302736163   -2.0489655092    0.1170646732
 N   -3.4248037684   -3.3870382746   -0.1104764900
 O   -4.5798866490   -1.4706812955    0.3163997783
 H    0.7953681009    1.8719749491   -0.0956528220
 H   -0.9382101367    1.7628876976   -0.2013533143
 H   -2.5309839559   -3.8351388769   -0.2152991748
 H   -4.2622545782   -3.9454915248   -0.0778509840