19

 C   -0.5382631005    1.1761920895   -0.3892579547
 C   -0.1272201823   -0.2324726980   -0.8098824634
 C    1.3685813921   -0.3824267586   -1.0531399359
 O    2.1374120599    0.5411985610   -0.9164773465
 C    1.8677263575   -1.7613507322   -1.4967925452
 C    1.4261447260   -2.1115882913   -2.9064117514
 C    1.3292063227   -3.5251584003   -3.3427704961
 N    0.1076132951   -2.7151284251   -3.1704053536
 H   -0.0287049891    1.4736849397    0.5306961603
 H   -0.2698970249    1.9052447832   -1.1578895336
 H   -1.6175433582    1.2304514783   -0.2221782521
 H   -0.4165594649   -0.9729302282   -0.0500773682
 H   -0.6491935711   -0.5437551909   -1.7247168830
 H    2.9603220898   -1.7398021358   -1.4397140068
 H    1.5013299537   -2.5303117883   -0.8033494868
 H    1.7076597623   -1.3729166662   -3.6548255112
 H    1.5585065864   -3.7979666347   -4.3686836338
 H    1.5475868638   -4.2976632553   -2.6095368117
 H   -0.3382509085   -2.9661131769   -2.2905561764