17

 N   -0.0416640961   -1.1318469784   -0.0826233484
 C    0.0001071967    0.0226998131   -0.0437929011
 C    0.0139910429    1.4765001178    0.0508614756
 C   -0.1329243108    2.0669250423    1.4913858484
 C    1.4027545359    1.9292265220    1.5479828452
 N    1.4228252567    2.0444339107    0.0372866636
 C    1.2844928503    3.4757470294   -0.3087090633
 C    0.4196268648    4.2493027471    0.7233295591
 O   -0.5460357546    3.4107981600    1.3693409846
 H   -0.6605048498    1.9060505043   -0.6941233429
 H   -0.7839023422    1.5827482008    2.2217211172
 H    1.9813904469    2.6783431488    2.0908853622
 H    1.7267314401    0.9295743211    1.8445153005
 H    2.2835514353    3.9221798094   -0.3520910193
 H    0.8585027889    3.5318441007   -1.3151738705
 H    1.0654135077    4.7013017030    1.4871941490
 H   -0.1394944027    5.0600434278    0.2490205102