20

 C   -0.0281086888    1.4802348720   -0.0622507050
 C   -0.0628796564   -0.0134130396    0.0467436153
 N   -1.1252845317   -0.6864401135   -0.1219895856
 C   -1.0374302021   -2.1135749118   -0.0828368412
 C   -0.0842123302   -2.8248955949   -1.0322740566
 C    0.2095464142   -2.7844072260    0.4444380044
 C    0.1058156184   -4.0527450598    1.2616564279
 C    1.2506255612   -1.8027220250    0.9392671310
 O    1.1819129365   -0.5173028490    0.3076678498
 H    0.7059272521    1.7869289977   -0.8148421738
 H   -1.0142011056    1.8507204845   -0.3399012493
 H    0.2818441857    1.9265942589    0.8885514710
 H   -1.9937317676   -2.5934195958    0.1008371041
 H   -0.4028786707   -3.7691102802   -1.4612098405
 H    0.4980341481   -2.1972644411   -1.6986444639
 H   -0.7050215449   -4.6878579552    0.8925224709
 H    1.0319333757   -4.6387388231    1.2130149902
 H   -0.0962421705   -3.8332124075    2.3166669867
 H    1.1273306933   -1.6636494967    2.0233334841
 H    2.2702910035   -2.1598172136    0.7598294105