17

 C   -0.0579194759    1.5152379952    0.0325533383
 C    0.0417891132    0.0089045410   -0.0017101054
 C   -0.8134546807   -0.8174688020    0.9422636221
 C    0.6892758603   -0.7760423946    1.1175560718
 N    1.4436648669   -1.8268883383    0.5003954548
 C    1.2809415218   -1.9072728171   -0.8652919472
 O    1.6859333355   -2.7992373099   -1.5748376395
 C    0.4799259569   -0.6656304646   -1.2953928827
 H    0.8712437977    1.9817174613   -0.3142085555
 H   -0.8698408323    1.8716736044   -0.6117508625
 H   -0.2573337093    1.8786763526    1.0456660500
 H   -1.4220268402   -0.2685013107    1.6537724425
 H   -1.2521118284   -1.7467051202    0.5912858172
 H    1.1419393794   -0.2912639446    1.9757286400
 H    1.7573776368   -2.6428925506    1.0036747748
 H   -0.3440258946   -0.9770731592   -1.9437419571
 H    1.1285647428   -0.0125846426   -1.8903446016