19

 O    0.0673786199    1.4977880998   -0.0325294912
 C   -0.0056423710    0.0943451817    0.0242029210
 C    0.1175701978   -0.6599746931    1.3843008336
 C   -0.9173087594    0.1025532067    2.2412470675
 C   -2.1279397774   -0.3002326315    1.3764855646
 C   -2.1200553550   -1.8441228745    1.5757819476
 O   -3.1615093292   -2.5746865549    0.9661348211
 C   -0.8190161805   -1.7733167165    0.7551160689
 C   -1.3943207635   -0.5272216580   -0.0215938550
 H    0.9943543250    1.7569480865   -0.0317678287
 H    0.6343360320   -0.3728049406   -0.7380178466
 H    1.0872423377   -0.8995056390    1.8207895513
 H   -0.9983684603   -0.2639530341    3.2684391781
 H   -0.7170210241    1.1750463209    2.2544618206
 H   -3.0508248664    0.2723785403    1.4570925290
 H   -2.0760148253   -2.2077097105    2.6070880416
 H   -3.1902271518   -2.3449125681    0.0310683986
 H   -0.3627590756   -2.6379874105    0.2744820885
 H   -1.9916555427   -0.5728547545   -0.9316451205