20

 C    0.0111858588    1.5765467704   -0.0162036480
 C    0.0047778923    0.0433509561    0.0031722976
 C    0.7662000892   -0.4930943243    1.2410906698
 C    2.1737501441   -0.1045895078    1.2536764509
 N    3.2860442779    0.2099077673    1.2469890630
 C   -1.4364981964   -0.5441717878   -0.0218506874
 C   -2.2610728279   -0.0546046101   -1.2313754001
 C   -1.4123506002   -2.0077768050   -0.0017383566
 C   -1.3896506312   -3.2102153064   -0.0130300615
 H    1.0319447597    1.9559910955    0.0829933593
 H   -0.3970912870    1.9718125597   -0.9486104195
 H   -0.5801386012    1.9835752424    0.8130808276
 H    0.5255114852   -0.3253935071   -0.8888608637
 H    0.2955237232   -0.1203691113    2.1598142284
 H    0.7055098378   -1.5853533840    1.2717804215
 H   -1.9449951586   -0.2020229048    0.8923523352
 H   -1.7528211592   -0.2982209699   -2.1694100294
 H   -3.2383361546   -0.5428373263   -1.2418065370
 H   -2.4198857205    1.0250812702   -1.1901512289
 H   -1.3775867913   -4.2723423368   -0.0154897714