16

 C    0.0697125727    1.4482542899   -0.0402373342
 N    0.0427510282    0.0018436313   -0.0691326377
 C    0.4662751847   -0.6259210296    0.9452879461
 N    0.5533262469   -2.0032543063    0.9810964638
 C   -0.0609608951   -2.7859465966   -0.0802253245
 C    0.6216963314   -4.0670037213   -0.2645578871
 C    1.1831148513   -5.1172125143   -0.4098382851
 C   -1.5117176151   -3.0000679232    0.1524160884
 N   -2.6359404975   -3.1611370638    0.3623979895
 H    0.7004000789    1.8256056585   -0.8537804114
 H   -0.9391948442    1.8402883883   -0.2117246843
 H    0.4464312355    1.8646717359    0.9079549417
 H    0.8376945326   -0.1516143985    1.8636581871
 H    0.6079038910   -2.4442056298    1.8857716900
 H    0.0258899897   -2.1708765409   -0.9850184241
 H    1.6797619789   -6.0463404597   -0.5479419182