21

 O   -0.0822304142    1.4377346526   -0.0273145375
 C    0.0118516439    0.0230338970    0.0511576136
 C   -1.3994032119   -0.5439626065   -0.0360698480
 C   -1.4460107145   -2.0704569562    0.0128309201
 C   -1.0756744059   -2.7062506075    1.3994653824
 C   -2.4163137319   -3.4235340114    1.6589881561
 C   -2.7259681659   -4.1253932780    0.3189596396
 C   -2.8859875875   -2.6381358449   -0.0601856302
 O   -3.3877400405   -2.3918657123    1.2924992705
 H    0.8037706438    1.8028723453    0.0506916303
 H    0.6254092977   -0.3808315131   -0.7720882638
 H    0.4893115825   -0.2914115829    0.9932028444
 H   -2.0027707093   -0.1361630348    0.7819732260
 H   -1.8486570456   -0.1876782868   -0.9718542539
 H   -0.8312085439   -2.4862383694   -0.7943680890
 H   -0.2236726345   -3.3902543958    1.3582511536
 H   -0.8802820476   -1.9515711682    2.1654190172
 H   -2.5955410230   -3.8773548163    2.6337057198
 H   -1.9498696155   -4.7235384972   -0.1665949504
 H   -3.6831197606   -4.6469036163    0.3416443096
 H   -3.5465818357   -2.2826211173   -0.8517997803