17

 C   -0.0074121279    1.4556134572    0.0082604978
 C   -0.0176008573   -0.0472533824    0.0493774266
 C   -1.1984044240   -0.8524748467   -0.4642100256
 C   -0.7042685052   -2.0700062566   -1.1405760725
 C    0.7284872898   -2.1523871439   -0.5946272440
 C    0.1147279244   -2.2580181154    0.8138255719
 C    0.6647585840   -0.8543346390    1.0880820397
 N    1.2530204077   -0.7489563358   -0.3068584543
 N   -1.3025510364   -2.1565326900    0.2472218078
 H    0.9452381763    1.8408188746    0.3793033853
 H   -0.1392991083    1.8188302200   -1.0162947081
 H   -0.8123492458    1.8695781371    0.6246681405
 H   -2.1371379369   -0.3780511887   -0.7238539823
 H   -1.1443642659   -2.5603155144   -2.0018513863
 H    1.4680753085   -2.8292354101   -1.0139499210
 H    0.2592435582   -3.0826251777    1.5065834419
 H    1.1720627288   -0.4738291982    1.9685993424