21

 C    0.0356024768    1.5294643133   -0.0175146244
 C    0.0016309563    0.0327911432    0.0102150306
 C    0.4849220183   -1.0270413511   -0.9682996537
 C    1.2382023848   -1.7722642945    0.1332590467
 C    0.4815015184   -0.8839778545    1.1789691005
 O    1.2552984477   -0.2210342260    2.1433206978
 C   -0.7773981634   -1.5945128914    1.6964759804
 C   -1.5960284989   -1.8664970404    0.4072542144
 C   -0.9942098628   -0.8999472797   -0.6177088032
 H    1.0310292680    1.9067515224    0.2385537704
 H   -0.2251019211    1.9061084845   -1.0123164128
 H   -0.6737775430    1.9613484556    0.6982097277
 H    0.8242137252   -0.8952049018   -1.9900304855
 H    1.1241886191   -2.8612328622    0.2055821904
 H    2.3006660534   -1.5151772736    0.1316308407
 H    1.5575545302   -0.8705983183    2.7869947524
 H   -0.5424313486   -2.5084577022    2.2548240867
 H   -1.3140011525   -0.9166223678    2.3698175605
 H   -1.5125235592   -2.9091362269    0.0815814384
 H   -2.6605704840   -1.6659531484    0.5594589907
 H   -1.6218410246   -0.5191956301   -1.4169487489