23

 O    0.0469801396    1.3020379316   -0.2260592125
 C   -0.0205959595   -0.1262266380   -0.1213274134
 C    0.8361825598   -0.7800029909   -1.2298185882
 C    2.2634870098   -0.7411591063   -0.6668755063
 C    2.0716244375   -1.1308096771    0.8150000896
 C    0.6576302277   -0.6121646108    1.1983003335
 C   -1.4882553229   -0.4948003121   -0.2067974459
 C   -2.5550756524    0.3751997351    0.4067563966
 C   -2.4389798526    0.2658992928   -1.0945872616
 H    0.9682950035    1.5666251131   -0.1512293154
 H    0.5233534722   -1.8230670068   -1.3652238017
 H    0.7095823639   -0.2644466084   -2.1848942617
 H    2.9570272437   -1.4009543243   -1.1951516484
 H    2.6782720428    0.2729176096   -0.7509049412
 H    2.1094514738   -2.2210259291    0.9116869211
 H    2.8592612596   -0.7326024476    1.4605728830
 H    0.6892325680    0.2229713626    1.9034510525
 H    0.0634233297   -1.3990905243    1.6713203736
 H   -1.6490592676   -1.5675634728   -0.1406583095
 H   -3.3903914837   -0.1095674343    0.9002161697
 H   -2.2348406619    1.3068315364    0.8568599673
 H   -2.0435255431    1.1266720429   -1.6198061643
 H   -3.1944426279   -0.2939374712   -1.6350739967