15

 O   -0.2513681100    0.0970677252   -0.3839736469
 C   -0.0328961794    1.1841059323    0.0844455785
 C    1.2526738595    1.9604565965   -0.0608735176
 N    2.4553404950    1.3093263439   -0.7578688545
 C    1.7152216642    1.5934591192   -2.0832654048
 C    1.4903073449    2.9064211730   -1.2904205783
 C    2.9796833793    2.7507019239   -0.9041146991
 C    0.7589064880    4.1000861382   -1.6604384074
 N    0.1731893570    5.0537954056   -1.9504470675
 H   -0.7967074537    1.7171422305    0.6941554287
 H    1.5080592373    2.4062792060    0.9075618721
 H    2.3827901036    1.6533807203   -2.9443444402
 H    0.8675254691    0.9375804463   -2.2630578431
 H    3.3142974240    3.2025713455    0.0318679545
 H    3.7153473410    2.8643810337   -1.7020063243