17

 C   -0.0244735451   -1.1549369579    0.1031825846
 C   -0.0082179616    0.0463908180    0.0644438510
 C    0.0262752214    1.4793345840   -0.0094017565
 C   -0.8545366938    2.2429088684   -1.0311085517
 C   -0.1199787301    3.5792732632   -0.8176458288
 C    1.3013390331    3.2410696219   -1.3419749150
 C    1.3741009590    2.3298503166   -0.1088087330
 C    0.4257052393    3.2662575677    0.6613722700
 O   -0.3301367839    2.1931689783    1.2264395673
 H   -0.0427939327   -2.2159990275    0.1449540587
 H   -0.7779422581    1.8714571826   -2.0556365406
 H   -1.8950019480    2.2289566235   -0.7032501529
 H   -0.6314898832    4.5038136355   -1.0774766085
 H    1.3860522108    2.8072718275   -2.3422937639
 H    2.0013773413    4.0757090746   -1.2418705918
 H    2.2750715075    1.8847085848    0.3075267531
 H    0.6966186540    4.0683411988    1.3446333680