21

 O    0.0654488269    1.4212184169   -0.0096845481
 C    0.0294061975    0.0076162468    0.0312245900
 C    0.8550989498   -0.5675156708    1.1876493850
 C    0.8348567731   -2.1038777919    1.1939979647
 C   -0.6021150230   -2.6438539013    1.2264978128
 C   -1.4357800030   -2.0771710922    0.0703521393
 C   -1.4305905430   -0.5285435330    0.0538792976
 C   -2.1612051333    0.0429039919    1.1850153845
 C   -2.7328259614    0.5413332822    2.1200381229
 H   -0.4346640934    1.7391174265    0.7527806923
 H    0.4723685166   -0.3173161028   -0.9186147554
 H    1.8782784985   -0.1862509418    1.1095997594
 H    0.4429667742   -0.1890491568    2.1326092088
 H    1.3420909780   -2.4773631697    0.2934033813
 H    1.4045150770   -2.4833981357    2.0491375034
 H   -0.5996773711   -3.7382248446    1.1781865193
 H   -1.0744506000   -2.3708210470    2.1783698409
 H   -1.0204239532   -2.4220698023   -0.8853971732
 H   -2.4671409728   -2.4400807536    0.1185759912
 H   -1.9168079176   -0.1797121551   -0.8656021150
 H   -3.2601108897    0.9673975443    2.9377523182