14

 O    0.1445867629    0.7616061393    1.4663227952
 C    0.0036853124    1.4464344840    0.4714999634
 C    1.1121996341    1.7726723997   -0.3938841874
 C    2.0535301757    2.0166027928   -1.1023894420
 C   -1.3629701957    1.9706909757    0.0885184061
 C   -2.4323509174    0.8958014317    0.0940724176
 N   -2.3812918615    1.8754862486    1.1588178185
 C   -1.4496458950    3.0815639681   -0.8175494873
 C   -1.5212505289    4.0030720663   -1.5849522364
 H    2.8837852196    2.2360548572   -1.7291659751
 H   -3.2512322257    1.0074845603   -0.6095808865
 H   -2.0989322056   -0.1192437387    0.2913402550
 H   -1.9074238876    1.4599540027    1.9633009510
 H   -1.5843785074    4.8236439123   -2.2561062219