20

 C    0.4818738883    1.4519360666    0.3323605088
 C   -0.0679778708    0.0814149561   -0.0183496473
 O    0.9238080238   -0.6246535213   -0.7556401870
 C    0.5482311070   -1.9301680188   -1.1319221614
 C   -0.4074727970   -1.9064852140   -2.3233229977
 O   -1.1775987056   -2.7905032043   -2.5904708126
 C    1.7983837406   -2.6965050693   -1.5531491337
 C    2.8927486064   -2.0051044644   -2.2799568801
 N    3.0703570969   -2.4370372502   -0.8796353388
 H    1.3889261390    1.3599046753    0.9364482572
 H    0.7272792053    2.0121428127   -0.5741444025
 H   -0.2581008355    2.0208905770    0.9024504024
 H   -0.3238321686   -0.4847281654    0.8907932010
 H   -0.9902899583    0.1747389850   -0.6126767967
 H    0.0591306332   -2.4605582225   -0.2999544631
 H   -0.2920266122   -0.9987835895   -2.9599021443
 H    1.5940872758   -3.7424277166   -1.7661915962
 H    3.4848617591   -2.5502483011   -3.0087792311
 H    2.7780908867   -0.9431023670   -2.4722726716
 H    2.9480202158   -1.6227608781   -0.2800792656