21

 C   -0.1529407696    1.5546423595   -0.0127921600
 C    0.0432561584    0.0402819770   -0.0275021472
 C    0.9763584524   -0.5153468765   -1.1014939714
 C    2.3847806057   -0.5902390799   -0.4895427776
 C    2.2783786016   -0.0869973339    0.9440331927
 C    0.8316070317   -0.5819137440    1.1556748545
 O    0.9189742529   -1.9639772241    0.7700519868
 C    1.4927830753   -1.8133469544   -0.5252582094
 C    1.7437745505   -3.0932541146   -1.2553019563
 H    0.7971797163    2.0962513756   -0.0342805558
 H   -0.7287380955    1.8750794949   -0.8872160249
 H   -0.7055584023    1.8731431527    0.8784152754
 H   -0.9339330546   -0.4543174680   -0.0818355580
 H    0.8117072804   -0.3728674795   -2.1619391760
 H    3.2822737357   -0.5093830853   -1.0883467633
 H    2.9747355906   -0.5899161900    1.6211228465
 H    2.3906645390    0.9941399016    1.0523607647
 H    0.3991488230   -0.5007783115    2.1514916927
 H    0.8106566637   -3.6453779422   -1.4084075682
 H    2.1873093123   -2.8925106251   -2.2344979134
 H    2.4300403524   -3.7350987723   -0.6930686919