17

 C   -0.1659412468    1.4405373466   -0.4107122213
 O   -0.2228345976    0.0078966322   -0.4932589587
 C    0.9623862360   -0.6137552096   -0.6513707675
 O    2.0225901959   -0.0524835849   -0.6961679682
 C    0.7437829456   -2.1246670501   -0.8001655832
 C    1.9901428588   -2.9095173175   -0.4035356831
 O   -0.3413544948   -2.5919311630   -0.0109830550
 C    0.3929974447   -2.4237864620   -2.2701853337
 O    0.4563187400   -1.6400802656   -3.1779224752
 H    0.4322369974    1.7482734393    0.4500044017
 H    0.2777169329    1.8517062348   -1.3199518457
 H   -1.1975850278    1.7731391725   -0.3005600694
 H    2.1546192978   -2.8075720667    0.6720126386
 H    1.8505829429   -3.9697973153   -0.6318427283
 H    2.8638536723   -2.5298832688   -0.9351032983
 H   -1.0317953165   -1.9186625715   -0.0513121025
 H    0.0297786992   -3.4676493205   -2.4009587802