20

 O    0.0645013590    1.3930033894   -0.2458142362
 C    0.0338630221    0.0004650423    0.0225952662
 C   -1.4228618609   -0.4386484478    0.0528950674
 C   -2.1761896402   -0.2042367046   -1.2729189797
 C   -3.3324926579   -1.2080333322   -1.2207479012
 C   -2.6467656474   -2.4818665290   -0.6655358372
 C   -1.5912905971   -1.9536144881    0.3598480305
 C   -3.5745828070   -3.4551887343   -0.0996839134
 N   -4.3139137792   -4.2184342340    0.3561513992
 H    0.9820843042    1.6800143910   -0.2616194354
 H    0.5693387110   -0.5696421044   -0.7564879835
 H    0.5143654934   -0.2321958360    0.9866572544
 H   -1.9225306716    0.1406859090    0.8376795586
 H   -2.5054786221    0.8294027396   -1.3909882347
 H   -1.5187698987   -0.4348902442   -2.1220061501
 H   -4.1036550543   -0.8700965053   -0.5200139556
 H   -3.8148723687   -1.3851250838   -2.1849387400
 H   -2.1222691004   -2.9757451327   -1.4915921203
 H   -0.6505132408   -2.5008674411    0.2461633077
 H   -1.9313276133   -2.1168259938    1.3844595733