19

 C    0.2794663201    1.4986831741   -0.1039587831
 C    0.0378447879   -0.0010266860    0.0136165131
 O    0.6248977097   -0.5964239151   -1.1571456019
 C    0.6562520476   -1.9997956358   -1.1834478233
 C    2.0526066129   -2.5496703044   -1.0451531313
 O    3.1066326587   -1.6553102580   -0.9831261587
 C    1.0461969447   -2.6892483599    0.1055951975
 C    1.1040703413   -1.8272343644    1.3074293869
 C    0.6173674368   -0.5879154096    1.2804346910
 H    1.3504733149    1.7200407571   -0.0623755798
 H   -0.1176123914    1.8738234702   -1.0504859062
 H   -0.2139960135    2.0268833517    0.7172443099
 H   -1.0486056382   -0.1893359710   -0.0127481164
 H   -0.0676229989   -2.4454745379   -1.8621526201
 H    2.3109506054   -3.4613336503   -1.5756314524
 H    2.7060112163   -0.7771393774   -1.0616719762
 H    0.6627239890   -3.6946300834    0.2588716179
 H    1.5462196634   -2.2368087110    2.2110911605
 H    0.6245051734    0.0464034812    2.1619328327