21

 C   -0.0209656738    1.4459090938   -0.3778472128
 C   -0.0191568477   -0.0324432802    0.0094851248
 O    0.5593684343   -0.2291593102    1.2998071627
 C   -1.4169729645   -0.6575393303   -0.0773821023
 C   -1.4118006158   -2.1588248333    0.2704306960
 C   -2.7405851841   -2.7578035448    0.2604357709
 C   -3.8552010408   -3.2169323897    0.2596613600
 C   -5.1863149817   -3.8195718697    0.2110458173
 O   -5.7081304916   -3.9422844772   -1.1067559831
 H    0.9858750090    1.8625491622   -0.2887871048
 H   -0.3674529398    1.5870068291   -1.4065696606
 H   -0.6885742536    2.0183257926    0.2786608706
 H    0.6521804945   -0.5769153324   -0.6675842309
 H    0.0558553268    0.3014977574    1.9278750568
 H   -2.0936076261   -0.1292898511    0.6078568380
 H   -1.8226787785   -0.5131320109   -1.0851613239
 H   -0.7620054155   -2.6926669054   -0.4363744083
 H   -0.9486465975   -2.2873305342    1.2553319940
 H   -5.1638663737   -4.7957583708    0.7222350528
 H   -5.9051842937   -3.1972653277    0.7560005746
 H   -5.0307662360   -4.3686072072   -1.6419311917