21

 C   -0.1935342140    1.6031654871    0.0022699069
 C    0.0010013090    0.0894229947    0.0102310846
 C   -1.3310849944   -0.6264370104   -0.2330065272
 C    1.1350815373   -0.4853885765   -0.9198653770
 C    1.7634850747   -1.2322128629    0.2920734700
 C    2.8948331507   -0.4967540657    1.0544035320
 O    2.6647345267    0.9098225959    0.9363001370
 C    1.9169718766    0.1862388863    1.9240276131
 C    0.7324006786   -0.5472729823    1.2440630910
 H    0.7524382783    2.1269180245    0.1473634725
 H   -0.6240977008    1.9298590810   -0.9519825980
 H   -0.8856585369    1.9118880759    0.7951703539
 H   -1.7431104931   -0.3563570497   -1.2121431608
 H   -1.2143921476   -1.7157275773   -0.2099380007
 H   -2.0697226326   -0.3533533738    0.5297233484
 H    0.7692960633   -1.1409738736   -1.7143843742
 H    1.7858439775    0.2753748124   -1.3539942698
 H    1.8558788955   -2.3168644129    0.2485257199
 H    3.9182457883   -0.8092543397    1.2317212804
 H    1.9942746572    0.5472629331    2.9439045038
 H    0.1304332257   -1.1344090859    1.9405435043