19

 C    0.0786314637    1.5733706110   -0.0131593433
 C    0.0287021788    0.0293506778    0.0406122604
 C    0.8551089032   -0.4960043222    1.2366142880
 C   -1.4331605494   -0.5035109007    0.0664711091
 C   -2.2499307782   -0.0650004189    1.3000216038
 C   -3.6090794652   -0.6001531951    1.2571075078
 N   -4.6806234853   -1.0295478865    1.2108092314
 C    0.6380833155   -0.4896022767   -1.1972988986
 N    1.1153051005   -0.8967031139   -2.1680027152
 H    1.1076640949    1.9180616700   -0.1418229426
 H   -0.5155735863    1.9590942759   -0.8459761729
 H   -0.3027057595    2.0033734927    0.9172099325
 H    0.4795409366   -0.0806238359    2.1759271911
 H    0.8147829480   -1.5870207972    1.2958595336
 H    1.9022840985   -0.1997740710    1.1368982116
 H   -1.9483557537   -0.1662600295   -0.8378699435
 H   -1.4117477874   -1.5966243738    0.0259121196
 H   -1.7784389204   -0.4081736687    2.2266996394
 H   -2.3158754441    1.0262158927    1.3609825978