20

 C   -0.0068438024    1.4428668858   -0.0477658483
 C   -0.0353745292   -0.0750359366   -0.0357678363
 C   -1.3001634065   -0.6463085921    0.5766799455
 C    0.7078784904   -0.7367298669   -1.1391024073
 N    1.3164736211   -0.6144326566    0.2613810754
 C    1.2257915583   -2.1161030391    0.3951643472
 C    0.6718511603   -2.2415506040   -1.0233442483
 C   -0.1298342629   -3.2533119148   -1.7158063234
 O    1.2697965515   -3.0829942749   -1.9894767426
 H    0.9448519915    1.8087292324   -0.4400370329
 H   -0.8196223842    1.8430527633   -0.6633680658
 H   -0.1249915697    1.8336273337    0.9685904502
 H   -2.1753623126   -0.2054623744    0.0881456842
 H   -1.3837192452   -1.7293097631    0.4789813696
 H   -1.3552503067   -0.3917277199    1.6413346082
 H    1.1098803038   -0.2006627764   -1.9939446330
 H    2.2329388552   -2.5322951278    0.4708049990
 H    0.6196977462   -2.4712162913    1.2334060739
 H   -0.3933654249   -4.1796708759   -1.2064325631
 H   -0.8026083542   -2.9566111113   -2.5195522522