21

 C   -0.7179864806    1.2646782571    0.2156588278
 C    0.1100432448    0.0177890511   -0.0153751248
 C    0.9166338362   -0.0928468432   -1.3316452936
 C    2.1231078530   -0.1702596638   -0.3997267812
 O    1.3311430674    0.0144654223    0.7756487171
 C    3.2813368447   -1.1088720415   -0.3217182109
 C    3.9130049179   -1.2962078594   -1.7042200263
 C    4.1166434060    0.2529062606   -1.8143220153
 C    3.4871683105    0.4284899081   -0.4289723369
 H   -0.1410678120    2.1632269119   -0.0241305217
 H   -1.6169024773    1.2480990497   -0.4107015224
 H   -1.0318486553    1.3268825812    1.2624013031
 H   -0.4804890150   -0.8808483408    0.2069899939
 H    0.7211558176   -0.9769755444   -1.9412587031
 H    0.8748388808    0.8003672108   -1.9603006773
 H    3.3984270703   -1.7584222566    0.5378982415
 H    4.8627874569   -1.8340533295   -1.6701474526
 H    3.2784816665   -1.7663824867   -2.4638768309
 H    5.1729014378    0.5285102276   -1.8418164768
 H    3.6072702836    0.7602013994   -2.6414077574
 H    3.7883393961    1.1368743959    0.3340046178