19

 C    0.1530641493    1.4324815486   -0.0314653886
 N    0.1437840005   -0.0228701613   -0.0427286632
 C    0.2248983267   -0.6554011842    1.2613787324
 C    0.0445106632   -0.6729640855   -1.2379192141
 O   -0.0216406114   -0.0912630726   -2.3076648063
 C   -0.0099540978   -2.2407211170   -1.2321955821
 N   -0.4654600219   -2.7773129372   -2.5123650484
 C    1.3087259625   -2.7800387205   -0.8934690580
 C    2.4046610325   -3.1905527984   -0.6194654925
 H    1.0881137261    1.8073230380    0.4028278851
 H    0.0597621092    1.7861967722   -1.0563624862
 H   -0.6813869584    1.8165395419    0.5685451282
 H    0.4129225066   -1.7231219254    1.1792501806
 H    1.0574779407   -0.2217613063    1.8283173516
 H   -0.6950952342   -0.4931233192    1.8395861408
 H   -0.7278708949   -2.5644456849   -0.4686158634
 H   -1.4168080332   -2.4507126998   -2.6653991071
 H    0.0775531781   -2.3178014426   -3.2407838197
 H    3.3689153463   -3.5695117959   -0.3857970794