20

 C   -0.0785303422    1.5407753980   -0.0123685275
 C    0.0635866323    0.0158903296   -0.0041291359
 C    0.7157592966   -0.5267091475   -1.2841305671
 C    0.9845458490   -2.0201921549   -1.1692055005
 O    1.5343256903   -2.4698967470   -2.3960832873
 C    1.9601014404   -2.2654720465   -0.0129817495
 N    1.5085676745   -1.5983073459    1.1970542880
 C    0.7654123746   -0.4495603162    1.2803688480
 O    0.6212589427    0.1286828099    2.3427315027
 H    0.8980872820    2.0239154026   -0.1236716086
 H   -0.7121246004    1.8625823099   -0.8444067343
 H   -0.5163785310    1.8829608305    0.9262378453
 H   -0.9456395849   -0.4170609243    0.0695932915
 H    0.0739944526   -0.3329007293   -2.1493125078
 H    1.6679174310   -0.0137358485   -1.4736065480
 H    0.0362799434   -2.5387858650   -0.9528098211
 H    1.6185046785   -3.4281724317   -2.3596935743
 H    2.0488061154   -3.3405439343    0.1882900827
 H    2.9513846693   -1.9093296939   -0.3310822285
 H    1.9531313959   -1.8455265957    2.0699528623