19

 C    0.4845910182    1.4323669615    0.0307034362
 C    0.6075329255   -0.0842339314   -0.0932763417
 N    0.9138139015   -0.6684319122    1.2117838469
 C   -0.2040026266   -1.1134251036    2.0364870964
 C    0.7416434423   -2.1012134331    1.4429640755
 C    0.2888281948   -3.0750435467    0.3658500551
 C    1.4358113709   -3.4969096539   -0.5310641317
 O    1.4096890762   -3.4833164571   -1.7341233652
 H    1.4041259078    1.8601983266    0.4391466551
 H    0.2913033177    1.8838150979   -0.9471728027
 H   -0.3400140660    1.7035750725    0.6982062128
 H   -0.3169463757   -0.4891087280   -0.5367842034
 H    1.4261798230   -0.3400867787   -0.7757688358
 H   -0.1598982732   -0.8621749010    3.0931962771
 H   -1.2032152354   -1.0710659808    1.6016296382
 H    1.5135385792   -2.5147645457    2.0929217446
 H   -0.0808212170   -3.9826132914    0.8663699908
 H   -0.5199762740   -2.6856965828   -0.2549855708
 H    2.3447638009   -3.8369748520    0.0194125326