17

 C    0.5792623582    1.4107389730   -0.1094766241
 C   -0.0880688226    0.0483686396    0.0240615935
 C    0.2410907077   -0.9304847687   -1.1155186373
 N    1.3585355721   -1.6733176319   -0.5426705266
 C    2.2556413404   -2.3859293249   -1.3225827450
 O    3.1896922050   -3.0335127074   -0.9367379691
 C    1.3484834431   -1.5617168242    0.8600512433
 N    2.0662146585   -2.2114793292    1.6628302443
 O    0.4020171636   -0.6324994245    1.1973820846
 H    1.6547525946    1.3025544560   -0.2820535076
 H    0.1460664987    1.9658820407   -0.9477180864
 H    0.4330857951    1.9929718558    0.8036507029
 H   -1.1670851968    0.1604330752    0.1541172802
 H   -0.6056113139   -1.5916663711   -1.3358870250
 H    0.5334297462   -0.4177371477   -2.0350957838
 H    1.9967879473   -2.2698404033   -2.3953085826
 H    1.8728011426   -1.9104281276    2.6169178487