19

 C   -0.0052818603    1.5376080841    0.2150438349
 C    0.0162358552    0.0306981659    0.0182520347
 C    1.1233956569   -0.6290268090   -0.8966480800
 C    1.2199061709   -1.8284919449    0.1128254002
 C    2.4678739842   -2.3043164911    0.8351710005
 O    3.3981389508   -1.2921072098    1.2036450814
 C    2.4237569843   -1.7131328090    2.1988677916
 C    1.2645129390   -0.7662402042    2.2484223123
 C    0.5953929120   -0.8628275550    1.0941075350
 H    0.9773049375    1.9000413702    0.5333713568
 H   -0.2754905883    2.0512574880   -0.7137577943
 H   -0.7358499856    1.8263816399    0.9782840455
 H   -0.9660626591   -0.3296690494   -0.3122832627
 H    0.8362445217   -0.8665195396   -1.9231929316
 H    2.0419799284   -0.0390557024   -0.8813231378
 H    0.5837129019   -2.6652817468   -0.1927137182
 H    2.8981970100   -3.2827298924    0.6385458403
 H    2.8585513744   -2.1862083245    3.0743043084
 H    1.1573586362   -0.0001143799    3.0065446431