13

 N    0.0789762379   -1.0977622874   -0.4026984240
 C    0.0328879896    0.0358081964   -0.1795853540
 C   -0.0150096571    1.4332255185    0.0962892834
 N   -1.1905766263    2.0942639396    0.1120717195
 N   -0.7365522879    3.3195192469    0.4043743187
 C   -0.9747288743    4.7553481809    0.6701241216
 C    0.6022350787    4.8493580537    0.8459037069
 C    0.5853965929    3.3568290940    0.5434068542
 N    1.1237925254    2.1692285840    0.3581188288
 H   -1.3903688334    5.2929122950   -0.1835617780
 H   -1.5648783508    4.9397340577    1.5691373649
 H    1.1047913178    5.4752880356    0.1070812886
 H    0.9311578775    5.1236999853    1.8492936794