20

 C    0.5043068159    1.3206950670    0.0457451024
 C   -0.0098637078   -0.0909348061    0.1693033203
 N   -0.3680773694   -0.6189552131    1.2784880814
 O   -0.1950978052    0.2752688302    2.3509130177
 C   -0.1312788410   -0.9079777431   -1.0724991801
 C    1.0419849834   -1.5556490511   -1.7775226098
 C    2.0299981521   -2.1619855604   -0.7711015411
 C    0.8797255446   -3.0531573262   -0.2004721329
 C   -0.0974655752   -2.4032545238   -1.1899684908
 H    1.4569672703    1.4287783662    0.5757881028
 H    0.6539758944    1.5930004009   -1.0006161862
 H   -0.1912156181    2.0246994833    0.5123354660
 H   -0.5147713081   -0.2431179599    3.0965357866
 H   -0.8116512816   -0.4513143491   -1.7923241196
 H    1.2630603648   -1.3283075749   -2.8140803047
 H    2.8151648084   -2.7499307407   -1.2508580647
 H    2.5001022645   -1.4597057714   -0.0755041417
 H    1.0421579458   -4.1094616199   -0.4268487348
 H    0.6369024873   -2.9406915185    0.8566539845
 H   -0.8890069951   -2.9277409793   -1.7129140556