17

 C    0.0585565566    1.4423553482   -0.0176183843
 C   -0.0341668421   -0.0429266553    0.0159006019
 N   -1.0899229419   -0.7442937788    0.1589262861
 C   -0.6870786662   -2.1358391804    0.0915509444
 C   -1.4441722002   -3.1026094038    0.9611982256
 C   -0.0833429835   -2.5471952740   -1.2408003761
 C    0.8161974467   -2.0840122946   -0.1286986047
 O    1.1548774688   -0.7074914505   -0.1252752327
 H    0.7912478820    1.7943208148    0.7151310050
 H    0.3929236450    1.7842547400   -1.0025526215
 H   -0.9184451783    1.8728524390    0.1998706337
 H   -2.4906376845   -3.1615960528    0.6451226608
 H   -1.0126983798   -4.1060548195    0.8984710351
 H   -1.4256999042   -2.7833136191    2.0079864936
 H   -0.0562257472   -3.6102351339   -1.4566315081
 H   -0.2314718096   -1.9027595942   -2.1011532853
 H    1.5764978984   -2.7097318453    0.3214475065