14

 O    0.0778301597    1.3139661675    0.2244201872
 C    0.0673776269   -0.0230872895   -0.0015761516
 C    0.0824230567   -0.7594273656   -1.1726942795
 C    0.0582890022   -2.1158250633   -0.7250892413
 C    0.0305697332   -2.1406014424    0.6565597147
 N    0.0362726464   -0.8342333909    1.1089972778
 N    0.0061845909   -3.3942823920    1.1827415130
 C    0.0190823588   -4.1646239446    0.1085178925
 N    0.0504138655   -3.4501209690   -1.0739878535
 H    0.0991095600    1.7653340040   -0.6246399451
 H    0.1068120649   -0.3585796173   -2.1732035212
 H    0.0208066310   -0.5038026216    2.0574724644
 H    0.0069984000   -5.2434339097    0.1147537009
 H    0.0642066938   -3.8454144457   -1.9975296284