18

 C    0.0807484280    1.4222161014    0.0975382319
 C    0.0020174106   -0.0602144539   -0.0116724258
 C    0.0150602057   -0.8745501904   -1.0682733154
 C   -0.0401324135   -2.2423376684   -0.4264333441
 N    1.0532437951   -2.0612179858    0.6808445355
 C   -0.0495102463   -1.0415253577    1.1787489473
 C   -1.1031496616   -0.6272127961    2.2399245353
 O   -2.1344467108   -1.1489304185    1.3080123307
 C   -1.0638889452   -2.0369781679    0.7838056290
 H    0.9403841063    1.7333864125    0.7041063925
 H    0.1812852650    1.8793804690   -0.8905749525
 H   -0.8142822904    1.8446658352    0.5699903058
 H    0.0828409927   -0.6570072197   -2.1238578620
 H    0.0200374187   -3.1503490420   -1.0269737398
 H    1.0156827078   -2.8880492123    1.2882087615
 H   -1.0916735611   -1.2034728508    3.1717521634
 H   -1.2458096155    0.4376321062    2.4403495876
 H   -1.1025595357   -2.9553521207    1.3831587691