16

 N   -0.1095701975    1.3715264234   -0.0624885239
 C   -0.0882976967    0.0503034180    0.3496757566
 O    0.6667586007   -0.3673412440    1.2020495526
 N   -1.0787114451   -0.7314955446   -0.2381346308
 C   -1.0670263057   -2.1555875834   -0.1300309712
 C   -1.2148555973   -2.7676588680    1.2493368864
 C   -2.3638401331   -2.8394584382    0.2971776619
 C   -0.2417105587   -2.8501804704   -1.0979914910
 N    0.4023370560   -3.3846085793   -1.8967124489
 H    0.6980500258    1.8902083579    0.2463711235
 H   -0.4159723875    1.5915759928   -0.9975288306
 H   -1.6017348822   -0.3458331938   -1.0094730811
 H   -0.6432624540   -3.6661401815    1.4451924321
 H   -1.2471665617   -2.0571507873    2.0637289411
 H   -3.2064804746   -2.1768557475    0.4558009889
 H   -2.5986062485   -3.7876926742   -0.1710005057