19

 C   -0.6448533036    1.0126526300   -0.4267738438
 O   -0.2919110105   -0.3547964122   -0.5876970840
 C    1.0239987070   -0.5595481553   -1.0092610540
 C    1.3341508171   -2.0576841581   -0.9185086685
 C    0.9566870184   -2.8189464369   -2.2082261241
 C   -0.0010434782   -1.9914759292   -3.0799833182
 C    0.6134706817   -0.6418166784   -3.3852368881
 O    0.6255314894   -0.1078500275   -4.4583381818
 O    1.2334646353   -0.0291830296   -2.3289032509
 H    0.0159798563    1.5048998324    0.3011443145
 H   -0.5942354790    1.5590182081   -1.3747258832
 H   -1.6689234875    1.0304620461   -0.0496480613
 H    1.7124011639    0.0350384199   -0.3942584787
 H    2.3988467942   -2.1800200954   -0.7039345868
 H    0.7834176724   -2.4379968472   -0.0547108209
 H    1.8594528807   -3.0344623673   -2.7888894147
 H    0.5041250454   -3.7843695668   -1.9673610381
 H   -0.2225702722   -2.4773518903   -4.0312473624
 H   -0.9430513907   -1.8261201024   -2.5469462950