17

 O   -0.1039021611    1.3910284216   -0.1390359062
 C    0.0036867566   -0.0081584360   -0.0460315229
 C    0.5274978077   -0.5145816747    1.3446336814
 C   -0.7751665335   -1.2339919527    1.7808682039
 C   -1.1145944677   -2.1050720620    0.5505746833
 C   -1.3811589354   -0.6899230444    0.0070794880
 O   -1.8085666212   -0.2785575195    1.3546502098
 C   -0.9020800097   -1.6815180968    3.2036004502
 O   -0.5446206219   -2.7621792576    3.5967215010
 H   -0.7479655068    1.6503467912    0.5334090307
 H    0.6214463988   -0.3350199153   -0.8854247142
 H    1.3800061096   -1.1943157498    1.2872467800
 H    0.7816603451    0.3277562791    1.9916514702
 H   -0.3233394006   -2.7098452526    0.1040494522
 H   -2.0305189311   -2.6789631391    0.6907293059
 H   -2.1024170135   -0.4567816660   -0.7748994729
 H   -1.3456275753   -0.9177977254    3.8810131497