12

 O   -0.5534523947    0.8784403492   -1.0456275058
 C    0.1508523861    0.7478728531   -0.0791391787
 C    1.4495929953    1.4988100668    0.1300817785
 C    1.3381271107    2.7601766823    1.0319852707
 C    2.3470277940    2.0186807804    1.9317045212
 O    2.3107994614    0.8494849977    1.0822015170
 H   -0.1115270129    0.0745629725    0.7692767257
 H    1.9353194860    1.6662780183   -0.8385387276
 H    1.6776571287    3.6893133758    0.5750963365
 H    0.3530131381    2.9161018428    1.4758899221
 H    3.3502008147    2.4594318474    1.9717569746
 H    2.0153659325    1.7925412638    2.9510910258