19

 O    0.4335659821    0.6399382752    0.8953087844
 C   -0.0257344494   -0.5356535239    0.2628159164
 C   -1.4235546115   -0.3241570346   -0.3222786866
 C   -2.0919511286   -1.6129940003   -0.8173601158
 C   -2.7816199408   -2.1066267721    0.4417335554
 C   -3.4513811049   -3.3958581791    0.6012695283
 O   -2.1533372860   -3.1720117659    1.1645469012
 C   -3.1311477008   -0.8505140780    1.2237076205
 O   -2.2849702973    0.1837420664    0.7201032537
 H   -0.3036489297    0.9407445606    1.4418494454
 H    0.6821564665   -0.7724734192   -0.5397323040
 H   -0.0442494564   -1.3928300940    0.9559913545
 H   -1.3751737689    0.4562097405   -1.0885180575
 H   -2.8293642183   -1.3900253804   -1.5951966497
 H   -1.3857462770   -2.3513660802   -1.2033038108
 H   -4.2609914011   -3.5019104085    1.3230772528
 H   -3.4871310119   -4.0936982874   -0.2346521808
 H   -4.1775634161   -0.5538574543    1.0712321168
 H   -2.9630510198   -1.0070872850    2.2951531756