23

 C    0.0926015313    1.6090906818    0.0429082770
 C   -0.0795290553    0.0863841393   -0.0141041136
 C    0.6498232329   -0.5340548100   -1.1991925454
 C    2.2030767884   -0.5363069338   -1.2318667815
 C    2.1733454666   -1.9632864806   -1.8352026915
 C    0.6943881893   -2.1134843391   -1.3897073413
 C    0.4967128840   -2.9247317798   -0.1079033798
 C   -0.2748050306   -2.5702238817   -2.4509402373
 O   -0.0057009956   -2.7549319117   -3.6117590297
 H    1.1490013228    1.8855971671    0.1251149426
 H   -0.3052286620    2.0865883773   -0.8592451666
 H   -0.4308827405    2.0343301622    0.9045463823
 H    0.2864617115   -0.3543999029    0.9210089504
 H   -1.1485593084   -0.1571875320   -0.0712680466
 H    0.2705073270   -0.0866578440   -2.1261250365
 H    2.6894064704    0.2470723652   -1.8172653892
 H    2.6257462582   -0.5228261458   -0.2218751711
 H    2.2487375817   -1.9689130133   -2.9244802837
 H    2.8761834304   -2.6935935342   -1.4269630432
 H    1.1484438305   -2.5679857541    0.6946071753
 H   -0.5367601571   -2.8715337428    0.2522758906
 H    0.7373299398   -3.9792994052   -0.2825360277
 H   -1.3225572852   -2.7001603818   -2.0859276735