17

 C    0.0485106251    1.5546471382    0.0101467764
 C   -0.0403447181    0.0309616873    0.0032360932
 C   -1.4730429109   -0.4893417865    0.0120263292
 O   -2.4288212235    0.2639841486    0.0233673322
 C   -1.6569378363   -1.9511854658    0.0059902186
 C   -2.8844079837   -2.5993959750    0.0123593782
 N   -2.6183379938   -3.9167937934    0.0035442809
 N   -1.2943437235   -4.2012767277   -0.0083240766
 C   -0.7114725077   -3.0107890842   -0.0069268286
 H    1.0923777201    1.8805882999    0.0034182799
 H   -0.4535726998    1.9781429861   -0.8632497612
 H   -0.4394852082    1.9693470268    0.8956646134
 H    0.4664592424   -0.3910131590   -0.8755137260
 H    0.4803037742   -0.3997289915    0.8695775889
 H   -3.8853987317   -2.2000471312    0.0223027728
 H   -3.2761553423   -4.6787612319    0.0048437072
 H    0.3667784976   -2.9488482108   -0.0151367185