22

 C    0.0882603326    1.3697218210   -0.1156268652
 O    0.0463017560   -0.0345623808   -0.0657512580
 C   -1.2686780228   -0.5372168180    0.0685214735
 C   -1.1867779163   -2.0581503221    0.1233228608
 C   -2.5476976401   -2.7830293877    0.0536638909
 C   -2.3245243950   -4.3019218989    0.0523343042
 C   -3.4782018521   -2.3850158572    1.2034543351
 O   -3.2488760757   -2.3999081326   -1.1389621852
 H    1.1352241003    1.6645004035   -0.2239617902
 H   -0.4831044676    1.7676090491   -0.9699007921
 H   -0.3148328047    1.8256169399    0.8033762302
 H   -1.7342039071   -0.1310346558    0.9816479178
 H   -1.8944530003   -0.2258102825   -0.7822776465
 H   -0.5690693724   -2.3879287507   -0.7227562860
 H   -0.6514820266   -2.3614448741    1.0306213957
 H   -1.8500848850   -4.6376553475    0.9800439147
 H   -3.2804245976   -4.8218805997   -0.0579090669
 H   -1.6736172576   -4.5994273336   -0.7785681661
 H   -3.7343336497   -1.3242646728    1.1497220621
 H   -4.4086778967   -2.9566529075    1.1457766083
 H   -3.0076106937   -2.5822673476    2.1710595819
 H   -2.7272765777   -2.6965164946   -1.8928901492