20

 C    0.0441242304    1.5659017174    0.0682594996
 C   -0.0005779922    0.0292535872   -0.0290569751
 C   -1.3887562632   -0.5321590243   -0.0467094022
 C   -2.1049847064   -0.9569557935   -1.0971153027
 C   -3.4658054969   -1.3885343382   -0.6302488289
 C   -3.4066599766   -1.1623694582    0.8840286982
 O   -4.2587173825   -1.3892422881    1.7157823017
 N   -2.1481163926   -0.6383925359    1.1452821759
 C   -1.6963096699   -0.3794712740    2.4944008845
 H    1.0790665407    1.9207009215    0.0561332297
 H   -0.4844675139    2.0182130425   -0.7757609540
 H   -0.4235359879    1.9303073585    0.9875066604
 H    0.4970670382   -0.2875410185   -0.9508957160
 H    0.5718487479   -0.4073486072    0.7985025007
 H   -1.7597170361   -0.9737439226   -2.1199739781
 H   -4.2889559443   -0.8008634367   -1.0544235728
 H   -3.6994893636   -2.4405691830   -0.8315845270
 H   -2.5279098631   -0.6319469236    3.1549620527
 H   -0.8316398913   -0.9988881010    2.7583044138
 H   -1.4312320065    0.6725272378    2.6428332697