21

 O    0.0175339158    1.4449314833   -0.4740967081
 C    0.0969615980    0.0265308237   -0.4261092838
 C   -1.2064266854   -0.5038991438    0.1713747194
 C   -2.4349628733   -0.1382701951   -0.7038965674
 C   -2.7744609956   -1.4588891861   -1.4425900290
 O   -1.7204416654   -2.3754771524   -1.1426577282
 C   -1.2491104970   -2.0240883779    0.1348862707
 C   -0.2686572296   -2.9534135910    0.7646450920
 C   -1.6869849096   -2.8655708108    1.3082420540
 H    0.8030356438    1.7746299505   -0.9197214868
 H    0.2347071088   -0.4034009733   -1.4300363343
 H    0.9466478054   -0.2988206070    0.1933298996
 H   -1.3058006201   -0.1145829358    1.1882751910
 H   -3.2757099299    0.1922250408   -0.0898454160
 H   -2.1879160185    0.6773979709   -1.3855954884
 H   -3.7362841906   -1.8644962298   -1.0973169953
 H   -2.8183989962   -1.3558786711   -2.5299874092
 H   -0.0042998691   -3.8411936517    0.2013553741
 H    0.5385020420   -2.5353762101    1.3567505948
 H   -1.8418208054   -2.3895769393    2.2709962008
 H   -2.3478658981   -3.6978710241    1.0935855502