14

 C    0.0145378472    1.3459140591    0.0062940140
 O   -0.0083519551   -0.0835834259    0.0352817523
 C   -1.2244955528   -0.6432555945    0.0317192345
 N   -2.3501323151    0.0269029561    0.0022743629
 O   -3.3460937239   -0.9434450250   -0.0014071586
 C   -2.7681731228   -2.1696510260    0.0299959955
 C   -1.4149902940   -2.0612683268    0.0506391658
 N   -0.3953579748   -3.0118022235    0.1506340471
 H    1.0673955253    1.6289110377    0.0125791585
 H   -0.4774171595    1.7214044560   -0.8962624320
 H   -0.4965653689    1.7564002773    0.8823924895
 H   -3.4442775309   -3.0094262903    0.0324101436
 H   -0.6028148587   -3.8807806952   -0.3228779332
 H    0.4892075940   -2.6440853090   -0.1754096599