19

 C   -0.0836667723    1.5742817260    0.0822032542
 C    0.0278571658    0.0614672216   -0.0193264694
 C    1.1240991103   -0.5605947469   -0.9605646447
 C    1.7260009661   -1.2992531723    0.2454593343
 C    2.3481206592   -2.6597681655    0.2594136045
 N    2.1199675480   -0.2420804899    1.1927881704
 C    0.6929142019   -0.6851999442    1.1558870086
 C    0.0668437541   -1.2366249355    2.3093168260
 N   -0.4544327553   -1.6917889872    3.2385590633
 H    0.8813515009    2.0120373399    0.3495504572
 H   -0.4045978771    2.0012199028   -0.8737220876
 H   -0.8174774494    1.8648433065    0.8413115287
 H   -0.9449048474   -0.3892019014   -0.2330932654
 H    0.7018344908   -1.2323884951   -1.7105968689
 H    1.8025331897    0.1488960889   -1.4398889017
 H    3.3505698544   -2.6309952622   -0.1828250119
 H    2.4374274036   -3.0421528129    1.2815408276
 H    1.7477071549   -3.3705759870   -0.3166337594
 H    2.5542486218   -0.6912338756    2.0000722942