15

 N   -0.0902294132    1.0556117996   -0.6980192600
 C   -0.0647433397   -0.0199588902   -0.0489301663
 C   -1.2678034187   -0.8918944530    0.2791316810
 C   -0.6769848065   -2.1406821128    0.8996216777
 C    0.3357671523   -2.9224727162    0.0993648868
 C    0.8033140358   -1.8413344981    1.0476161591
 O    1.0869000531   -0.5874058509    0.4651637415
 C    1.5715303069   -2.1324964094    2.2240140539
 N    2.1793249057   -2.3946922885    3.1718639232
 H    0.8439803386    1.4568690625   -0.7888215184
 H   -1.9151518070   -0.3657882469    0.9869199019
 H   -1.8531651673   -1.0775863123   -0.6245520788
 H   -1.2072453757   -2.6459217321    1.6962009922
 H    0.5150282083   -3.9506380274    0.3909450713
 H    0.4576169875   -2.7098971642   -0.9579463650