16

 N    0.0117686188    1.1832177455   -0.1026659608
 C   -0.0292939709   -0.0603423077    0.0322199174
 O    1.0109231353   -0.9866539263    0.1954393335
 C    0.0516011473   -2.0660612456    0.0202871859
 C   -0.9451534186   -2.0902183319    1.1139422353
 C   -1.1173091342   -1.0892507013   -0.0286331136
 C   -1.9322408692   -1.4843488356   -1.2379353348
 O   -1.4406262220   -2.7930204033   -1.5982592199
 C   -0.0593870278   -2.8963124524   -1.2317796300
 H    0.9716761797    1.5309289172   -0.0678275680
 H   -1.6550920308   -2.9107308982    1.1023842156
 H   -0.6578768149   -1.7281879623    2.0940013806
 H   -3.0056617869   -1.5956525620   -1.0667792903
 H   -1.7750972453   -0.7573269060   -2.0463089278
 H    0.6123176322   -2.4747262692   -1.9947754084
 H    0.1547167272   -3.9617832008   -1.1155461448