15

 O   -0.1062097252   -0.0302845355    0.1349250759
 C   -0.0284850495    1.1728569195    0.0259902877
 C    1.2415524828    1.9042293215    0.0240976344
 C    1.3962716022    3.2230718138   -0.1075542861
 C    2.8692492561    3.5646518086   -0.0946689040
 O    3.5254281103    2.3266309567    0.1874256152
 C    2.5896370492    1.2459901220    0.1514039170
 C    3.3049916889    4.1487437683   -1.3692192485
 C    3.6481230500    4.6348838655   -2.4129184598
 H   -0.9350785055    1.8068833790   -0.0808894114
 H    0.6198911482    3.9658627378   -0.2392720259
 H    3.1092341655    4.2723142875    0.7139812905
 H    2.6844429583    0.6560129619    1.0709103370
 H    2.7964431433    0.5762880768   -0.6953050599
 H    3.9616023656    5.0616644866   -3.3339038522