19

 C   -0.0049322349    1.4679842927   -0.0208384056
 C    0.0052281995   -0.0482065434   -0.0067427078
 C    1.3607298137   -0.6863296637   -0.1479054334
 C    0.6538855025   -0.6981261273    1.1887864392
 C    0.7135932176   -2.2415088270    1.1051591454
 C    1.1981991708   -3.0592006153    2.2652325935
 C    0.1124503439   -2.8080557563   -0.1213042916
 N    1.4616228432   -2.1980245129   -0.2054016541
 H    0.9028544226    1.8763136411    0.4359695409
 H   -0.0641851212    1.8501872889   -1.0453351633
 H   -0.8622190971    1.8607175492    0.5362113325
 H   -0.8778634724   -0.4868261306   -0.4604385824
 H    2.2285931078   -0.1314727708   -0.4831342567
 H    0.8859485209   -0.1534265659    2.0955989814
 H    0.4203012774   -3.1454680412    3.0334971440
 H    1.4743352274   -4.0663651091    1.9407083974
 H    2.0782334574   -2.5977717078    2.7272429027
 H    0.1617513617   -3.8885973250   -0.2279556933
 H   -0.7375513806   -2.3638619855   -0.6255450890