17

 N   -0.1892381795    1.4113472648    0.1668037455
 C    0.0778437180   -0.0097852171   -0.0585024644
 C    0.8612681247   -0.5500351233    1.1629794961
 O    0.1917591601   -0.1676044275    2.3445662896
 C    0.9544941428   -2.0796324027    1.1565306078
 N    1.7147582802   -2.5322842030    2.3124226053
 C    2.2223028667    0.0570929226    1.1299532985
 N    3.2371906804    0.6037904332    1.0453079190
 H    0.6293674750    1.9692451265   -0.0561078844
 H   -0.9513571617    1.7382692609   -0.4145370867
 H   -0.8800267635   -0.5379662965   -0.0890220812
 H    0.6258509345   -0.2342968160   -0.9842884533
 H   -0.1533098740    0.7219112576    2.1520210279
 H   -0.0832349045   -2.4512671350    1.1083672832
 H    1.4686241061   -2.4019000974    0.2440542745
 H    1.2245187770   -2.2668804632    3.1605079036
 H    1.7953206776   -3.5428744940    2.3101548591