21

 C   -0.0134478773    1.5365131181    0.0270151467
 C    0.0569141740    0.0104855359    0.0148074410
 C    0.7601347206   -0.5260253171    1.2716640691
 O   -1.2921574417   -0.4520283043   -0.0289543107
 C    0.7737157997   -0.4684006383   -1.2558078507
 O    0.6611017613   -1.8830224114   -1.3063944038
 C    1.1771844279   -2.4593977555   -2.4779327341
 C    0.9800585538   -3.9639554290   -2.3991460448
 O    1.3330484516   -4.7265217477   -3.2576553034
 H    0.9872347782    1.9789044094    0.0389253165
 H   -0.5520602906    1.9017801645   -0.8519204910
 H   -0.5502158448    1.8742185204    0.9176138848
 H    0.1865906131   -0.2480523983    2.1597333450
 H    0.8366867963   -1.6159920540    1.2328206599
 H    1.7720903022   -0.1181243845    1.3688913675
 H   -1.2471976168   -1.3912357386   -0.2447224406
 H    0.2922249768   -0.0240974502   -2.1402574986
 H    1.8335795995   -0.1694193408   -1.2511523165
 H    0.6705215870   -2.0814684360   -3.3817938947
 H    2.2527679696   -2.2498714342   -2.6006254819
 H    0.4747312698   -4.2998414787   -1.4664977596