16

 C   -0.0066116388    1.4742234440    0.1070780173
 C    1.3024426938    0.7208773836    0.0026497712
 N    2.0799169819    0.3478698166    1.1888227447
 C    1.1986281776   -0.4289580146    1.9751320401
 C    0.0625519893   -0.7313682318    1.3022016088
 O   -0.7354437602   -1.5596015787    2.0201413386
 C   -0.0666292364   -1.7724088261    3.1948492336
 C    1.1256504242   -1.1010776748    3.2327289264
 C   -0.0314877266   -0.0437307183    0.0035117090
 H   -0.2936555160    1.9187968850    1.0537033427
 H   -0.2974533799    2.0380924266   -0.7730892297
 H    1.8844871696    0.8316919807   -0.9053248439
 H    2.5026052007    1.1397002644    1.6591584286
 H   -0.5559157932   -2.4326745286    3.8913879978
 H    1.8342178964   -1.1138013390    4.0458049727
 H   -0.4200021827   -0.5270594088   -0.8853303081