20

 C   -0.0230535225    1.5665217315    0.1540854920
 C   -0.0174239574    0.0409540844   -0.0481066269
 C   -1.3997465406   -0.5610608561   -0.0569606718
 C   -2.0373334468   -0.9414662856   -1.1714551524
 C   -3.4341907026   -1.5002123151   -1.1618303406
 C   -3.7355082101   -2.1666426733    0.1799034284
 N   -3.3081586052   -1.2953472636    1.2653088116
 C   -2.0850274741   -0.6692465133    1.2709022733
 O   -1.6083695264   -0.2031724392    2.2947874844
 H    0.9995040050    1.9571014589    0.1543986879
 H   -0.5762815286    2.0662364341   -0.6480863784
 H   -0.4894242305    1.8194499492    1.1082482802
 H    0.4820617179   -0.2063774934   -0.9914766299
 H    0.5621698845   -0.4170593408    0.7602696822
 H   -1.5521657950   -0.8144801507   -2.1373156210
 H   -4.1539143170   -0.6903791883   -1.3519380681
 H   -3.5662607694   -2.2275206691   -1.9697360993
 H   -4.8072287149   -2.3583423195    0.2853910215
 H   -3.2207101203   -3.1396207436    0.2266781434
 H   -3.6733302961   -1.4668646666    2.1911793235