15

 O   -0.1104704100    0.0869195630   -0.3593006926
 C   -0.0329153838    1.2317364523   -0.0578873192
 O   -1.0347809298    2.0436971398    0.4307558183
 C   -0.1236441341    3.1788390891    0.5649941885
 C    1.0246183212    2.3368402736   -0.0131318354
 C    2.4101988879    2.2019920929    0.7019071009
 C    3.0758568512    2.6668092464   -0.6035922413
 O    2.6863643295    1.7397637092   -1.6199230466
 C    1.7752583387    2.7813536224   -1.2833085074
 H   -0.4623440007    4.0235808430   -0.0403053493
 H   -0.0217949137    3.4743742216    1.6118676668
 H    2.5095589375    2.9127727944    1.5260946445
 H    2.6885950696    1.2000061288    1.0338450452
 H    4.0036866029    3.2062035546   -0.7482838055
 H    1.4197213234    3.4260117288   -2.0790486070