14

 N   -0.0659888353    1.2760154754    0.1819981992
 C    0.0142609352    0.0189084236    0.0106980500
 N    1.1172009948   -0.8096687684   -0.1546505605
 C    0.7805836106   -2.2118929158   -0.0674297368
 C    0.1451449320   -2.6783371571    1.2069506013
 C   -0.7221423679   -2.2966737372    0.0009169927
 C   -1.2228750803   -0.8867663457   -0.0512095663
 O   -2.3590777323   -0.5155942923   -0.1649349231
 H    0.8578225207    1.7144136066    0.2117669835
 H    2.0065916101   -0.5044496283    0.2144671346
 H    1.3611958069   -2.8852523089   -0.6872930397
 H    0.1684315304   -3.7365374710    1.4428798848
 H    0.1644673471   -2.0148550324    2.0651201860
 H   -1.2963221120   -3.0704176585   -0.4900384258