23

 C   -0.0230923045    1.4886266481    0.0149156388
 C    0.0603084380   -0.0238941324    0.0347032990
 C    1.4100265259   -0.6412042956   -0.2093817072
 C    0.7819948151   -0.6575094648    1.1923335818
 C    0.7060476665   -2.1979021862    1.1577543337
 C   -0.6365356267   -2.9463218403    1.0358500205
 C   -0.4715496995   -3.7956811824   -0.2474152525
 C    0.3686821527   -2.9201541292   -1.2080731053
 C    1.3469811466   -2.1812497666   -0.2729389126
 H    0.8864540754    1.9384766204    0.4276543811
 H   -0.1461133289    1.8667205112   -1.0059324565
 H   -0.8700058015    1.8479376204    0.6097707903
 H   -0.8244220316   -0.5143626563   -0.3674098299
 H    2.2358085972   -0.0398089723   -0.5733166486
 H    1.0549037318   -0.0704597229    2.0623530981
 H    1.3592670241   -2.6499634411    1.9076390367
 H   -0.8667993072   -3.5599256509    1.9117334682
 H   -1.4651813425   -2.2398782547    0.9155802425
 H    0.0848910373   -4.7109736058   -0.0088176363
 H   -1.4275841771   -4.1086304594   -0.6793420297
 H    0.8742160185   -3.5146070848   -1.9747308985
 H   -0.2788680965   -2.2089774016   -1.7325628509
 H    2.3452844367   -2.6243677728   -0.2933830228