13

 N   -0.0711191567   -0.9370276193   -0.8152124642
 C   -0.0003212728    0.0729804064   -0.2606495291
 C    0.0760201291    1.3560357798    0.4513734232
 C    1.3719072943    2.0140556237    0.3115476830
 C    2.4348291487    2.5632078090    0.1894943084
 C    3.7097245302    3.2189538448    0.0738623481
 C    4.4724402818    3.2031966652   -1.1908518143
 O    3.7820912196    4.3739910765   -0.7757332495
 H   -0.7227405115    2.0076121183    0.0741031044
 H   -0.1505082177    1.1762437816    1.5101211688
 H    4.2692455224    3.3180889848    1.0031267078
 H    5.5594717181    3.2534726854   -1.1494029803
 H    4.0518750944    2.6884900436   -2.0521695564