22

 C   -0.0487067558    1.7028240990    0.0434432745
 C   -0.0223132599    0.1983867716    0.3308321059
 C   -1.3074116070   -0.5055968190   -0.0836344780
 O   -1.5029254620   -0.3515467585   -1.5157884756
 C   -1.8838914838   -1.5735638716   -1.9801958419
 C   -2.2400535790   -1.6104243926   -3.4274935851
 N   -1.9019549083   -2.5552227103   -1.1741041140
 C   -1.4148905948   -2.0532066385    0.1245900901
 C   -0.1306166657   -2.7903812305    0.5158956046
 H    0.8868943560    2.1781607213    0.3528068800
 H   -0.1908411875    1.8903288376   -1.0241581730
 H   -0.8672135567    2.1942529653    0.5813285717
 H    0.8258374419   -0.2650309754   -0.1846322940
 H    0.1292812907    0.0269966772    1.4035550162
 H   -2.1592809661   -0.0069336396    0.3978773684
 H   -1.3955858727   -1.2671926192   -4.0335356987
 H   -2.5079420624   -2.6267390585   -3.7140464113
 H   -3.0790736467   -0.9372240257   -3.6300422797
 H   -2.1724163076   -2.2649154403    0.8876368767
 H    0.6616405089   -2.6336701894   -0.2221439000
 H    0.2370529782   -2.4680799910    1.4949927544
 H   -0.3344440796   -3.8631949817    0.5613786787