21

 O   -0.0918288894    1.4718036287    0.1133166085
 C    0.0224660574    0.0535708042    0.0572639672
 C   -1.3877621503   -0.5238164961    0.0381783163
 C   -2.2097353688   -0.1262702155   -1.2130479506
 C   -3.1955028384   -1.2929735144   -1.4574194672
 C   -2.5617310331   -2.5232242855   -0.8173225765
 C   -1.1239665600   -2.8508619746   -1.1382885828
 O   -0.4297035760   -2.2559552736   -2.2018108060
 C   -1.4346578571   -2.0486975096    0.0938287541
 H    0.7911350273    1.8452794363    0.0430896809
 H    0.5607529865   -0.2726592404   -0.8436248831
 H    0.5702167918   -0.3311803876    0.9335385726
 H   -1.9010546450   -0.1512641159    0.9350654461
 H   -2.7215062727    0.8283500096   -1.0746246439
 H   -1.5377726227   -0.0173581982   -2.0662169691
 H   -4.1547951499   -1.1019355940   -0.9626395780
 H   -3.4156177653   -1.4292097021   -2.5228854667
 H   -3.2119773937   -3.3445169181   -0.5328391992
 H   -0.8291326806   -3.8842955774   -0.9510316863
 H   -0.7974670784   -2.5966050272   -3.0240896290
 H   -1.2452351215   -2.5214809085    1.0523268527