17

 N   -0.7130278802    1.0037852034   -0.3153084511
 C   -0.2450308755   -0.1567638785   -0.1258502647
 O   -1.0146781092   -1.2540130455   -0.4266931955
 C   -0.2990637067   -2.4580522420   -0.1368358455
 C    1.0295948761   -1.9841386989    0.3862575835
 C    1.0452961138   -0.6524110454    0.3898072017
 C   -1.0799668462   -3.3266752006    0.8392851551
 C   -1.8881720382   -2.7198148969    1.9206758241
 N   -2.5421197356   -3.3750693949    0.7698413899
 H   -0.0248909163    1.7056791719   -0.0501302108
 H   -0.1793305696   -3.0114946654   -1.0809837629
 H    1.8130117934   -2.6593403151    0.7043586756
 H    1.8404536198    0.0054035477    0.7117785573
 H   -0.6089398248   -4.2939127043    1.0080478602
 H   -1.9984094443   -3.2375632708    2.8688833085
 H   -1.9251571333   -1.6363362016    1.9787074103
 H   -2.8627038131   -2.6506258433    0.1295180444