19

 C    0.6228280200    0.5571480918    0.5909687427
 C   -0.5726409274   -0.0286301708   -0.1579684336
 O   -1.5629220089    0.9635092472   -0.4153326322
 C   -0.1858486604   -0.7316271316   -1.4724415076
 C    0.6592154994   -1.9821680416   -1.2985893961
 C    1.6782166660   -2.3363393279   -2.3100065972
 O    2.0682472700   -1.7583834908   -1.0700159350
 C    0.0753210767   -3.0444682699   -0.5100061489
 C   -0.4392965496   -3.9131703638    0.1423093469
 H    1.3515197967   -0.2143992339    0.8513002896
 H    1.1409396453    1.2992178680   -0.0302404186
 H    0.2838960772    1.0510379865    1.5056845187
 H   -1.0775970266   -0.7593751480    0.4837823805
 H   -1.1295597572    1.6987616160   -0.8629468031
 H   -1.1114688685   -0.9993480137   -1.9934434826
 H    0.3675821629   -0.0338598236   -2.1133069878
 H    1.9510116576   -3.3807025506   -2.4482915719
 H    1.7901995828   -1.6981730574   -3.1859854057
 H   -0.8849263360   -4.6844542160    0.7210688021