19

 C   -0.0064277308    1.4770737788   -0.0191069515
 C   -0.0310853596   -0.0225551017   -0.0099543157
 C   -1.2399148267   -0.9341392182   -0.2359652811
 C   -0.3557257495   -2.0783351392    0.3223974928
 C    0.5550867379   -0.9807319013    1.0039926171
 C    1.2161721522   -0.8590485435   -0.3484849782
 C    0.7456744462   -2.2575007976   -0.7797906212
 C    1.7036816991   -3.3097721772   -0.4926415113
 C    2.4931568363   -4.1856088391   -0.2552591166
 H    0.9600889783    1.8601377732    0.3256569527
 H   -0.1786853294    1.8732394282   -1.0269053778
 H   -0.7805826525    1.8897201299    0.6378556669
 H   -2.0527738060   -0.6804708053    0.4515923437
 H   -1.6415468113   -1.0506494323   -1.2505538500
 H   -0.7851913811   -2.9544264436    0.8015788169
 H    0.9331099378   -0.8422768106    2.0062611227
 H    2.1609661643   -0.3880258705   -0.5878543535
 H    0.3676763002   -2.3628203862   -1.8050365591
 H    3.1909059843   -4.9586947338   -0.0491005870