20

 C   -0.1116503497    0.8150962451    0.5510841663
 N    0.1721582835   -0.5216978981    0.0653703265
 C    0.7402357478   -0.7601218686   -1.1342312409
 O    1.0571268061    0.1048341660   -1.9432656224
 C    0.9686976183   -2.2416526730   -1.4997096041
 O    1.6844332852   -2.2963654739   -2.7014227041
 C    1.7375162264   -3.0242241629   -0.4292192635
 O    0.8964696105   -3.2084322197    0.6979821410
 C    1.5184311041   -3.9281927569    1.7411183300
 H    0.0851937604    1.5148727663   -0.2614635596
 H   -1.1591767140    0.9037820587    0.8571816201
 H    0.5245155503    1.0762693173    1.4046958065
 H    0.0521687040   -1.3207154557    0.6738263407
 H   -0.0217147381   -2.7159432028   -1.6048557182
 H    1.7358148966   -1.3660183698   -2.9876433100
 H    2.0295099436   -3.9945338050   -0.8559932772
 H    2.6582213104   -2.4883024002   -0.1497028365
 H    1.8222089589   -4.9308285327    1.4067794178
 H    2.4088886060   -3.4050056843    2.1207200705
 H    0.7907348096   -4.0285818797    2.5496181371