16

 C   -0.2630533671    1.5500247701    0.0597817592
 C   -0.0032661349    0.0484126380    0.0316791339
 C    0.6848606342   -0.5381042124   -1.2749493600
 N    1.7923288259   -0.9665056317   -0.3991187735
 C    3.0043270890   -1.5299384227   -0.0749621851
 C    3.0888973690   -1.3198426037    1.2902336251
 N    1.9826016737   -0.6535288153    1.8012365731
 C    1.2467093992   -0.4750509968    0.7306484840
 H    0.6321769493    2.1114483128   -0.2253625901
 H   -1.0744960817    1.8210008074   -0.6236795395
 H   -0.5498227568    1.8668406122    1.0667393929
 H   -0.9130679661   -0.5017397384    0.2933207357
 H    0.1601898494   -1.3643773902   -1.7618661353
 H    0.9764837923    0.2105190518   -2.0169769731
 H    3.6657027639   -2.0037888676   -0.7793984044
 H    3.8990857907   -1.6179186537    1.9393407071