22

 C   -0.0468760071    1.5696288268   -0.0307559705
 C    0.0045538548    0.0399609364    0.0058988848
 C    0.7376088462   -0.5046795647    1.2358919942
 C    0.7837491647   -2.0380444944    1.2639102968
 N    1.4749972995   -2.5766465337    2.4222874332
 C    2.8265366409   -2.8079531703    2.5088945241
 C    3.1152477673   -3.2263695096    3.7876639396
 C    1.8903761457   -3.2461191866    4.5094051762
 C    0.9017578008   -2.8390059236    3.6430381745
 H    0.9607654187    1.9992354326   -0.0458739263
 H   -0.5757735012    1.9291868062   -0.9187348291
 H   -0.5624108569    1.9694135370    0.8493058011
 H   -1.0175482789   -0.3614202497   -0.0159294593
 H    0.4944769590   -0.3318744433   -0.9040317577
 H    1.7642862816   -0.1186772117    1.2624299784
 H    0.2501090794   -0.1479970537    2.1517852518
 H   -0.2334972628   -2.4450602861    1.2559924415
 H    1.2832756670   -2.4156783883    0.3648548207
 H    3.4619824294   -2.6588742550    1.6497326284
 H    4.0913126019   -3.5007907985    4.1575985974
 H    1.7478319190   -3.5385058720    5.5385099822
 H   -0.1609348987   -2.7172381378    3.7845799078