16

 C   -0.2756362719    1.7266681750    0.2043555587
 C    0.0002515809    0.2356231467   -0.0562436889
 C    0.7949023456   -0.4443868413    1.0588330612
 C    2.2687134454   -0.1270352001    1.0260510413
 O    2.8298785169    0.5160182349    0.1741506229
 C    3.0440614665   -0.6909408660    2.1544668181
 N    3.6394781526   -1.1321139465    3.0419896436
 C   -1.2945498740   -0.5069365830   -0.3344081014
 O   -1.6090166714   -1.5592354399    0.1591544230
 H    0.6635389353    2.2804330567    0.2685880552
 H   -0.8667776875    2.1633983649   -0.6066650653
 H   -0.8280179493    1.8687834036    1.1393434422
 H    0.5818680472    0.1711704285   -0.9883984775
 H    0.4070098243   -0.1813214121    2.0518879007
 H    0.6800731167   -1.5355298782    1.0011060803
 H   -1.9597910573    0.0060416168   -1.0653888440