17

 C   -1.0279327375    1.1628545076    1.1218246092
 N   -0.7517643537   -0.2708328772    1.5992988303
 C    0.7416708704   -0.5903932037    1.3108055961
 C    0.4245145434   -1.4187071071    0.0057810607
 C   -0.8880347416   -0.6794145691    0.1474253307
 C   -0.3249513082    0.7138201817   -0.2116965512
 C    0.2779807725    0.4541180120   -1.6410757511
 N    1.2553782587   -0.4844252048   -0.9175170892
 C    1.1173819175    0.4431742740    0.2715838633
 H   -0.5630532866    1.9723365994    1.6917008915
 H   -2.1117985275    1.2898723836    1.0866604025
 H    1.3594141964   -0.8976368212    2.1497612026
 H    0.5352452395   -2.4900177250   -0.1352300862
 H   -1.8682485020   -0.9681134564   -0.2321860662
 H    0.8679714021    1.2617008283   -2.0790897257
 H   -0.3763782545    0.0032028891   -2.3924896007
 H    1.8075145710    1.2808182890    0.3732712533