19

 C   -0.0224146435    1.5451400718    0.0027073659
 C    0.0847838020    0.0212737048   -0.0067744078
 C    0.8885513745   -0.5662491150   -1.1832586572
 C    1.1866863773   -1.9984392900   -0.7179363965
 C    1.5573545285   -1.8421144711    0.7745632214
 O    2.9633380605   -1.7249319408    0.9778445249
 C    0.7792000810   -0.5773414171    1.2436149114
 H    0.9712741483    2.0062677417    0.0550879627
 H   -0.5157199046    1.9178439651   -0.9015189255
 H   -0.5971297555    1.9007031941    0.8646505881
 H   -0.9301053181   -0.3956595755   -0.0671414922
 H    0.3529775218   -0.5162656608   -2.1358824797
 H    1.8236124594   -0.0016484469   -1.3153542181
 H    0.2794767022   -2.6081528653   -0.8121272183
 H    1.9838110098   -2.5034305437   -1.2696586684
 H    1.2813190449   -2.7287560364    1.3509670933
 H    3.2704319525   -0.9540311516    0.4888191093
 H    1.5025480778    0.1303694433    1.6656447776
 H    0.0646849613   -0.8018218466    2.0409029693