21

 C    0.0388360632    1.5488908465    0.0551287365
 C   -0.0240290247    0.0216780941   -0.0204710324
 C    0.6916446012   -0.5508175797   -1.2363080749
 O    2.0720500647   -0.1623876146   -1.1685051585
 C    2.7938904987   -0.6160331269   -2.2821033263
 O    2.8114434944   -2.0181771175   -2.3758821533
 C    1.4885717292   -2.5314510206   -2.5229179740
 C    0.6362304801   -2.0888819433   -1.3279837133
 O    1.1003620877   -2.6969613672   -0.1355462281
 H    1.0755183760    1.8926844676    0.0913844967
 H   -0.4372160449    2.0115608286   -0.8170548343
 H   -0.4749039209    1.9162590408    0.9483883728
 H    0.4132180383   -0.4296026253    0.8750882099
 H   -1.0678568575   -0.3142007303   -0.0598676327
 H    0.2520153993   -0.1302824270   -2.1590999465
 H    2.3659541317   -0.1860144197   -3.2078449526
 H    3.8278947305   -0.2896424064   -2.1538614259
 H    1.0447993462   -2.1810938203   -3.4693870330
 H    1.5759600603   -3.6197587765   -2.5514476966
 H   -0.4002132239   -2.4177168313   -1.4642666688
 H    2.0288267904   -2.4450292311   -0.0538456446