16

 C    0.0816950269   -1.2239590354   -0.0851787412
 C    0.0638854131   -0.0224751802   -0.0072741471
 C    0.0218994774    1.3908687336    0.1083296707
 N    0.1902257081    2.2896657356   -1.0651274635
 C    1.1357618482    2.4145219799    0.0529679911
 C    0.4404145106    3.2414130639    1.1679540365
 O   -0.4316388355    4.2980254376    0.7460689535
 C   -1.5812396146    3.4070616416    0.7442728514
 C   -0.7107048817    2.2158780295    1.2044355532
 H    0.1017793135   -2.2832647947   -0.1553470294
 H    0.6508763240    1.7445877844   -1.7932336426
 H    2.1980320207    2.2615894101   -0.0970746867
 H    1.0682296312    3.4971274549    2.0247252378
 H   -2.3255659655    3.7293670837    1.4812673840
 H   -2.0332594308    3.3235090481   -0.2468909925
 H   -0.9829842456    1.6654892474    2.1015204447