17

 C   -0.4181309851    1.4573510713    0.0109992119
 C   -0.1747470433   -0.0183507685    0.0102774228
 C   -0.1773495931   -0.8549790666   -1.0340759942
 C    0.1109073998   -2.2906250884   -0.6550229044
 C    0.3930051599   -2.2064210079    0.8399199313
 O    1.4960400753   -1.4004143966    1.2066480568
 C    0.1753858971   -0.7893663010    1.2516634141
 C   -0.2858311246   -0.4625777329    2.6243044672
 O   -1.1406280962    0.3475064318    2.8863624061
 H    0.4702435171    2.0025265559    0.3533280643
 H   -0.6705416530    1.8117689136   -0.9917185057
 H   -1.2289222682    1.7165862313    0.6976594657
 H   -0.3307874092   -0.5494923834   -2.0635017587
 H   -0.7420662678   -2.9527970554   -0.8503906937
 H    0.9689478014   -2.7069238186   -1.1970645842
 H    0.1919151988   -3.0493817909    1.4971565230
 H    0.2371052111   -1.0509277636    3.4097082876