17

 C   -0.4470987670    1.6240334775   -0.2713662959
 C    0.1452073093    0.2626709779    0.0340699782
 C    0.7863480886   -0.5880540853   -1.1406818739
 C    2.0433723023   -0.5860951720   -0.2866618118
 C    3.2016301263   -1.0993390819    0.2574272212
 C    3.2274389995   -0.4647274004    1.5357385685
 O    4.2221690015   -0.6116514507    2.4348409786
 N    2.1797564122    0.3252696959    1.7896184202
 N    1.5108718041    0.2627887775    0.6101227114
 H    0.2413853759    2.2207748033   -0.8768667368
 H   -1.3883707680    1.5113854467   -0.8192469083
 H   -0.6559622433    2.1713115907    0.6528293192
 H   -0.5405185014   -0.3444519004    0.6351433377
 H    0.3235687978   -1.5655043521   -1.2924105818
 H    0.8504279602   -0.0642603547   -2.0979226305
 H    3.9266236908   -1.7861291031   -0.1431005024
 H    3.9853629712   -0.0766156989    3.2029823466