21

 C   -0.3804149345    1.1557969240    0.0941120546
 O    0.5088623132    0.0793389921   -0.1621522609
 C    0.9827945570   -0.5208808938    0.9940771130
 C    0.1094065437   -1.4981751147    1.7619476072
 O   -1.1936952831   -1.6703885282    1.3137585453
 C   -1.7739376530   -2.8855588978    1.7530899563
 C    1.2782905595   -2.0058031892    0.9421515557
 C    1.0427143388   -2.7598856455   -0.3443344391
 O    2.3491830620   -2.4587652171    1.7310127026
 H    0.1116298215    1.9509013795    0.6743702977
 H   -0.6755257226    1.5599471654   -0.8771545418
 H   -1.2697287382    0.8147765489    0.6357987082
 H    1.6536867424    0.0939470478    1.5986392348
 H    0.2399385691   -1.5315433346    2.8452299719
 H   -2.7928035501   -2.9140831933    1.3600498408
 H   -1.2188057912   -3.7580680351    1.3840283690
 H   -1.8117119638   -2.9362417473    2.8513557728
 H    0.1321762605   -2.4127744351   -0.8336325959
 H    1.8768139157   -2.6066354936   -1.0393207736
 H    0.9619438892   -3.8322315989   -0.1417363196
 H    3.1675691341   -2.2415715336    1.2690709010