23

 C   -0.4531404824    1.4876234744   -0.3723100559
 C    0.0104694797    0.0372153997   -0.2364958762
 C   -1.1621904590   -0.9237038554   -0.4219794516
 C    1.2655266407   -0.2989153285   -1.1043128080
 C    2.1627163724   -0.4029878141    0.1791427640
 C    3.2158263450    0.6866462799    0.3379611835
 C    0.8655650648   -0.2255738812    1.0445119771
 C    2.7638810051   -1.7784386615    0.3378965917
 O    3.9232760981   -2.0161503285    0.5614715825
 H    0.3750771293    2.1915839299   -0.2421111418
 H   -0.8906212735    1.6675955225   -1.3612709627
 H   -1.2146886616    1.7269891966    0.3790701910
 H   -1.6174475750   -0.8029551610   -1.4118973309
 H   -0.8434342022   -1.9674075874   -0.3270195569
 H   -1.9413028486   -0.7435721786    0.3278959962
 H    1.1743134453   -1.2405054892   -1.6554943532
 H    1.5849175831    0.4761807281   -1.8060177212
 H    2.7737192024    1.6804100539    0.2215829919
 H    3.6852685882    0.6318520919    1.3246203916
 H    4.0079684662    0.5724938725   -0.4079250639
 H    0.9208833929    0.5979365962    1.7614156049
 H    0.5708137156   -1.1298375637    1.5868666275
 H    2.0236547136   -2.6082390065    0.2286878603