22

 C    0.7555058710    1.4858484442   -0.2369180480
 C   -0.0163798526    0.1929722966    0.0089724764
 C    0.3725604285   -0.9641463716   -0.9646634482
 C    1.1804210872   -1.5999232390    0.1724405911
 C    1.6320208492   -3.0199537637    0.3177649463
 C    2.6489171283   -1.9174743813    0.1174895425
 C    0.4837793495   -0.6948791100    1.2053901950
 C    1.2843485014   -0.0785600616    2.3433795886
 H    1.8320465663    1.3027812733   -0.3218638507
 H    0.4276044940    1.9535040879   -1.1719371678
 H    0.6018608373    2.2111226149    0.5694209436
 H   -1.0876471945    0.4132334005    0.0451268899
 H   -0.4862760352   -1.5715862962   -1.2684912088
 H    0.9270457085   -0.6727554506   -1.8626124601
 H    1.5708829932   -3.4803611032    1.2996467056
 H    1.4476720796   -3.7046489047   -0.5045410620
 H    3.1491966579   -1.8505220807   -0.8438188439
 H    3.2736477090   -1.6435638223    0.9618239009
 H   -0.3761778394   -1.2301264313    1.6278442508
 H    2.1587162370    0.4701426197    1.9810882818
 H    0.6694698088    0.6168877642    2.9255301677
 H    1.6417333951   -0.8517738552    3.0335566793