14

 O   -0.7178780474    0.7832846992    0.4586397553
 C    0.2076331937    0.9452505330   -0.2962145536
 C    1.3135413616    1.9515022899   -0.1128497177
 C    1.1233360398    3.4643299878   -0.4966417350
 C    0.1923179044    3.6736415384    0.7179721832
 C    1.4334013355    2.8476452071    1.1551759739
 O    2.2841575996    3.7747528837    0.3663404726
 C    1.8618626342    2.4680629128    2.4784737689
 N    2.1878366811    2.1490532725    3.5398249380
 H    0.3066544719    0.3353036395   -1.2214916561
 H    2.2751366163    1.5667712260   -0.4607675567
 H    1.0998607478    3.9095304835   -1.4887260245
 H    0.1812431196    4.6919249333    1.1043896330
 H   -0.7739141280    3.1742571531    0.7426576088