19

 C   -0.0531873500    1.5269377701   -0.0237148727
 C   -0.0056134814    0.0108721791    0.0248479764
 O   -1.3414931206   -0.4729807270   -0.0487120333
 C   -1.4826580091   -1.8205580758   -0.0144978539
 C   -2.6971143551   -2.4798239671   -0.0777751133
 N   -2.4095770088   -3.8083667456   -0.0254469421
 C   -3.3480135542   -4.9086661185    0.0012406164
 N   -1.0950926068   -4.0506939057    0.0739789515
 C   -0.5160389798   -2.8464028132    0.0787612616
 H    0.9592214543    1.9377377241    0.0305082611
 H   -0.5173528319    1.8678189514   -0.9533319134
 H   -0.6336207146    1.9208530950    0.8151901769
 H    0.5814387239   -0.3908986911   -0.8141272720
 H    0.4647471501   -0.3379131019    0.9559870211
 H   -3.7041997753   -2.1057544389   -0.1570837667
 H   -4.1085024880   -4.7771974244   -0.7735185443
 H   -2.7865237746   -5.8225671639   -0.1909571333
 H   -3.8427864508   -4.9884892392    0.9755561542
 H    0.5577919726   -2.7684287875    0.1406988656