18

 C   -0.2871009584    1.4731458750    0.0245712731
 O    1.0496946705    0.9908728148   -0.0657745765
 C   -0.0273554238    0.0227583490    0.0286969216
 C   -0.0569765509   -0.7478295981    1.2918243106
 C   -0.0318402558   -2.0792952311    1.2975336511
 C    0.0486920762   -2.9128825013    0.0457498772
 N   -0.2252049511   -2.2292308630   -1.2201373386
 C   -1.5194571826   -1.5671280826   -1.3521652361
 C   -0.2702147286   -0.7628791975   -1.2264028620
 H   -0.5471023216    1.9767438744    0.9560431688
 H   -0.6815630394    1.9413425061   -0.8774068169
 H   -0.0669755540   -0.1787855995    2.2165726309
 H   -0.0296835400   -2.6217721386    2.2400484013
 H    1.0587443926   -3.3428132934   -0.0219406049
 H   -0.6333142019   -3.7699851361    0.1179264506
 H   -2.0058197767   -1.6788067573   -2.3175175314
 H   -2.1909848784   -1.5685203266   -0.4954320905
 H    0.1617225240   -0.3008097943   -2.1114628882