12

 O   -0.0249459775   -0.0018969535    0.5116379982
 C   -0.0427590441    1.1683134089    0.2627774792
 O   -1.1382636773    1.9868229854    0.1996274963
 N   -0.6929927387    3.2940318817   -0.1183082299
 N    0.5509045824    3.2757370344   -0.2374849375
 N    1.0074587297    2.0279085373   -0.0156419983
 C    2.4146925210    1.6628148718   -0.1095190877
 C    2.9207279153    1.6596676200   -1.4767942015
 C    3.3490801604    1.6597308408   -2.5975152548
 H    2.9932332106    2.3473597676    0.5187644341
 H    2.4760521013    0.6630194154    0.3331897112
 H    3.7255461869    1.6578178100   -3.5911948394