10

 N   -0.0578526719    1.3253192806    0.0076079895
 C    0.0548587826   -0.0266280888    0.0013284015
 O    1.0950511970   -0.6450300001   -0.0100647299
 C   -1.2690204506   -0.7350270704    0.0094822099
 N   -2.4353805875   -0.1536992699    0.0213068999
 O   -3.3285171168   -1.1532982749    0.0244853617
 N   -2.6224390234   -2.3784024146    0.0151931526
 N   -1.4006295639   -2.1118100456    0.0049816133
 H    0.7862813810    1.8734302341    0.0022562604
 H   -0.9528528864    1.7850324696    0.0165834613