21

 C   -0.1252659309    1.3601972519    0.2282892723
 O   -0.0388436174   -0.0517254052    0.1693648328
 C    0.8582314243   -0.5932756037    1.1063656044
 O    0.4228115772   -0.3979514052    2.4363734856
 C   -0.3689372727   -1.5293999518    2.8057092043
 C    0.3676106860   -2.7236478396    2.1895854275
 C    0.9412384200   -2.1121439125    0.9112700340
 C    0.7181279170   -2.7164229850   -0.4489018296
 C    2.0940378242   -2.7318920149    0.1665462241
 H    0.8526930295    1.8290587495    0.0376997301
 H   -0.8252456391    1.6713919448   -0.5503307695
 H   -0.4896542533    1.6999958448    1.2046179692
 H    1.8269773535   -0.0773667341    1.0239413674
 H   -0.4262822339   -1.5516803982    3.8962883596
 H   -1.3857612030   -1.4361868617    2.3994867116
 H    1.1687563578   -3.0567298140    2.8584807386
 H   -0.2926038325   -3.5737625546    1.9983117234
 H    0.1692417648   -3.6510792768   -0.5008799035
 H    0.5277771702   -2.0336790684   -1.2677842578
 H    2.8480824098   -2.0708389017   -0.2495627387
 H    2.4847961484   -3.6742573737    0.5375231441