17

 C   -0.3835096724    1.4304670063    0.3895631221
 C   -0.1656158102   -0.0548284445    0.4903938304
 O    0.9787936294   -0.5975232356   -0.1757858734
 C    0.9439131027   -0.6645739981    1.2620032335
 C    1.9088731500    0.1475753351    1.9637523313
 C    2.7204658121    0.7781381506    2.5876231258
 C    0.7956746630   -2.0545544891    1.8259326929
 C   -0.1975141465   -2.3540299927    2.8640495015
 O   -0.3969410461   -2.7588058768    1.5065395765
 H    0.5431787826    1.9787952275    0.5697951216
 H   -0.7544195682    1.6856036875   -0.6082924355
 H   -1.1333804166    1.7540075007    1.1192558141
 H   -1.0518477038   -0.6809881629    0.3921693562
 H    3.4380676457    1.3463948540    3.1266307980
 H    1.7047667976   -2.6542793103    1.7812541740
 H   -0.0128646381   -3.1602694162    3.5712182670
 H   -0.8565806812   -1.5617769253    3.2150555340