19

 C   -0.0947424680    1.5385689094   -0.1161273726
 C    0.0294392583    0.0183743799   -0.0178554902
 C    0.9498724760   -0.5734226915   -1.1100402905
 O    2.2912249956   -0.3488501683   -0.5589315335
 C    1.9199091786   -1.3052576169    0.4902536370
 C    0.7967647262   -0.5605259171    1.2480196627
 C    1.3406214979    0.4556746179    2.2518255351
 C    1.1568589743   -2.0283554314   -0.6393816497
 O    0.9839957760   -3.1352477332   -1.0407939558
 H    0.8877148078    2.0157289861   -0.1598201536
 H   -0.6436730456    1.8141902264   -1.0226552166
 H   -0.6392236271    1.9541716635    0.7367062612
 H   -0.9685719912   -0.4284685950   -0.0858911129
 H    0.8299793196   -0.2664051859   -2.1478476315
 H    2.7619019731   -1.7239265221    1.0392915861
 H    0.1591251689   -1.2792471053    1.7744980957
 H    2.0665343342    1.1263815300    1.7849039347
 H    0.5402834959    1.0643069971    2.6825650590
 H    1.8415683597   -0.0607729433    3.0773065156