21

 C   -0.0333289668    1.5080575649   -0.1159055235
 C    1.3133974868    0.8314122198   -0.0354267779
 C    0.0484161759    0.0084004891    0.0318479085
 C   -0.3813621750   -0.6757983136    1.2922231098
 C   -0.3621852300   -2.1937091029    1.3753285917
 C   -1.6831024704   -1.4663984289    1.4110433953
 C   -2.3043600715   -1.1585039740    2.7722013124
 C   -1.2607036424   -0.2885416070    3.4419137740
 C   -0.2407310056   -0.0106986891    2.6271137993
 H   -0.3641452386    2.0761649769    0.7472939810
 H   -0.3506811278    1.9194348140   -1.0678817231
 H    1.9161662082    0.7704367540   -0.9349832914
 H    1.8929092781    0.9578566187    0.8728133923
 H   -0.1771401317   -0.5653510788   -0.8634452421
 H   -0.1300215372   -2.7373427210    0.4641602621
 H    0.0144288347   -2.6538399467    2.2836756510
 H   -2.3352939657   -1.5697883149    0.5511645412
 H   -3.2613446246   -0.6285721881    2.6707548142
 H   -2.5169849884   -2.0669568136    3.3514083751
 H   -1.3422476775    0.0327653610    4.4743880427
 H    0.6216546296    0.5907259302    2.8932679075