18

 O   -0.0010314049    0.1114846211    0.7636516464
 C   -0.0269146259    1.1678218278    0.1780810104
 C   -1.3212319540    1.8700040037   -0.2003479535
 C   -1.0852522277    3.1827655692   -0.9289141107
 C    0.0327987372    3.2452460908   -2.0182831077
 C    0.0798604274    4.7789915625   -1.8223103925
 C    0.0465474712    4.1308354254   -0.4181161470
 N    1.1087364836    3.1712351356   -0.9413861812
 C    1.2489317206    1.8961910151   -0.2369865574
 H   -1.9141205443    1.1785382959   -0.8126067991
 H   -1.9020194417    2.0255858820    0.7177753801
 H   -2.0280110963    3.6749184127   -1.1932184316
 H    0.1145322019    2.6753600417   -2.9467370585
 H    1.0209293166    5.2559700494   -2.0943729679
 H   -0.8014009586    5.3446729901   -2.1278010919
 H    0.1446343789    4.6142527163    0.5566447055
 H    1.8505932052    2.0603405446    0.6660814182
 H    1.8362406909    1.2134516161   -0.8642350717