14

 O    0.2996023766    1.4524437413   -0.0870227496
 C    0.1145560462    0.0661333186   -0.0329859663
 C    0.7061035231   -0.6299117022   -1.1998308955
 N    1.1614223842   -1.1851432573   -2.1047708387
 C    0.6540075845   -0.5761816811    1.2820839749
 C    2.1399818785   -0.2612803416    1.5058201595
 O    2.7710650482    0.5117268953    0.8317566100
 C   -0.0780790405   -0.1307773900    2.4612658630
 C   -0.6425460679    0.2520243824    3.4500586857
 H    1.2553832110    1.6042488775   -0.0463065489
 H   -0.9660750258   -0.1054936059   -0.0661223249
 H    0.5697374631   -1.6697216547    1.1973885552
 H    2.5955855301   -0.7893533628    2.3663564243
 H   -1.1594535014    0.5855634706    4.3165938612