21

 C   -0.0422466648    1.4258250490   -0.0383809007
 O   -0.0056316915    0.0206898387    0.0025140493
 C    0.6793962913   -0.5406195409   -1.0962384317
 C    0.6791519039   -2.0545849983   -0.9301152106
 C    1.3156646547   -2.7633746168   -2.1085358032
 O    2.6765766005   -2.3788957613   -2.2548511358
 C    3.4114192171   -3.5225754474   -2.6821648334
 C    2.3558062624   -4.6460951141   -2.7327481839
 O    1.3188440777   -4.1552103305   -1.8996866052
 H    0.9689518362    1.8632089935   -0.0253109925
 H   -0.5615574252    1.7967713478   -0.9369835126
 H   -0.5850649971    1.7659515317    0.8470594925
 H    0.1845609198   -0.2553949720   -2.0421397255
 H    1.7129683442   -0.1641242544   -1.1461392566
 H    1.2237421958   -2.3321727033   -0.0229491693
 H   -0.3518781244   -2.4078222373   -0.8266462577
 H    0.7780751431   -2.5317480722   -3.0497585277
 H    3.8726147110   -3.3416778362   -3.6603722557
 H    4.2036321741   -3.7286430410   -1.9532504233
 H    1.9920668238   -4.8025820218   -3.7595961066
 H    2.7044444074   -5.5994894233   -2.3307944400