21

 C   -0.5279909304    1.4000570865   -0.1201303985
 C   -0.0286242101   -0.0357261808   -0.0836655796
 C    1.3674556921   -0.3659012207   -0.7133885771
 O    2.2787764807    0.7026447424   -0.7710727589
 C    1.6136873556   -1.3610891898    0.4553613633
 C    0.4626409768   -0.6887764629    1.2605387014
 C    0.8722799116    0.2979345243    2.3252871763
 C    2.0830770644    0.1677498922    3.1451133835
 O    2.0311743671    1.1165126432    2.0705512110
 H    0.2214170526    2.0991444369    0.2594795720
 H   -0.7573877472    1.6959897253   -1.1490239916
 H   -1.4424221681    1.5211908816    0.4716043004
 H   -0.7774410758   -0.6990748716   -0.5309622971
 H    1.3385597218   -0.7925562042   -1.7196975785
 H    2.4483612027    0.9944286970    0.1377406274
 H    1.3739618060   -2.3947902934    0.1941486901
 H    2.6223171665   -1.3335406974    0.8751320799
 H   -0.2554544276   -1.3785011032    1.7174145503
 H    0.0475626545    0.8664493651    2.7572380013
 H    2.1138913915    0.6087935427    4.1395857887
 H    2.7521786455   -0.6756961734    2.9899325557