20

 C    0.0208369120    1.5686234988    0.0386335275
 C   -0.0175887177    0.0675978557    0.0462548751
 C    1.1468003934   -0.7982164822   -0.3597650250
 C    0.5920196049   -0.9437235265    1.0333485421
 C    1.4050999293   -0.7631385070    2.2819189739
 C   -0.6990469415   -1.7901132019    0.9733751733
 C   -1.3020578065   -0.7654500014   -0.0556560533
 C   -0.5700857066   -3.1813857034    0.5574403819
 N   -0.4536605204   -4.2779954653    0.2084873736
 H    1.0083760637    1.9423313459    0.3280162803
 H   -0.1981918599    1.9637847551   -0.9606768165
 H   -0.7150774866    1.9936291868    0.7309315550
 H    1.0314901628   -1.5915670720   -1.0953443602
 H    2.1045281644   -0.2885262474   -0.4078696805
 H    2.1465638055    0.0321660088    2.1558439896
 H    0.7755204967   -0.5011782853    3.1402131106
 H    1.9484181543   -1.6813561743    2.5348716741
 H   -1.2436939686   -1.7557222365    1.9208368422
 H   -2.1826574969   -0.2659542124    0.3541383289
 H   -1.5472952624   -1.1651675655   -1.0435840228