16

 O   -0.2502478800    1.3292622031   -0.0010327566
 C   -0.0059052591   -0.0560245005   -0.0053902814
 C    0.6717079105   -0.4926688190   -1.2492676829
 N    1.1941978304   -0.8367143810   -2.2202669565
 C    0.8111938066   -0.4759000491    1.2241696924
 O    1.9845132311    0.2908021830    1.1659732765
 C   -0.0289383975   -0.4858535488    2.5226465831
 O   -0.1449587424   -1.9206877000    2.4543221634
 C    0.8868333831   -2.0040098345    1.4495790371
 H    0.6061329479    1.7550410270    0.1405339776
 H   -0.9803685808   -0.5533183873    0.0363830360
 H    2.5012698367    0.1484795919    1.9656051117
 H    0.5439098380   -0.1563808919    3.4027364191
 H   -0.9976513089    0.0225880198    2.5097568545
 H    0.6158627188   -2.6624568464    0.6177740030
 H    1.8526436157   -2.3252225262    1.8655752229