13

 C   -0.0070467742    1.4329894192    0.0097871691
 C    0.0079987220   -0.0202667571    0.0022065440
 C    0.0215318787   -1.2247153896   -0.0040914825
 C    0.0214391138   -2.6419440259   -0.0114360698
 N    1.1470263759   -3.3577423004   -0.0216104973
 N    0.6763054837   -4.6228061401   -0.0254046815
 C   -0.6727831734   -4.6280328434   -0.0175537975
 N   -1.1287034728   -3.3951457350   -0.0085138720
 H    1.0107300182    1.8374045089    0.0018903971
 H   -0.5312320955    1.8277313090   -0.8676033545
 H   -0.5138969034    1.8186909388    0.9012747272
 H    1.3227681494   -5.3947496579   -0.0331431369
 H   -1.2625752922   -5.5324605566   -0.0187477054