23

 C   -0.0514941343    1.5857860249    0.0263812751
 C    0.0156120872    0.0531897741    0.0059091295
 C    0.7361539622   -0.5265122185    1.2061229087
 C    2.2741091560   -0.3158826787    1.3157955508
 C    2.4478552460   -1.7527435685    1.8671936428
 C    2.0439492515   -1.8884217553    3.3565814957
 C    0.5466037850   -1.8511377411    2.9611190197
 C    0.0461524124   -0.4311806270    2.5977106450
 C    0.9619843861   -2.0672891193    1.4600322862
 H    0.9511846414    2.0266435415    0.0346708997
 H   -0.5770953539    1.9716329821   -0.8525398688
 H   -0.5792372218    1.9478830884    0.9152940125
 H   -1.0026179458   -0.3570409561   -0.0373807508
 H    0.5184728878   -0.2787547172   -0.9127319851
 H    2.7191256636   -0.2249931581    0.3187229916
 H    2.6368338073    0.5128415570    1.9340353375
 H    3.3160620037   -2.3183010658    1.5268474057
 H    2.3164318462   -2.8762697603    3.7413006591
 H    2.4081581289   -1.1289455612    4.0578936548
 H   -0.1368739593   -2.4969990120    3.5135637786
 H    0.3340780437    0.3936615200    3.2590038764
 H   -1.0434846731   -0.4196904787    2.4836422476
 H    0.6286841690   -2.8728064302    0.8082994076