18

 N    0.0562942133    1.4183085581    0.1258695688
 C   -0.0335549351    0.0224115981    0.0206314936
 C   -1.1476287356   -0.7838757168   -0.0050488516
 C   -2.6436074486   -0.8111272657    0.0446906110
 C   -2.9520088430   -2.2765474540   -0.3857799668
 C   -1.6911501129   -3.0940517417   -0.0058539940
 N   -0.6526688605   -2.0769080517   -0.0518153555
 C    0.6966622449   -2.0058699019   -0.0373549379
 N    1.1052113570   -0.7467662141   -0.0073720176
 H    0.9935868197    1.7186791136   -0.1130319763
 H   -0.6140130809    1.9044149325   -0.4564610542
 H   -3.0253818785   -0.6096461245    1.0550121151
 H   -3.1238190496   -0.0891919414   -0.6234209975
 H   -3.8551934154   -2.6777298956    0.0790501226
 H   -3.0902846247   -2.3149402915   -1.4702122444
 H   -1.7701029703   -3.5172023607    1.0032996147
 H   -1.4865459119   -3.9109952298   -0.7030178228
 H    1.3372489619   -2.8739745828   -0.0643398870