23

 C    0.0040442082    1.5351693494   -0.0379158857
 C    1.2808116983    0.7093458235   -0.0739593307
 C    2.2572935718    0.4685990305    1.0561653995
 C    2.5577539611   -1.0629969086    1.2375953963
 C    1.7833062954   -2.0710723206    0.3406404986
 C    0.2245744480   -1.9995129669    0.3106370662
 C   -0.3220266272   -0.8697691574    1.2300615224
 C   -0.0619360681    0.0425998465    0.0280464817
 C   -0.3120910366   -1.1517372310   -0.8944444033
 H   -0.2432351978    2.0725716154    0.8739700745
 H   -0.2814741886    2.0559108798   -0.9469333628
 H    1.7265100536    0.6459640971   -1.0652482865
 H    3.1911108145    1.0149876002    0.8845682256
 H    1.8463809536    0.8697195995    1.9886107566
 H    3.6238167845   -1.2453446009    1.0616559681
 H    2.3904136635   -1.3333464560    2.2864318328
 H    2.1571648207   -1.9936336128   -0.6876336434
 H    2.0791367767   -3.0700612146    0.6810625635
 H   -0.2142975793   -2.9936202195    0.4301809446
 H   -1.3950858870   -0.9887400947    1.4149709901
 H    0.1784383931   -0.6721653510    2.1793021791
 H    0.2402142579   -1.1937506790   -1.8384342148
 H   -1.3735722662   -1.3517141791   -1.0807345225