18

 C    0.1216996574    1.3767387721   -0.1063571236
 C    0.0845082637   -0.0751541043   -0.0591268754
 C    0.0438074732   -1.2777186802   -0.0160207977
 C   -0.0062284512   -2.7091499269    0.0374367358
 N   -0.9959949679   -3.3227197557    0.5448919527
 O    1.1262815098   -3.2426112895   -0.5240748460
 C    1.1968779858   -4.6428899198   -0.6053502622
 C    2.5758806366   -5.2148806441   -0.6067106393
 C    1.6751164813   -5.4205879613    0.5929940641
 H    1.0312085127    1.7358276400   -0.5992577916
 H   -0.7389172748    1.7723682918   -0.6566410732
 H    0.0942054889    1.8023426398    0.9026734563
 H   -0.8623086680   -4.3331805877    0.5205862431
 H    0.4406085497   -5.0809205801   -1.2526041362
 H    2.7798490085   -6.0547271911   -1.2605312418
 H    3.3903628617   -4.5079804037   -0.5007733997
 H    1.9007975621   -4.8494692541    1.4859947029
 H    1.2547893405   -6.4038317249    0.7732383220