18

 O    0.0085480874   -0.0864993644    0.0958016381
 C   -0.0183557402    1.1266104960    0.0295074634
 C   -1.3063713559    1.9450884495   -0.0199554029
 C   -1.0782701401    3.4501432358   -0.1012916560
 C    0.0293995946    3.9820062486   -1.0739238583
 C    0.0949643339    5.2579848012   -0.1956200684
 C    0.0223164694    4.0852061882    0.8158899284
 C    1.0546519066    3.3435820921   -0.0874761070
 N    1.1037672546    1.9042231037   -0.0086772265
 H   -1.8871108068    1.5891010830   -0.8787377285
 H   -1.8935960557    1.6844949136    0.8681618719
 H   -2.0213946561    4.0047896594   -0.1351127403
 H    0.0391034980    3.9159762144   -2.1632062892
 H    1.0269783088    5.8295108647   -0.2233369463
 H   -0.7780882513    5.9128503574   -0.2346536008
 H    0.0238532718    4.1381862536    1.9059270590
 H    2.0695072652    3.7461289211   -0.1056494830
 H    1.9894378958    1.4234892321    0.0207867863