25

 C    0.4412149327    1.7666475486    0.5240739619
 C    0.5389431917    0.3295555696    0.0017555310
 C    0.3909699450   -0.7198429924    1.0959868321
 C   -0.9990120637   -0.9063052899    1.7736390016
 C   -0.8001945638   -2.4523786963    1.7141405908
 C    0.3518711026   -2.2201797576    0.6887166720
 C   -0.3620679337   -3.0762083079    3.0163464027
 C   -1.3794863857   -3.6591583140    3.9645569085
 C   -0.4382285015   -4.5695609093    3.2114689571
 H    1.2300818866    1.9755854518    1.2555214212
 H    0.5381137176    2.4951206292   -0.2870411435
 H   -0.5206653074    1.9440808983    1.0173899471
 H   -0.2351462828    0.1616454263   -0.7599596153
 H    1.5020980681    0.1877031876   -0.5070758502
 H    1.1615483555   -0.5554947091    1.8591823027
 H   -1.1473325660   -0.4679965769    2.7643549315
 H   -1.8126607034   -0.5710101430    1.1215519871
 H   -1.6573704928   -3.0120189029    1.3247887120
 H    0.0147924939   -2.3490075220   -0.3451070640
 H    1.2636211974   -2.8073323839    0.8302625523
 H    0.4882732290   -2.5847837099    3.4851810203
 H   -1.2304157952   -3.5319430830    5.0312477457
 H   -2.4209253577   -3.6450280360    3.6589827514
 H   -0.8501834256   -5.1640420294    2.4021638428
 H    0.3531696892   -5.0637949580    3.7642974111