20

 C   -0.1222474047    1.6079980686    0.0087249850
 C    0.0686477046    0.0987153412    0.0347396994
 C    1.0636675741   -0.6131666521   -0.9312185317
 C    2.5066994903   -0.0798468868   -0.8374248978
 N    2.7687599162   -0.8180836268    0.4444724388
 C    2.1412868923   -0.0879163829    1.5992079642
 C    0.7371183211   -0.6241104789    1.2425595806
 O   -0.0890805148   -1.1094173665    2.2608848185
 C    1.4565631851   -1.5726019414    0.2387450303
 H    0.8212204630    2.1478858522    0.1337327059
 H   -0.5625138560    1.9307700044   -0.9411179432
 H   -0.7976760928    1.9357931993    0.8079658540
 H   -0.9010461202   -0.3987265697   -0.0906157244
 H    0.6815684780   -0.9236021898   -1.9047795960
 H    3.1493049497   -0.4866239901   -1.6249633818
 H    2.6664494298    1.0032214469   -0.7882215675
 H    2.4928108327   -0.5216547380    2.5411320921
 H    2.3175823063    0.9936311742    1.6163844566
 H   -0.5054163714   -0.3592190259    2.7001640504
 H    1.4425880864   -2.6609959280    0.2488314665