20

 C   -0.1105815602    1.5482338324    0.0153954934
 N    0.0672472766    0.1093665582    0.0767328664
 C    1.2601781665   -0.6123936078   -0.3104364984
 C    2.6507062558    0.0302773542   -0.2323467016
 C    2.9926716379    0.2087636048    1.2610414863
 O    4.2665186761   -0.2002213514    1.6689242812
 C    2.2714154847    1.2320927995    2.0926106323
 C    1.7843365211   -0.2123477830    2.0584384290
 C    0.7167388697   -0.6953792850    1.0968504760
 H    0.8081377882    2.1260454737   -0.1543426989
 H   -0.7908484593    1.7748240090   -0.8140076582
 H   -0.5793418239    1.9084771165    0.9360810490
 H    1.1164607938   -1.3904063870   -1.0581124468
 H    3.3835015867   -0.6648763916   -0.6523517973
 H    2.7262951095    0.9623992086   -0.8056593034
 H    4.8694719839    0.5425446239    1.5558581403
 H    2.7815274535    1.5098463694    3.0099718843
 H    1.6997947964    2.0303860329    1.6445739844
 H    1.9117895030   -0.7890196427    2.9672728042
 H    0.1185866500   -1.5352992545    1.4432509477