17

 C    0.6241097648    0.7778023475   -0.2257894815
 O   -0.6961329055    0.9755871600    0.2473016332
 C   -1.5498721780   -0.0385726275   -0.0205147264
 C   -1.4270413266   -1.2471440030   -0.6622733306
 C   -2.7213538984   -1.8601657007   -0.6038367530
 C   -3.5769948784   -1.0194686786    0.0606272911
 C   -5.0223166290   -1.1466315932    0.4057447788
 N   -2.8395355386    0.1013767473    0.4148454413
 H    1.1931108327    1.6641363487    0.0585646279
 H    1.0770947675   -0.1124453808    0.2291379356
 H    0.6393404618    0.6647649188   -1.3174295717
 H   -0.5364651252   -1.6487431104   -1.1162889868
 H   -2.9880851139   -2.8235592086   -1.0122285534
 H   -5.1989522500   -1.1173319740    1.4891777206
 H   -5.6323238921   -0.3513697144   -0.0429828115
 H   -5.4053788986   -2.1011039804    0.0369346742
 H   -3.1772436325    0.9056477393    0.9145220620