11

 O   -0.0323925954   -0.0760847854    0.0032782930
 C   -0.0010426568    1.1399976077    0.0093364201
 N   -1.1732470310    1.9093937522    0.0289116500
 C   -1.1828778602    3.2720511753    0.0363559413
 C   -0.0029250328    3.9449955977    0.0244721358
 N    1.1987963911    3.2845072406    0.0051742190
 C    1.1978336391    1.9868031530   -0.0017762070
 H   -2.0365442630    1.3826705544    0.0374179933
 H   -2.1513248789    3.7570931829    0.0516866529
 H    0.0265599400    5.0267496724    0.0298887688
 H    2.1489354778    1.4593653892   -0.0170523172