17

 C    0.1102019115    0.5871567462   -1.1626283891
 C   -0.2485997192    0.3185194771    0.2847585722
 O    0.1954122745    0.9689716683    1.2068534391
 C   -1.1716102234   -0.7808001323    0.5026801794
 C   -1.9459015759   -1.6886018112    0.6847619248
 C   -2.8727391830   -2.7926313204    0.8972139691
 C   -3.1850474839   -3.5634021892   -0.3749649812
 C   -4.4806231816   -4.2228900660   -0.5682898012
 O   -4.1672262931   -2.9973123054   -1.2351996678
 H    0.8062523749    1.4253911587   -1.2175016074
 H    0.5602540151   -0.3053946520   -1.6106162926
 H   -0.7946833727    0.8102866051   -1.7381046418
 H   -2.4513065079   -3.4809660726    1.6424799696
 H   -3.8096665752   -2.4081179110    1.3182278525
 H   -2.3136328889   -3.9669739158   -0.8913024248
 H   -4.5513701297   -5.1015421086   -1.2070618756
 H   -5.2416922914   -4.1503219207    0.2078322448