24

 C   -0.8707402838    1.2965055964    0.6189043920
 C   -0.3754328140   -0.1325972299    0.3811206751
 C   -1.4566424657   -1.0499040500   -0.2007555113
 C   -0.9544514934   -2.4720996261   -0.4353815133
 O   -1.9405155083   -3.2930712004   -1.0598984154
 C   -2.8018617848   -3.9342895033   -0.2387410689
 N   -3.7764612620   -4.5664119363   -0.7168597613
 C   -4.6869938141   -5.2948508018    0.1497086750
 C   -4.4550517721   -5.2664367407    1.6647528157
 H   -0.0785583885    1.9287697255    1.0313279074
 H   -1.2133465977    1.7561556611   -0.3144314800
 H   -1.7104585783    1.3122450443    1.3222771534
 H    0.4874333509   -0.1130521701   -0.2976981752
 H   -0.0075746398   -0.5543129398    1.3260885687
 H   -2.3219773974   -1.0809702987    0.4746607488
 H   -1.8215430307   -0.6486301221   -1.1539168626
 H   -0.0990955142   -2.4707986299   -1.1180137476
 H   -0.6239232067   -2.9294835700    0.5085269316
 H   -2.5402791541   -3.8501534844    0.8247592357
 H   -5.6979548843   -4.9231683473   -0.0652281072
 H   -4.6892678060   -6.3383179247   -0.1935217036
 H   -5.2267189918   -5.8600133930    2.1642406842
 H   -3.4826229585   -5.6903320807    1.9379462709
 H   -4.5077621547   -4.2488695780    2.0669959878