18

 C   -0.5075302144    1.3627664390    0.1283538420
 C   -0.0486424524   -0.0763416280    0.0638732684
 C    1.3642002670   -0.4113266187   -0.3435051615
 C    0.9176858672   -0.6580433810    1.0751901587
 N    1.4487820428    0.1574566865    2.1300511252
 C    2.7456919582    0.5431086351    2.3407198813
 N    2.8610955254    1.2204743605    3.4526477475
 N    1.6022941083    1.2867203734    4.0212956738
 C    0.7866063982    0.6485873079    3.2236337104
 H    0.2848827947    2.0235080335    0.4897699573
 H   -0.8066940554    1.7115176825   -0.8652326001
 H   -1.3686225807    1.4784000120    0.7950284580
 H   -0.8111986059   -0.7783832253   -0.2619923155
 H    1.5551578186   -1.2746511440   -0.9700508052
 H    2.0346648376    0.4244197402   -0.5127316612
 H    0.7593383918   -1.6906017194    1.3714349264
 H    3.5442066379    0.3024421805    1.6569227253
 H   -0.2726470892    0.5110985355    3.3754897992