19

 C   -0.0671090415    1.6825640600   -0.1126832648
 C   -0.0472745446    0.1423166343   -0.0352791084
 C    0.5718775421   -0.3467053893    1.2764543985
 C   -1.4978717688   -0.3313109650   -0.1470187307
 O   -2.0996437988   -0.8954327289    0.7309389876
 C    0.7241478247   -0.4527977232   -1.2645085934
 O    0.1183966150   -0.0930572421   -2.5048037699
 C    2.1442795462   -0.0973646453   -1.2498431193
 C    3.2989647199    0.2376851754   -1.2738406436
 H    0.9548152685    2.0736101811   -0.1289245157
 H   -0.5861739567    2.0338914089   -1.0101256840
 H   -0.5802751296    2.1033108430    0.7566960652
 H   -0.0402173596   -0.0272476271    2.1227738027
 H    0.6202007824   -1.4395203450    1.3075668000
 H    1.5831427441    0.0481877294    1.3992655077
 H   -1.9800802023   -0.0973592231   -1.1185195025
 H    0.6367464665   -1.5454352414   -1.2097795456
 H    0.4873517517    0.7530832880   -2.7784789148
 H    4.3252058008    0.5121748404   -1.2938266890