16

 C    0.0527302598    1.3928957384    0.0423966105
 N   -0.0281889260   -0.0510319102    0.0503985249
 N   -0.3642127677   -0.7490225883   -1.0765827398
 N   -0.3424930231   -2.0132920559   -0.7721604028
 C   -0.0087060159   -2.1640921159    0.5375898062
 C    0.1139407457   -3.4505824870    1.2869686694
 O    1.0561523200   -3.3029141329    2.3679855472
 C    0.1971019022   -0.9061450950    1.0666741082
 O    0.5620734805   -0.4882556120    2.2888069449
 H    1.0495234710    1.7233615474    0.3467417171
 H   -0.1484615795    1.7181938754   -0.9781059953
 H   -0.6873330345    1.8272232157    0.7202428881
 H   -0.8249073354   -3.7350550839    1.7750171643
 H    0.3944992559   -4.2697939480    0.6144459843
 H    1.9361475204   -3.2675498661    1.9760193048
 H    0.7815424967   -1.3012168416    2.7784473180