19

 C    0.0022642001    1.4983166970   -0.1339796280
 C   -0.0216621636    0.0458219548   -0.0560612832
 C   -0.0387949789   -1.1569641542    0.0197361153
 C   -0.0612998286   -2.5953312453    0.0840084362
 C    0.6152538243   -3.4288544169   -1.0395959453
 C   -0.6283174586   -4.3689532984   -1.0867311933
 C   -1.3355307656   -3.5137427982   -0.0022960142
 C   -0.9814986893   -3.8957291601    1.4386146561
 O    0.2480358890   -3.1342509787    1.4004057812
 H    0.6496902389    1.8450902936   -0.9469365063
 H   -1.0001176368    1.9045309040   -0.3097505229
 H    0.3770664101    1.9345814572    0.7984907517
 H    0.7700543550   -2.8618465658   -1.9600993372
 H    1.5605552990   -3.8756861205   -0.7256997832
 H   -1.1411648650   -4.3597925303   -2.0505938368
 H   -0.4516034842   -5.4101367039   -0.8038424229
 H   -2.3374092500   -3.1411897507   -0.2081973860
 H   -1.6684380989   -3.5002555430    2.1981361753
 H   -0.8047163571   -4.9607500609    1.6352614136