17

 C    0.0025346401    1.5584189718    0.1414635764
 O    1.4515614085    1.4579619180   -0.1994900104
 C    1.1160057262    0.1899258629   -0.7587233764
 C   -0.1591094482    0.0087489876    0.0077232662
 C   -0.2528215277   -0.9519949565   -1.2169749973
 C    0.3951851664    0.0748825759   -2.1863138799
 C    1.3013236360   -0.6927195656   -3.1121830996
 C    1.8761528922   -1.6271195432   -2.3443547944
 C    1.3037230253   -1.3808377004   -0.9756625156
 H   -0.1250230045    1.9449666652    1.1543029610
 H   -0.5132312003    2.1950319855   -0.5819462473
 H   -0.0589961949   -0.4820110625    0.9774733551
 H   -1.0382537656   -1.6624285367   -1.4892482057
 H   -0.1987846277    0.9057354801   -2.5627165751
 H    1.4582326950   -0.4818828781   -4.1608871627
 H    2.6129497709   -2.3733222986   -2.6048269865
 H    1.5506790883   -2.0130742254   -0.1236563977