19

 C   -0.2023765367    1.5420895248    0.0402289954
 C    0.0498502248    0.0299865240    0.0096101668
 C    0.8580755860   -0.4525195839   -1.2363702622
 C    2.3147476631   -0.6254739748   -0.8176563852
 O    2.7206159063    0.5703678260   -0.0710189377
 C    2.3623702604   -0.1049980222    1.1368931176
 C    2.4097127059   -1.4881296040    0.5025247885
 O    1.1364212805   -1.8799262290    1.0154451213
 C    0.8263437112   -0.4624593178    1.2328835380
 H    0.7371411860    2.0973131374    0.0007220017
 H   -0.8135399649    1.8459111303   -0.8160196160
 H   -0.7418514915    1.8319724522    0.9492321512
 H   -0.9171687712   -0.4854288376    0.0196759145
 H    0.4711593538   -1.4079882164   -1.6033995246
 H    0.7873573272    0.2720017346   -2.0535482457
 H    3.0071384167   -0.8413392559   -1.6344835616
 H    2.8818633285    0.2532505618    2.0259124775
 H    3.1864122683   -2.2484773411    0.5867598733
 H    0.3159005656   -0.3041059084    2.1863260073