20

 O    0.3976465179    0.9745134860   -1.3043726057
 C    0.2079956318    1.4481817540   -0.2026585720
 N    1.1175189176    1.4543790440    0.8046899927
 C    2.4557293092    0.9020338220    0.6483528166
 C    3.4330890409    1.8609354821   -0.0464188154
 C    4.8319984094    1.2775680365   -0.1146970063
 C    5.9994315290    2.2091805753   -0.5103787022
 C    6.5810713515    1.8298932125    0.8659217170
 O    5.4036953550    1.0676615781    1.2045731617
 H   -0.7485287121    1.9219210551    0.0974554115
 H    0.8748890303    1.9166025067    1.6657385801
 H    2.8391288510    0.6397153534    1.6376756846
 H    2.3656584551   -0.0179808702    0.0629547069
 H    3.0730101990    2.0664907741   -1.0609609028
 H    3.4660195802    2.8129499312    0.4978336990
 H    4.8186804279    0.3315512650   -0.6760217217
 H    6.5821407566    1.9080012992   -1.3816942763
 H    5.7153076063    3.2586735901   -0.6126985210
 H    7.4785187175    1.1990589607    0.8326132872
 H    6.7543460758    2.6520588440    1.5700399061