15

 O    0.0598926955    1.3210378106   -0.1492802231
 C    0.0272981293   -0.0532592947   -0.0675930471
 C   -0.3842016345   -0.8501878161   -1.3156064119
 C   -0.0763513089   -2.3350063309   -1.1632739233
 C   -0.5906667358   -2.2174959530    0.3015701254
 O    0.5310622066   -1.9431580959    1.1764023663
 C    0.9567324906   -0.6840132744    0.9186968538
 O    1.8894676789   -0.1479797850    1.4541563671
 C   -1.2441633820   -0.8534316967   -0.0568994740
 H    0.8392303376    1.5881994344    0.3600659692
 H   -0.5378865174   -0.2863708240   -2.2270906553
 H   -0.7565295035   -2.9400783996   -1.7687387029
 H    0.9507735938   -2.6921612718   -1.2848875022
 H   -1.1683816577   -3.0249451631    0.7422373473
 H   -2.2346394925   -0.4758633097    0.1548763707