19

 O   -0.1382925244    1.3697027946   -0.1792264808
 C   -0.0932534729   -0.0354668520   -0.0109666029
 C    0.6551891479   -0.5112656656    1.2456396757
 C    0.1258295849   -1.9361750136    1.4583081313
 O    0.2092161649   -2.4319289063    2.7826157853
 C   -1.3763975446   -1.8351447697    1.0601961220
 C   -1.5224808210   -0.5694035133    0.1915158928
 C   -1.8406915689   -3.1207921912    0.4136355860
 O   -2.3797027039   -3.2090025041   -0.6603333480
 H    0.7452927264    1.6758353593   -0.4057801042
 H    0.3527355858   -0.5106446404   -0.8996358249
 H    1.7461241542   -0.4664204392    1.1526286513
 H    0.3522194186    0.1109972006    2.0956719583
 H    0.6437643593   -2.6236032345    0.7684515557
 H    1.1361519667   -2.5849710429    2.9922181814
 H   -1.9256236004   -1.7486579137    2.0064681537
 H   -2.0971463395    0.2013918034    0.7120957167
 H   -2.0283603213   -0.7892464374   -0.7501295843
 H   -1.6258822219   -4.0281312839    1.0229975949