15

 N   -0.5246883536   -2.9883382700   -0.2109862694
 C   -1.5852839453   -2.3039501514   -0.0561505798
 N   -1.5611836813   -0.9429271289   -0.3028706918
 C   -2.6211964447   -0.0751854670   -0.1803576927
 N   -3.8000465722   -0.5709435967    0.2139078494
 C   -4.8024790845    0.2999716892    0.3208778691
 N   -4.7751750525    1.6087645229    0.0825620814
 C   -3.5838211735    2.0847491948   -0.3114647745
 C   -2.4638763470    1.2916451019   -0.4627301414
 H   -0.7024900706   -3.9663704259    0.0081680584
 H   -2.5673091526   -2.6553928567    0.2614331236
 H   -0.6683400757   -0.5751880121   -0.6000431243
 H   -5.7557902184   -0.1143796485    0.6420322089
 H   -3.5322937974    3.1520955655   -0.5134135586
 H   -1.5130668007    1.7026305330   -0.7826970083