16

 C   -0.0119714657    1.6254463703   -0.0113091931
 C    0.0969116495    0.1305941393   -0.0176535335
 C    0.6853156802   -0.8545452039   -0.9959261131
 N    1.3186564553   -1.5875953709    0.1009303965
 C    0.7283076910   -0.7513947701    1.0694598847
 O    0.7525879858   -0.7654003730    2.2651355136
 C   -0.8238412671   -0.7842351350   -0.8696097956
 C   -1.6693366757   -1.8706261198   -0.3062490296
 O   -2.7717622144   -2.1302862394   -0.7223281143
 H    0.9490420242    2.0839880653    0.2420113260
 H   -0.3260634269    2.0052738281   -0.9877612065
 H   -0.7462577983    1.9542812609    0.7306139621
 H    1.2130530332   -0.6671455316   -1.9219326018
 H    1.3560097160   -2.5975617498    0.1774634134
 H   -1.3198217639   -0.2444021082   -1.6730361761
 H   -1.2279541732   -2.4407178520    0.5382336772