18

 C   -0.1269461566    1.5764890338   -0.0145278269
 C   -0.0382741556    0.0499074054   -0.0094765673
 C   -1.3289023969   -0.5743414567    0.2243580826
 C   -2.3925402321   -1.0999718154    0.4245679663
 C    0.7046822567   -0.6211230021   -1.1881242270
 N    2.0999952977   -0.1227442327   -1.1486144255
 C    1.6941217157   -1.2692192648   -0.2937332182
 C    1.0942926068   -0.6017597333    0.9486307324
 O    1.9292576934    0.2632005552    1.6512988918
 H    0.8372392541    2.0112408608   -0.2849708309
 H   -0.8765697005    1.9150472172   -0.7358868008
 H   -0.4119057890    1.9435921362    0.9748414090
 H   -3.3348436505   -1.5559561313    0.6025283307
 H    0.2629763647   -0.9834586014   -2.1078282571
 H    2.5885082412   -0.4946425408   -1.9608229935
 H    2.1955862136   -2.2258910308   -0.3700576225
 H    0.6464754285   -1.2957876446    1.6600389141
 H    2.4604245587    0.7145261453    0.9803333327