14

 O    0.2188552880    1.1550764231   -0.5217207759
 C    0.0273512867   -0.0540315816    0.1531103654
 C   -1.4129146182   -0.5149077150    0.0465808218
 O   -2.2629001802    0.1167534863   -0.5316243012
 O   -1.6105452357   -1.6887251685    0.6734924646
 C   -2.9351764981   -2.2358374780    0.6531291010
 C   -2.9419515779   -3.5357130704   -0.1341929748
 O   -3.8168884896   -4.3520869993   -0.0409897169
 H   -0.6483656022    1.4101391274   -0.8677937577
 H    0.6727512250   -0.8463884974   -0.2539054997
 H    0.2758838883    0.0343327807    1.2218197793
 H   -3.2469348762   -2.4210096273    1.6837658638
 H   -3.6235988396   -1.5240058160    0.1859240572
 H   -2.0713249302   -3.6608829940   -0.8160039169