18

 C   -0.0332662141    1.5210672826    0.2454433617
 C   -0.0446309831    0.0102523231   -0.0047275577
 O    0.5485744311   -0.7077865728    1.0754933328
 C   -1.4405506863   -0.5207869063   -0.1491919129
 N   -2.3224142852   -0.7794569676    1.0089899767
 C   -1.9915592973   -1.8754229447    0.0609088498
 C   -2.8952825705   -1.7026493314   -1.2134257482
 O   -3.7198453261   -0.5483195124   -1.0532828132
 C   -2.3572679344   -0.3600603323   -1.4259634459
 H    0.9942720037    1.8914364067    0.3391878634
 H   -0.5035511030    2.0571669588   -0.5848245191
 H   -0.5794012328    1.7588689874    1.1626427333
 H    0.5046018657   -0.1991728884   -0.9389986907
 H    1.3787868805   -0.2769019575    1.3007154883
 H   -1.6809963613   -0.9077425244    1.7945996905
 H   -1.4938963267   -2.7812635431    0.3786029008
 H   -3.2154958904   -2.4701728217   -1.9071428301
 H   -2.1415683796    0.2021062539   -2.3272470094