21

 O   -0.1105176232    1.4489912064    0.1085420932
 C   -0.0104922976    0.0482277584   -0.0971173631
 C   -1.4010023235   -0.5503745943    0.0618907080
 C   -1.4119749906   -2.0749661320   -0.1219025960
 C   -2.7917222362   -2.6444709838   -0.0197942105
 C   -3.5289129484   -3.0245937773    1.2290559962
 C   -3.3714342051   -4.0379101915    0.1082418613
 C   -4.2735997493   -3.6287485259   -1.0471636801
 O   -3.7345256823   -2.2794166835   -1.0441258333
 H    0.7623128393    1.8338958791   -0.0117255615
 H    0.3800118249   -0.1809274866   -1.1026364491
 H    0.6793979614   -0.4129853322    0.6300853122
 H   -1.7855134990   -0.2904456097    1.0548343708
 H   -2.0725329605   -0.0874768743   -0.6689203297
 H   -0.9905386125   -2.3346602309   -1.1017834180
 H   -0.7791934788   -2.5532066250    0.6362835227
 H   -2.9095876302   -3.2183380178    2.0996990356
 H   -4.4992214404   -2.5830514919    1.4414262349
 H   -2.8895781447   -4.9977977253    0.2377483725
 H   -4.0401601696   -4.1335488267   -1.9917368877
 H   -5.3574491238   -3.6438654050   -0.8789596485