23

 C   -0.8817495978    1.7074683553   -0.9954342124
 C   -0.6693076542    0.2185738739   -0.7095120089
 C   -1.9735503494   -0.5895982407   -0.7482048989
 C   -1.7603541451   -2.0720077140   -0.4895290869
 C   -1.5797489869   -2.5743229629    0.9742298951
 O   -3.0062474529   -2.2631269294    1.2303218385
 C   -2.9721619239   -2.9562034262   -0.0808353531
 C   -2.0211049405   -4.0086405424    0.5605484526
 C   -1.1547955318   -4.9729652189   -0.2329479083
 H    0.0613958838    2.2616745735   -0.9576505070
 H   -1.3189181953    1.8608964193   -1.9885191844
 H   -1.5624877481    2.1559731172   -0.2635893592
 H    0.0414156880   -0.1966611248   -1.4369344334
 H   -0.1985890619    0.0992697282    0.2751274785
 H   -2.6788715244   -0.1987428463   -0.0085181262
 H   -2.4431996631   -0.4649117517   -1.7341163115
 H   -1.0805058836   -2.5125102849   -1.2247057650
 H   -0.8588807198   -2.2649989061    1.7333168443
 H   -3.9260079712   -3.1024557033   -0.5915735978
 H   -2.5167922633   -4.5093734783    1.3964892052
 H   -0.6413526745   -4.5071230924   -1.0773664173
 H   -0.3916061260   -5.4170320490    0.4153080825
 H   -1.7641401180   -5.7937311960   -0.6266258165