21

 C   -0.8001698439    0.9121704864    0.2724873124
 C    0.4050342221    0.0409804821   -0.0089667343
 O    1.3288075966   -0.0653091815    0.7653410545
 C    0.3900176651   -0.7612648713   -1.3086748950
 C   -0.0978945982   -2.2043957341   -1.0508332713
 O   -1.4339257304   -2.2098671165   -0.5435781021
 C    0.0455341848   -3.0738015417   -2.2784304399
 C    1.3181409745   -3.8473681441   -2.5193868823
 C    0.0546019022   -4.5737032891   -2.1350065942
 H   -0.6933381317    1.4088608160    1.2375621007
 H   -0.9276360389    1.6593139601   -0.5195065013
 H   -1.6929530595    0.2771948508    0.2674886948
 H   -0.2531154487   -0.2933230160   -2.0638137123
 H    1.4132033557   -0.8010451159   -1.6937571357
 H    0.5120285695   -2.6233376524   -0.2416232083
 H   -2.0330738803   -2.1294054078   -1.2935605590
 H   -0.4444149098   -2.6721643381   -3.1648530622
 H    1.6785137727   -3.9361263372   -3.5379912614
 H    2.1048126943   -3.7690811395   -1.7760001737
 H   -0.0151226248   -4.9779853947   -1.1309279970
 H   -0.4500730014   -5.1663197854   -2.8897131525