21

 C   -0.1440025741    1.4186321946    0.0147742224
 C   -0.0705904563   -0.0367304100    0.0028437854
 C    0.0287716955   -1.2395770426    0.0000183650
 C    0.0859724470   -2.6963602437   -0.0199564388
 C    1.0374855361   -3.2114298366   -1.1013335399
 C    0.2271360577   -3.2910635386    1.4262440774
 C   -1.3173608058   -3.3659182110    1.5323122143
 C   -1.3830891132   -3.2833148891   -0.0144673810
 O   -2.4061516510   -2.5794862771   -0.6502438339
 H    0.8432089858    1.8617795908    0.1861473286
 H   -0.5206272399    1.8081778584   -0.9373506315
 H   -0.8093316276    1.7788460276    0.8071731828
 H    2.0568020259   -2.8474819102   -0.9381006153
 H    1.0595478959   -4.3061600922   -1.0975237111
 H    0.7140123846   -2.8768136958   -2.0918384776
 H    0.6886677816   -4.2819089267    1.3887048509
 H    0.7573278423   -2.6782852625    2.1559637227
 H   -1.7631307074   -4.2387346957    2.0136443795
 H   -1.7315969539   -2.4596706492    1.9833100863
 H   -1.3690152934   -4.2836829734   -0.4594118444
 H   -2.2703446498   -1.6438319769   -0.4480814917