16

 N    0.0814486061   -1.1283322781    0.0816936221
 C   -0.0065163980    0.0260689038    0.0243031096
 C   -0.0599933262    1.4354797203   -0.0490507249
 C   -1.1249906997    2.2497937990   -0.0238405598
 C   -0.5481337312    3.6565536099    0.0233806345
 C    0.0055843080    3.8630009742    1.4738452431
 C    1.2491573198    2.9278048627    1.4430300491
 C    1.1592125836    2.3745713373   -0.0143094254
 O    0.6623712620    3.5054739523   -0.7268467259
 H   -2.1681713812    1.9802301958    0.0623160301
 H   -1.1583524973    4.4622918748   -0.3799953065
 H    0.2941596762    4.9070618486    1.6110850889
 H   -0.7221382900    3.6008660122    2.2442193242
 H    2.1747367226    3.4936297584    1.5649963156
 H    1.2255611552    2.1373362637    2.1954449545
 H    2.0809016401    2.0012108851   -0.4551725293