22

 C   -0.1395883839    1.2773293151   -0.2664559640
 N    0.2432492353   -0.1186549678   -0.1111447065
 C    1.6738266146   -0.3962049140    0.0279411412
 C    0.7534374963   -0.5390013540    1.1842163426
 C    0.8054928576    0.2456796973    2.5065879610
 C    0.6558201625   -1.1129622957    3.2559579677
 C    0.3258682803   -1.8245817526    1.9084100748
 C   -1.1402558510   -2.1727028409    1.7173274542
 O   -1.4536532216   -3.2361092993    2.6072573923
 H    0.4937116810    1.9795649450    0.2997139747
 H   -0.0848607106    1.5477664111   -1.3257628187
 H   -1.1754058843    1.4104804424    0.0631689725
 H    2.0424683714   -1.2701629152   -0.5044318644
 H    2.3580351153    0.4526654470    0.0404308641
 H    1.7120331315    0.8214404313    2.7081877420
 H   -0.0563773675    0.9065352230    2.6442014692
 H    1.5920174010   -1.4570575961    3.6999865466
 H   -0.1284599351   -1.1680547352    4.0130103713
 H    0.9307038596   -2.7103938478    1.6924715829
 H   -1.7633943167   -1.2860112490    1.9230033845
 H   -1.3145990106   -2.4535369883    0.6685832172
 H   -2.3781392054   -3.4686160563    2.4817532646