20

 C   -0.0006053881    1.5136422911   -0.1067160101
 C   -0.1969839506    0.0127823462   -0.2113825326
 O    0.8699120519   -0.5154906001   -1.0049606902
 C    0.8208226344   -1.8888895126   -1.1980983424
 C   -0.1196442622   -2.4531101737   -2.2564110048
 C    1.3635855943   -2.4093139787   -2.5160146737
 C    1.9585668422   -1.4465428106   -3.5179777145
 C    1.0546116062   -2.6799124831   -0.0050858061
 N    1.2355498873   -3.3003362513    0.9545987389
 H    0.9584336996    1.7435759247    0.3652457194
 H   -0.0170020307    1.9769410275   -1.0973669253
 H   -0.7991666413    1.9553890923    0.4963317372
 H   -0.1839636926   -0.4551112075    0.7827971454
 H   -1.1610005878   -0.2304116207   -0.6815835528
 H   -0.6023209421   -3.4049988313   -2.0689741049
 H   -0.7335817982   -1.7122161258   -2.7578897709
 H    1.8770778750   -3.3628703467   -2.4357820938
 H    1.4436872600   -0.4844686565   -3.4928836109
 H    3.0171071658   -1.2663298819   -3.3068970244
 H    1.8798841868   -1.8579688913   -4.5294609035