16

 O   -0.0184749621   -0.0175853846   -0.2675239067
 C    0.0133927951    1.1467193965    0.0355222438
 C    1.2688865130    1.9877261964    0.0244023672
 N    2.4705587722    1.3039681312   -0.4601046141
 C    2.5613115906    2.0446521554   -1.6349192297
 O    3.2700085711    1.9693618784   -2.5993274691
 C    1.4150329234    2.9374664758   -1.1942307081
 C    0.3862452277    3.5631879710   -2.0958055583
 C    1.3271084512    4.4309772256   -1.3057921807
 H   -0.9021014987    1.6908883709    0.3602168579
 H    1.3876627878    2.4758739652    1.0012061223
 H    2.6759464525    0.3212136642   -0.3422448275
 H    0.5537414775    3.4542839140   -3.1619248722
 H   -0.6542012359    3.5270332548   -1.7922767751
 H    0.9285404201    4.9781177772   -0.4580710505
 H    2.1363411245    4.9272025681   -1.8308778592