19

 C   -0.0148733594    1.3437371511    0.1089691223
 O   -0.0880227809   -0.0607332113   -0.0464560007
 C    0.6296330818   -0.5785141586   -1.1477924394
 C    2.2121967395   -0.5854680425   -1.0347365628
 C    2.1773700078   -2.1151538435   -1.0694917079
 C    1.3519881424   -2.6310261531    0.0717560902
 C    0.6495442564   -2.1129232854   -1.1516503368
 C    0.1630945264   -0.0264697628   -2.4203701559
 C   -0.2249888144    0.4236348950   -3.4658363830
 H    1.0220174449    1.6874422765    0.2366913270
 H   -0.4544000612    1.8719792617   -0.7469195802
 H   -0.5803385766    1.5874457530    1.0111115116
 H    2.6884786903   -0.1256845302   -1.9011088760
 H    2.6085392636   -0.1382797164   -0.1177316224
 H    2.8743119936   -2.7403559559   -1.6120993470
 H    1.3221844413   -3.7103057436    0.1806250599
 H    1.2930875406   -2.0794671788    1.0050766681
 H   -0.0163704901   -2.7211563001   -1.7494782345
 H   -0.5693053857    0.8190523749   -4.3895597125