23

 C    0.1634466421    1.5451963972   -0.1567051695
 C   -0.1273193980    0.0520575541    0.0813123566
 C    0.6209318908   -0.5398071255    1.2534957369
 C   -0.0186392478   -0.9989652915    2.3322536453
 C    0.6932600880   -1.5092656095    3.5548964724
 C    2.1490616203   -1.0492083035    3.5173375851
 O    2.7207832346   -1.3213524563    2.2525235987
 C    2.1419391887   -0.5730477131    1.1908009377
 C    2.6821348916   -1.2004523460   -0.0950279187
 H    1.2144936603    1.7226022889   -0.4054907201
 H   -0.4401700290    1.9281654655   -0.9853969840
 H   -0.0713542493    2.1344714867    0.7354429714
 H   -1.2010691719   -0.0795349745    0.2549390455
 H    0.1053905804   -0.5028290961   -0.8367378801
 H   -1.1068641289   -0.9898883501    2.3506017218
 H    0.2047342241   -1.1374903323    4.4649891219
 H    0.6446267915   -2.6059327528    3.6049904538
 H    2.2049854549    0.0295153853    3.7407796152
 H    2.7630334522   -1.5782011604    4.2521492382
 H    2.5141845147    0.4673838098    1.2505115708
 H    2.2753181107   -2.2070727732   -0.2289770893
 H    2.4297454996   -0.5985942781   -0.9715425698
 H    3.7705623604   -1.2735047643   -0.0273907800