10

 N   -0.0174918766   -1.1563229285   -0.0033580212
 C    0.0181177437   -0.0007742521    0.0024990111
 C    0.0029814894    1.4369875919    0.0105682850
 C   -1.2107990756    2.1370339114    0.0306480573
 N   -1.2387909205    3.4657744331    0.0382892238
 N   -0.0861158595    4.1277685624    0.0264756558
 C    1.0453150544    3.4190619091    0.0074615975
 N    1.1623932354    2.0897355861   -0.0013875641
 H   -2.1678611344    1.6267925149    0.0406706145
 H    1.9639618136    3.9973805015   -0.0017087397