19

 C    0.0380079062    1.5140196103   -0.0821071209
 O    1.2866097048    1.5515038909    0.6390703410
 C    1.4739219641    0.1287902618    0.4772083231
 C    0.0235237353   -0.0206427331   -0.0540163111
 C   -0.9613075430   -0.6433024387    0.9284526071
 O   -0.8012187806   -2.0512858136    0.9777685558
 C   -0.9893989661   -2.6208318839   -0.3088347501
 C   -0.0059895142   -2.0152061440   -1.3024747199
 O   -0.1325505378   -0.5972509740   -1.3345062366
 H   -0.7669971793    2.0339162824    0.4509801589
 H    0.1267577089    1.9122470270   -1.1006039460
 H    2.2346784943   -0.1036047752   -0.2793740522
 H    1.7220560124   -0.3680290269    1.4208177317
 H   -0.7938151897   -0.2652744249    1.9408295554
 H   -1.9878512725   -0.3830895169    0.6186506563
 H   -0.8309506368   -3.6985549930   -0.2073980886
 H   -2.0214145304   -2.4451480026   -0.6542761476
 H    1.0209359111   -2.2988334177   -1.0234149650
 H   -0.2004578666   -2.3697240780   -2.3188002616