17

 C   -0.0877377804    1.4743870373    0.0337620695
 C   -0.0316307868   -0.0264613869   -0.0944047319
 C    0.9586991156   -0.7330863093   -0.9399237535
 C    0.5773051340   -2.0046370583   -1.1447096492
 C   -0.6435117454   -2.2538644496   -0.3139619190
 O   -0.1738516919   -2.2220889015    1.1058878942
 C   -0.5275080070   -0.8698793116    1.1895422929
 C   -1.2973489719   -0.8356167931   -0.0832155713
 O   -2.5148490038   -0.3484999791   -0.4895469467
 H    0.8555305095    1.8754907971    0.4191990782
 H   -0.2869818782    1.9466340138   -0.9341110644
 H   -0.8877343116    1.7827411962    0.7140334421
 H    1.8897474367   -0.2830754303   -1.2652027621
 H    1.1315627711   -2.7764197874   -1.6616277147
 H   -1.2550641802   -3.1372808861   -0.4934193581
 H   -0.5989224786   -0.4076200863    2.1669212992
 H   -3.2063989911   -0.7712821949    0.0326814048