21

 O    0.0511420110    1.4375952192   -0.0227869064
 C    0.0509539622    0.0133145410   -0.0052818029
 C    0.7749239559   -0.5300916126    1.2401717389
 C   -0.0465268692   -0.2347718112    2.5044073637
 C   -1.4933559471   -0.6955724014    2.3187774590
 O   -2.0725335924   -0.1312074934    1.1394320543
 C   -1.3716460929   -0.5098967644   -0.0235974748
 C   -2.1835472727   -0.5193319974   -1.2742404769
 C   -1.7199224269   -1.8297945867   -0.6618419340
 H   -0.7172960799    1.7163058198    0.4889654646
 H    0.5763617175   -0.3061730351   -0.9120408960
 H    0.9092461847   -1.6136910932    1.1262605331
 H    1.7692230138   -0.0787098307    1.3064759928
 H    0.3890358985   -0.7271540588    3.3807001259
 H   -0.0362008622    0.8431254670    2.7037023305
 H   -1.5399716674   -1.7942940654    2.2590178673
 H   -2.1294384336   -0.3726529308    3.1476472597
 H   -3.2340344807   -0.2717844962   -1.1740490360
 H   -1.7144427161   -0.1729682024   -2.1883676958
 H   -0.9395109245   -2.3930469807   -1.1627709316
 H   -2.4704673179   -2.4341850065   -0.1647404255