15

 O    0.0082778781    0.0219624851    0.4825470839
 C    0.0299858234    1.1613549220    0.1142911443
 O   -1.1661380589    1.8295417119    0.0013590044
 C   -1.4612869933    2.9759529929   -0.7139616187
 N   -0.9146795030    3.5358122476   -1.6911121827
 C    0.3311321572    3.1094350293   -2.2949017372
 C    1.4675470848    2.8141773104   -1.3274316814
 N    1.3619717136    3.3410766372    0.0245796030
 C    1.3033707374    1.8812423510   -0.1721968290
 H   -2.4031368979    3.3555945609   -0.3243585480
 H    0.1620752180    2.2223246407   -2.9230459835
 H    0.6525990343    3.9080108042   -2.9725055072
 H    2.4502760436    2.7940881757   -1.7964673793
 H    2.2679464005    3.6039481377    0.4010227351
 H    2.1576326321    1.2739670335    0.1094133462