18

 C    0.0892970068    1.4637102343    0.0532028472
 C    1.3308324260    0.6756581380   -0.0479856679
 C    1.7012678391    0.0845297036    1.3083164386
 O    1.9585733263    1.0481006087    2.3189751728
 C    1.1531640703    0.8865834476    3.4597954456
 O   -0.2163835880    0.9169953957    3.1600641602
 C   -0.6142930422   -0.2723877406    2.4785968908
 C    0.2931345478   -0.5871633093    1.2935946984
 N   -0.0357446002   -0.0039067471   -0.0563651527
 H   -0.1600535724    1.9619497062    0.9837860327
 H   -0.2453961888    1.9661229699   -0.8489014780
 H    1.9700367529    0.6816046465   -0.9237813759
 H    2.5278298845   -0.6331106477    1.2675921962
 H    1.3981926734   -0.0578154437    3.9813443830
 H    1.3643990960    1.7384789763    4.1085149982
 H   -0.5991899060   -1.1144651170    3.1887421936
 H   -1.6456936566   -0.1203016713    2.1476114695
 H    0.3691152209   -1.6691404602    1.1631221777