16

 C    0.0254087141    1.4767350133   -0.2344728024
 N    1.5128271503    1.5214001402    0.0971231639
 C    1.3787247779    0.2411290253    0.8591635422
 C    1.1827567762    0.2152446867    2.3496621563
 C    0.2481266030   -0.7250866911    2.5430588906
 C   -0.0763719772   -1.2469121995    1.1526055328
 C    1.2933575267   -1.2536002530    0.3211074239
 O    0.6385795348   -0.8361188152   -0.8924258043
 C    0.0284504203   -0.0045344780    0.1773920934
 H   -0.5267224026    2.1351065367    0.4403095044
 H   -0.2425636798    1.6837134987   -1.2733850504
 H    2.0644832829    1.3980979518   -0.7468816844
 H    1.6980623207    0.8344992609    3.0701615102
 H   -0.1734302142   -1.0907975521    3.4684535101
 H   -0.7960775123   -2.0501228566    0.9971764674
 H    2.0504835791   -2.0451929981    0.2516949461