20

 C    0.0099969909    1.6275967783   -0.0882154943
 C    0.0300139141    0.0975984616   -0.1113754668
 C   -1.3638254506   -0.5262449945    0.0985587171
 C   -1.3749352870   -2.0251258278    0.0622397296
 C   -1.3479565032   -2.8862817367    1.1234452357
 N   -1.2499149386   -2.7024477905    2.4993137860
 O   -1.3481846973   -4.1773234789    0.7137498864
 C   -1.3763536783   -4.1577620321   -0.6605561007
 C   -1.3860259989   -2.8790452290   -1.1008781372
 H    1.0106600515    2.0429136947   -0.2431899237
 H   -0.6417645254    2.0279888760   -0.8731633625
 H   -0.3614562853    2.0061194498    0.8711334806
 H    0.4353236884   -0.2555860993   -1.0675189779
 H    0.7090517858   -0.2815708186    0.6619672651
 H   -1.7686109601   -0.1711486646    1.0576186911
 H   -2.0453278911   -0.1345960103   -0.6685525259
 H   -1.5267697814   -1.7707808146    2.7794964402
 H   -1.7779343091   -3.3942748976    3.0182226705
 H   -1.3905569867   -5.1227104693   -1.1367075980
 H   -1.4128817975   -2.5580020564   -2.1315844452