10

 O   -0.0621252830   -0.0060818307   -0.0022452466
 C    0.0005602328    1.1907820971    0.0070715236
 C    1.2972798836    1.9693154383   -0.0001264033
 N    1.1847433964    3.2949364025    0.0119636236
 C    2.3603644145    3.9145192712    0.0053964749
 N    3.5509379658    3.3095724191   -0.0120113799
 N    3.5756581299    1.9840729882   -0.0226745014
 N    2.4534601519    1.2918518382   -0.0168852617
 H   -0.8868368147    1.8549357275    0.0224518010
 H    2.3708092529    5.0009432386    0.0128073598