17

 C   -0.0994940595    1.5689062689    0.0691637680
 C    0.0672572844    0.0548325110    0.0272606329
 C    1.1364042853   -0.5655305635   -0.9446040365
 C    1.7788117689   -1.2677426440    0.2588368801
 O    2.2241874180   -2.5791426600    0.2465858220
 C    2.2253740576   -0.2688852087    1.2858273639
 C    0.7599886958   -0.6538927322    1.2043897271
 H    0.8511091796    2.0783225695    0.2588634428
 H   -0.4927347495    1.9464348398   -0.8811785949
 H   -0.7974430511    1.8654809531    0.8599384937
 H   -0.9050055773   -0.4105387436   -0.1622593316
 H    0.6955306673   -1.2730033813   -1.6502067459
 H    1.7722920449    0.1382342650   -1.4939838217
 H    3.1602989974   -2.5775851432    0.0185531670
 H    2.7448342620   -0.7077965436    2.1320676555
 H    2.5726945370    0.7237870887    1.0079585260
 H    0.2570909790   -1.1008112260    2.0536856218