17

 C   -0.0135959751    1.5925617623    0.0446504282
 C    0.0311001775    0.0634600598   -0.0109604972
 O    0.8484237909   -0.4704624552    1.0178767436
 C   -1.3701336847   -0.5538636981    0.0276123222
 C   -1.4652409015   -2.1000245563    0.1807341643
 C   -2.2684856471   -1.8133739034    1.4680207293
 O   -2.8936172820   -2.4517151306    2.2672947580
 N   -2.0303662671   -0.4508603754    1.3483824455
 H    1.0013269511    1.9970925854    0.0322192219
 H   -0.5654880815    2.0077624371   -0.8054582890
 H   -0.5009734594    1.9329659272    0.9662232918
 H    0.5049972620   -0.2492896322   -0.9498946744
 H    0.3623430321   -0.3567672919    1.8446254281
 H   -1.9836846036   -0.1606296671   -0.7911664809
 H   -2.0340610227   -2.6235891011   -0.5887007074
 H   -0.5073608564   -2.5922815655    0.3517332430
 H   -2.5656538925    0.3086585449    1.7472226530