21

 C   -0.0305344287    1.5365705065    0.0494288830
 C   -0.0011401194    0.0213056157   -0.0232924068
 C    0.2853267852   -0.6529216157   -1.4051490196
 C   -0.7817028293   -1.6997719379   -1.0450269072
 C   -0.4814608103   -2.5168469934    0.2632820892
 C    0.8792085932   -2.1706197479    0.8574225269
 C    0.9070285421   -0.6311084052    1.0356051556
 O   -1.4908785683   -1.7598206230    1.0065648766
 C   -1.3955757909   -0.7496187738   -0.0055601782
 H    0.9616702435    1.9640633016   -0.1378774890
 H   -0.7177230933    1.9585800959   -0.6926346255
 H   -0.3574243988    1.8776503929    1.0388488517
 H   -0.0540393457   -0.0321555231   -2.2404615883
 H    1.3103981367   -0.9795192776   -1.6070964433
 H   -1.3538086096   -2.2228150103   -1.8114589547
 H   -0.7106484401   -3.5853282141    0.2509685370
 H    1.0171568897   -2.6791363550    1.8165159227
 H    1.6767213341   -2.5178546254    0.1905664683
 H    1.9269325337   -0.2399926132    0.9497050527
 H    0.5396898312   -0.3697426501    2.0324739579
 H   -2.3022229650   -0.1505570172   -0.1192458491