15

 N   -0.0363350675    1.4416769475   -0.1546968523
 C   -0.0336639663    0.0364769568   -0.0597419832
 C   -1.1153296130   -0.8246214760    0.0106860609
 N   -0.6489801365   -2.1126621575    0.0279028833
 C    0.7338306371   -2.1129484040   -0.0449126598
 C    1.5386433522   -3.2595805987   -0.0537931589
 C    2.2702680313   -4.2214092394   -0.0616285639
 C    1.1228426227   -0.7782489126   -0.0959462799
 O    2.3840183866   -0.2731878807   -0.1614700134
 H    0.8883102644    1.8131257264    0.0264109206
 H   -0.6913166245    1.8747331465    0.4845176150
 H   -2.1708152673   -0.6103072172    0.0494658254
 H   -1.2127287908   -2.9415533758    0.0676700291
 H    2.9058780717   -5.0713760276   -0.0724007574
 H    3.0054461598   -1.0107712576   -0.1656013554