21

 C    0.1262169591    1.6013694606    0.1260598845
 O    1.4046968808    1.5026302342   -0.5321029402
 C    1.2826447684    0.0647703958   -0.6650363177
 C    2.4707389861   -0.6886719580   -0.0824524366
 C    2.1884459390   -2.1903140075    0.0927118687
 C    1.3478289834   -2.5329362293    1.3289346512
 O    0.0175954268   -2.0449015136    1.3177760480
 C   -0.1080687236   -0.6399706745    1.4511942859
 C   -0.0644616742    0.0695397934    0.1043773181
 H    0.2103758607    2.0601853479    1.1206328783
 H   -0.5980016133    2.1754764351   -0.4649581538
 H    1.1603961030   -0.2125063408   -1.7221225144
 H    3.3301140456   -0.5390002734   -0.7459995012
 H    2.7456016076   -0.2412895066    0.8803624059
 H    1.6921107605   -2.5892357780   -0.8014197821
 H    3.1379120710   -2.7315654371    0.1886643825
 H    1.2540943598   -3.6203209823    1.4172240160
 H    1.8691788545   -2.1709966525    2.2319747418
 H   -1.0788530219   -0.4574641769    1.9278946870
 H    0.6657069735   -0.2450365942    2.1283622186
 H   -0.9072479468   -0.2710420621   -0.5010150204