18

 C    0.8675374528    1.3858583459    0.6220154759
 N    0.8129985077   -0.0582561508    0.7030618998
 C   -0.3434804684   -0.7541549057    0.6160841598
 O   -1.4543323093   -0.2709309030    0.4765069198
 C   -0.1749052128   -2.2822197824    0.7112795606
 O    1.1910253395   -2.6852245066    0.8466709830
 C    1.3539426046   -3.5021182699    2.0125737171
 C   -0.0028713004   -3.5328107799    2.6567150567
 C   -0.8690918918   -2.8479661710    1.9208798906
 H    1.2884961290    1.8217557240    1.5350879280
 H    1.4707875659    1.7151024441   -0.2314450850
 H   -0.1549201952    1.7449494636    0.4948767918
 H    1.6543349216   -0.6076123707    0.7881329895
 H   -0.5903770164   -2.6893419557   -0.2234073998
 H    1.7049655144   -4.5020544154    1.7147215311
 H    2.1262694224   -3.0661605493    2.6635360204
 H   -0.2032418696   -4.0516196981    3.5851095148
 H   -1.9182553041   -2.6717984389    2.1101524858