13

 O    0.3440245418   -0.0917657586   -0.1584287487
 C    0.5169807069    1.0643181652   -0.3770261948
 O    0.4258335966    2.0069807735    0.6110780703
 C    0.7357349566    3.2983627905    0.2764406051
 C    1.8610157554    3.8674617444   -0.2651258986
 C    1.5988190408    5.2679607489   -0.3467008672
 C    0.3388649150    5.4915851124    0.1506457425
 N   -0.1869960420    4.2756276757    0.5252459759
 H    0.7668755900    1.5178367253   -1.3518478814
 H    2.7642746194    3.3488012812   -0.5436654406
 H    2.2718897945    6.0221369065   -0.7232758648
 H   -0.2258944898    6.4002541497    0.2773032674
 H   -1.0895442350    4.1110397253    0.9366382848