21

 C   -0.0580609124    1.5843476765   -0.0488214928
 C    0.0704164554    0.0818192145    0.0613701797
 O   -1.0943443448   -0.5992933574   -0.3610981702
 C    1.3233904180   -0.7150067861   -0.2011613627
 C    2.5753689719   -0.0150801690    0.3314539257
 C    1.9493140959   -0.0585595634    1.7782210394
 C    2.6867348571   -1.0210241908    2.7054366298
 O    1.7239119298    1.1828669963    2.4299434587
 C    0.6768199210   -0.6784742341    1.2043901629
 H    0.7900591623    2.1061101357    0.3923531428
 H   -0.1499293728    1.8831011359   -1.1015678791
 H   -0.9614114119    1.9103552416    0.4756857220
 H   -1.2129184891   -0.4107693835   -1.2985805868
 H    1.3089536092   -1.5334878272   -0.9105643835
 H    3.4845892998   -0.6165021826    0.2509505778
 H    2.7785988945    0.9836230485   -0.0655788433
 H    3.6825222561   -0.6311524444    2.9524434700
 H    2.1256887616   -1.1518922242    3.6361780485
 H    2.8185822672   -2.0008478775    2.2378040989
 H    2.5549135514    1.4670635569    2.8261347801
 H    0.0873434099   -1.4399809257    1.7021527422