19

 C    0.1129019624    1.6089707930   -0.1412111237
 C    0.0494034429    0.0848000279   -0.0163268317
 C    0.6724868134   -0.6341197442   -1.2062906116
 O    2.0979032851   -0.6285670868   -1.1819749704
 C    1.4120144399   -1.8316782032   -0.7712004000
 C    1.2956161837   -1.9011346805    0.7297205419
 O    1.5374963321   -2.8644026865    1.4113936639
 C    0.7540837397   -0.5478132783    1.2282440360
 C    1.8907112013    0.2685030706    1.8696303169
 H    1.1445201726    1.9570008918   -0.2378216762
 H   -0.4381287789    1.9430084832   -1.0267586612
 H   -0.3329580748    2.0989187872    0.7296930157
 H   -1.0069112814   -0.2145719788    0.0114281798
 H    0.2221488130   -0.5714595816   -2.1946989345
 H    1.5814373453   -2.7194513220   -1.3716822345
 H    0.0156358478   -0.7683094331    2.0050922836
 H    2.6723444944    0.4991009313    1.1425830485
 H    1.5140193147    1.2069556975    2.2859925659
 H    2.3374789869   -0.3076985677    2.6848300715