18

 O    0.5891104415    0.3595613729   -0.7221387508
 C   -0.2980447139    0.3560026053    0.3792900640
 C   -1.6185538927   -0.3603282570    0.0451443507
 O   -2.4420352684   -0.3137001729    1.2216102675
 C   -2.6253237966   -1.4469110109    1.9334224553
 O   -3.2774111977   -1.4794650537    2.9310789186
 C   -2.3565568195    0.2912197673   -1.1051903020
 C   -3.8315016443    0.2564761026   -1.2208326442
 N   -3.1381092561    1.5195139586   -0.8960534260
 H    0.3598869262    1.0996030877   -1.2921012973
 H    0.2011143730   -0.1828830045    1.1916861382
 H   -0.5205028961    1.3686863759    0.7414567684
 H   -1.3955655185   -1.4044870651   -0.2144960967
 H   -2.1113941408   -2.3189210639    1.4857617945
 H   -1.7699985418    0.2905768049   -2.0213491039
 H   -4.2921178323    0.2238491779   -2.2037132331
 H   -4.3948150303   -0.2316009653   -0.4317260424
 H   -3.2316176518    1.6834639301    0.1050927393