19

 C   -0.1149794374    1.5612813208    0.1207005786
 N   -0.0559687499    0.1131813151    0.2092503181
 C   -0.9763347863   -0.5882930124    1.1413794101
 C   -2.1715564819   -1.2244935303    0.4439172813
 O   -2.9231897745   -0.2644362234   -0.2795029438
 C    0.1931933771   -1.5052127591    1.5794044787
 C    1.1220702601   -0.4713849995    0.8813269511
 C    2.1730598602   -0.9651632569   -0.0088737961
 N    3.0032983033   -1.3653989268   -0.7061902979
 H    0.6375592736    1.9210363200   -0.5882035298
 H   -1.1022094643    1.8612565269   -0.2390246646
 H    0.0574271975    2.0577520999    1.0931833272
 H   -1.3196242369    0.0704116992    1.9537725020
 H   -1.8189433395   -2.0311376683   -0.2159921075
 H   -2.8490076161   -1.6661591179    1.1832803814
 H   -2.3881807674   -0.0164754753   -1.0411962710
 H    0.3551685066   -1.6417690093    2.6473698977
 H    0.1903360907   -2.4751684699    1.0797635005
 H    1.5806519850    0.2127736374    1.6126195039