16

 O   -0.1710378076   -0.0520362939    0.0338269896
 C   -0.0729729051    1.1576825641    0.0504849846
 C    1.1865459461    1.8865812231   -0.0074117877
 C    1.1737878342    3.2346685021    0.0217860444
 N    2.3286732534    3.9837038432   -0.0363507492
 C    3.5842724745    3.4664665942   -0.3620367896
 O    4.5639252708    4.1744171938   -0.3520734755
 C    3.5633883834    2.0062972413   -0.7875344223
 C    2.5061953483    1.1613657571   -0.0595669904
 H   -0.9773120837    1.8063345082    0.1139773635
 H    0.2508151423    3.8007335780    0.1018762376
 H    2.3022890552    4.9805320158    0.1219845829
 H    3.3523988401    2.0121023575   -1.8660210432
 H    4.5726795720    1.6112340591   -0.6617571847
 H    2.8408824000    0.9409348678    0.9635628212
 H    2.3759361261    0.1931762685   -0.5492768711