20

 O    0.0652224133    1.3988113687    0.0725887062
 C    0.0257219710   -0.0057634954   -0.0994994646
 C   -1.3790206266   -0.5425291860    0.0326463091
 C   -1.9191080615   -1.0432268356    1.3475865268
 C   -1.7219072548   -2.0047219461    0.1953919978
 C   -2.8982536140   -2.3011650075   -0.7391804306
 C   -3.1983733065   -0.9756749877   -1.4456927927
 C   -3.6972507775    0.1844346901   -0.6657926579
 N   -2.2646008066    0.0692516697   -0.9705673662
 H   -0.5897168459    1.7464078720   -0.5459298083
 H    0.4277335592   -0.2935109418   -1.0848164557
 H    0.6754524789   -0.4409980531    0.6668422310
 H   -1.2055512724   -1.1044400750    2.1633964053
 H   -2.9215939294   -0.7947108143    1.6756683527
 H   -0.9466016232   -2.7584922916    0.2877602453
 H   -2.6016781082   -3.0511712332   -1.4786986626
 H   -3.7724392062   -2.7008868703   -0.2133108574
 H   -3.3804172005   -1.0071883055   -2.5170953062
 H   -4.1961837685    1.0023595188   -1.1791847420
 H   -4.0458509308    0.0272986138    0.3493389300