21

 C   -0.4622586711    1.1322326149    0.2506244827
 O    0.4251981868    0.0912698508   -0.1096737610
 C    0.9201070099   -0.5967575108    0.9994724927
 C    0.1548141345   -1.6824147252    1.6914688102
 C   -0.6691257127   -2.4870282037    0.6763226017
 C    0.6483686849   -2.8699153619   -0.0793968296
 C    0.7559632553   -2.6427496575   -1.5823940075
 O   -0.0349975465   -3.5754380140   -2.3133628143
 C    1.4521650061   -1.9828502156    0.8845420587
 H    0.0374949395    1.8887253197    0.8745615497
 H   -0.7995801028    1.6045010767   -0.6747373493
 H   -1.3332774243    0.7510274522    0.8023542979
 H    1.4960056864    0.0382505333    1.6771641262
 H    0.0021810345   -1.6894117668    2.7644342582
 H   -1.1751992433   -3.3494075787    1.1130376160
 H   -1.3988086491   -1.9002541895    0.1074302620
 H    0.8763091517   -3.9218715846    0.1185405681
 H    0.4959139627   -1.6074860775   -1.8318974035
 H    1.7893182079   -2.8124923445   -1.9066472074
 H   -0.9580963406   -3.3759173083   -2.1287474851
 H    2.4448000404   -2.2236332089    1.2489876133