21

 C   -0.9099309163    1.2844053830   -0.4798714890
 C   -0.2609318984   -0.0674977497   -0.1787415373
 C    0.5463128525   -0.0600808728    1.1275186041
 O   -0.3670121545    0.2139953649    2.1879726105
 C    0.2414660305    0.4742792864    3.4180460311
 C    0.7402499438    1.8679441465    3.7062848980
 C   -0.5267589711    1.3441563304    4.3561620254
 C    1.2519913793   -1.3320238829    1.3332737988
 C    1.8237094493   -2.3773254954    1.4940209753
 H   -0.1540566388    2.0687775492   -0.6010240399
 H   -1.4914189488    1.2375268132   -1.4052562243
 H   -1.5782153348    1.5818822533    0.3314401636
 H   -1.0225747659   -0.8502740496   -0.0969954525
 H    0.4137864289   -0.3616992082   -0.9895371562
 H    1.2956074680    0.7475455416    1.0828774718
 H    0.8022061315   -0.3650534960    3.8251734157
 H    1.6313039590    1.9889016778    4.3124077654
 H    0.6173876566    2.6070442964    2.9223207275
 H   -1.4675152150    1.7374306281    3.9883451536
 H   -0.5160458409    1.1015276373    5.4126557554
 H    2.3316222649   -3.2990564538    1.6373059130