17

 C    0.0672481507    1.3210236105   -0.3981213765
 N   -0.2040477995    0.2196766034    0.5199905025
 C   -1.4477294816   -0.4346128326    0.2858007721
 C   -1.6965145183   -1.4012513841   -0.8371912572
 C   -1.5692915839   -1.9341947258    0.6075383379
 C   -0.3787468495   -2.6604583543    0.9588472200
 C    0.6297997615   -3.2478870718    1.2467269434
 C   -2.7822166510   -2.3662588467    1.2608071410
 N   -3.7659607421   -2.6967355724    1.7708018930
 H    1.0407905709    1.7554488272   -0.1569578654
 H    0.0660689171    1.0322570702   -1.4626226901
 H   -0.6881915258    2.1030804428   -0.2647047639
 H    0.5570251189   -0.4501083966    0.5308929695
 H   -2.3093664337    0.1506956506    0.5983188109
 H   -2.6816418590   -1.4569778596   -1.2860176901
 H   -0.8684294125   -1.6584432312   -1.4875252269
 H    1.5098039681   -3.7826511597    1.5080298098