17

 O   -0.0274628005    1.4498280476   -0.0568424665
 C    0.0159004127    0.0478684911    0.0084639129
 C   -0.0208543125   -0.6634140370    1.4081793926
 C   -1.4930728202   -0.1486997479    1.5363028181
 C   -1.3684714139   -0.6500474830    0.0590765660
 C   -0.6087471813   -1.8547343792    0.6391950547
 C   -0.0522271165   -3.1014424905    0.0981677271
 N   -1.1614423784   -3.1075878394    1.1026074896
 H    0.8605906349    1.7842840908    0.1012347881
 H    0.7335271211   -0.3693009020   -0.7098209788
 H    0.7587133058   -0.6793464155    2.1726696265
 H   -2.1535585750   -0.7278649553    2.1837222566
 H   -1.6149744495    0.9250404046    1.6671134347
 H   -2.1342508763   -0.6526775222   -0.7156789749
 H   -0.3383409604   -3.4616693101   -0.8864951281
 H    0.9367310826   -3.4169231365    0.4228005939
 H   -0.7909612025   -3.3476611855    2.0196680275