27

 C    0.9385930673    0.6837395776   -1.1206032298
 C    0.1016564458    0.3539238014    0.1212324296
 C    0.8942338751   -0.3096083729    1.2696358632
 C    0.1952137846   -0.1648312376    2.6535996378
 C    0.3283286920    1.2693785743    3.1929387639
 C   -1.2755314751   -0.6128616567    2.6742548616
 C    1.2957477514   -1.7540276546    0.8948163178
 C    2.1954774405   -2.4545652720    1.9161650063
 O    0.1048680071   -2.5109021572    0.6619910767
 H    1.3478495119   -0.2134825359   -1.5955869504
 H    0.3311852923    1.1973574864   -1.8727938065
 H    1.7805179018    1.3398203309   -0.8705575407
 H   -0.3466158195    1.2833553553    0.4885470889
 H   -0.7279123837   -0.3013346965   -0.1610678469
 H    1.8517955048    0.2258059847    1.3572070924
 H    0.7401886896   -0.8069305087    3.3562513044
 H    1.3765659825    1.5832176398    3.2478575732
 H   -0.2036149606    1.9931929568    2.5657382672
 H   -0.0955212695    1.3425426849    4.2001650990
 H   -1.3825851932   -1.6381292223    2.3181932596
 H   -1.6750824899   -0.5494011647    3.6925197385
 H   -1.8970284469    0.0301812230    2.0415838637
 H    1.8647285103   -1.6870468103   -0.0464639660
 H    1.6639436750   -2.6543050266    2.8501757878
 H    2.5427958216   -3.4157493863    1.5185202557
 H    3.0828024741   -1.8530910455    2.1400980011
 H    0.3648115608   -3.4019528574    0.4088187118