16

 O   -0.0136133579    1.4474781339   -0.0375773559
 C    0.0228710593    0.0364053142   -0.0154468310
 C   -1.3698174134   -0.5668090304    0.0353305704
 O   -2.0306048263   -0.1767758093   -1.1706018779
 C   -3.3206915021   -0.5531460051   -1.2813485576
 C   -4.1358440785   -1.2677816040   -0.4550964314
 O   -5.3562109322   -1.3834902062   -1.0215420196
 N   -5.3583695254   -0.7376777955   -2.2452025168
 C   -4.1535625438   -0.2485453775   -2.3951069983
 H   -0.5610174950    1.6986436865   -0.7898888169
 H    0.5582007033   -0.3727234736   -0.8864773807
 H    0.5732088931   -0.2564426645    0.8843276641
 H   -1.3276816078   -1.6634810066    0.1013371792
 H   -1.9251575182   -0.1758704743    0.8989197796
 H   -4.0101551974   -1.7349176894    0.5065386543
 H   -3.9001956076    0.3074347518   -3.2858284918