18

 O    0.1670045117   -0.0310390635   -0.1668526694
 C    0.0277482611    1.1556251886   -0.0533660895
 C   -1.1629234537    2.1380616604    0.0689897443
 C   -0.0913876783    3.2691182557    0.0469050095
 C   -0.0236468096    4.1821415648    1.2642628448
 C    1.2259032134    5.0866479282    1.2607750382
 C    1.2826663592    5.9803441035    2.4104184976
 C    1.3047654105    6.7061621425    3.3679747853
 N    0.9231564556    2.2010822529   -0.0056519066
 H   -1.8458619695    2.1152276617   -0.7815986360
 H   -1.7287096186    2.0523900573    0.9988158867
 H   -0.1193147154    3.8645540194   -0.8749927871
 H   -0.9217508562    4.8097721911    1.2871438728
 H   -0.0289804684    3.5748057839    2.1758799051
 H    2.1273545785    4.4598234251    1.2446640797
 H    1.2471527898    5.6783612727    0.3356256513
 H    1.3356187945    7.3518124870    4.2103044677
 H    1.9136108353    2.2213564386   -0.2007251944