18

 C    0.5436896204    1.5077293109    0.1028720987
 C    0.0229143951    0.0714479408   -0.0336606354
 O   -1.3826634953    0.0577932453   -0.1800409810
 C    0.7121071986   -0.7175036233   -1.1681922899
 O    1.1070605371    0.0200475715   -2.3022917285
 C    1.9662427666   -1.3089370440   -0.4921646213
 N    1.5441469801   -1.4429410231    0.8951855178
 C    0.4168285725   -0.7516454885    1.2048331726
 O   -0.2090669437   -0.7640068127    2.2462602575
 H    1.6348386008    1.5454583994    0.1768060505
 H    0.2411223409    2.0915886599   -0.7692975668
 H    0.1168812379    1.9636670966    1.0003629121
 H   -1.7355438606   -0.0162560485    0.7193299922
 H    0.0290712751   -1.5343056487   -1.4412524676
 H    0.3104748338    0.2869876783   -2.7725258275
 H    2.2510209934   -2.2741935960   -0.9192975539
 H    2.8110262153   -0.6184761539   -0.6094870103
 H    1.9985243721   -2.0414421040    1.5667085008