16

 O   -0.0485397261   -0.0740363381    0.0227104882
 C   -0.0304310179    1.1407720179    0.0360776211
 C   -1.3231477122    1.9519119710    0.1122552525
 O   -1.1539979978    3.3250155165    0.4166395516
 C   -0.1533555702    3.9144328668   -0.3792222014
 C    1.2182558678    3.3266171195   -0.0006193352
 N    1.1215535367    1.8676864644   -0.0585356990
 C    2.2727475187    3.8181824343   -0.8827393252
 C    3.1345915908    4.2320726547   -1.6099452383
 H   -1.8468165520    1.8216683944   -0.8487358458
 H   -1.9477292033    1.5174850548    0.8950151361
 H   -0.3393929804    3.7491383282   -1.4516060286
 H   -0.1632763612    4.9877781003   -0.1798932964
 H    1.4405831683    3.6467145588    1.0285579227
 H    1.9753513495    1.3287329287   -0.0911975690
 H    3.8997774793    4.5971577377   -2.2502444931