19

 C   -0.1488810964    1.5199347434    0.0193422670
 C    0.0464426487    0.0066997664    0.0335542359
 C    1.0476365395   -0.5658963856   -1.0363591690
 N    2.0476036069   -1.3149705059   -0.2204072467
 C    1.1231069922   -2.0038390367    0.7591486271
 C    0.7907628415   -0.5696411211    1.2704292231
 C    2.2824227072   -0.3170724726    0.8886064766
 C    0.2429401686   -0.2979048898    2.5798078146
 N   -0.1870519042   -0.0834333439    3.6320876050
 H    0.8012299680    2.0571685427    0.1069150723
 H   -0.6180345214    1.8340101803   -0.9185767176
 H   -0.7953101066    1.8433465656    0.8410750644
 H   -0.9321739658   -0.4775546088   -0.0504567518
 H    0.5710026741   -1.2441987753   -1.7475192964
 H    1.5523864535    0.2257085390   -1.5966912455
 H    0.3162789610   -2.5906901866    0.3128937528
 H    1.6926831058   -2.6036719832    1.4705938976
 H    2.9875958621   -0.7134513438    1.6207340164
 H    2.5829459553    0.6823910760    0.5678868242