18

 C    0.0358101817    1.4541170304    0.0393358404
 C    0.0137841132   -0.0453693150   -0.0054364422
 C    0.0991864918   -0.7458752640   -1.1454305997
 C    0.0257258113   -2.2042274451   -1.2137859330
 N    0.1358892599   -2.8134710170   -2.3255436481
 O   -0.2049813755   -2.9062104566   -0.0568077484
 C   -0.1786308537   -2.2680524188    1.1942758069
 C    1.0736492749   -1.6486919497    1.7297376852
 C   -0.0991124112   -0.7692835960    1.2821030744
 H    0.8652436681    1.8138493092    0.6607973978
 H    0.1360170326    1.8857246075   -0.9591284962
 H   -0.8849409611    1.8430574231    0.4923807868
 H    0.2104134089   -0.2614376329   -2.1080177496
 H    0.0432990455   -3.8207447083   -2.1798954556
 H   -0.8262453678   -2.8010368810    1.8807127568
 H    1.2735303483   -1.7387872450    2.7919114238
 H    1.9492166149   -1.6457981674    1.0901185721
 H   -0.6688474217   -0.2735260933    2.0623464987