15

 O    0.4772150279    1.5828326081   -0.0543643420
 C    0.1448182894    0.2081214588    0.0291906125
 C    0.4865190172   -0.5284434158   -1.1905141320
 C    0.7942525324   -1.1135721007   -2.1935394774
 C    0.7968243836   -0.4304252013    1.2667497922
 C    0.0333560851   -0.4889138220    2.5269486302
 O    0.1917700146   -1.6486768251    1.7104317494
 C    2.2387423082   -0.3606016107    1.2947572241
 C    3.4364257997   -0.2589213807    1.2758588618
 H    1.4199140347    1.6375523645   -0.2545849627
 H   -0.9389764290    0.1705634282    0.1819567025
 H    1.0565898013   -1.6374217887   -3.0796274642
 H    0.5715786332   -0.5040664237    3.4720020544
 H   -0.9684645978   -0.0628833675    2.5558941288
 H    4.4965829594   -0.1888087334    1.2722956225