16

 O   -0.2714060161    0.5055754892   -0.8006201772
 C    0.1461431039    1.1016907265    0.1655375926
 C    1.3595359608    1.9431143159    0.1694298587
 C    1.8950788561    2.6962197941    1.3745336709
 N    3.0882428960    3.3480961182    0.8244137755
 C    3.6758865073    2.4885057061   -0.2174306172
 C    2.8552701736    3.6734017872   -0.5931742582
 C    1.7210086494    2.7334085532   -1.0919071039
 C    2.5448749296    1.5437907651   -0.7146363785
 H   -0.3852127923    1.0442352044    1.1420303696
 H    1.2005023832    3.4545361245    1.7503289144
 H    2.1823919938    2.0368032773    2.1999567927
 H    4.7418614177    2.3053517632   -0.2329984266
 H    3.1178962624    4.6501949017   -0.9765715832
 H    1.0312423467    2.8673320650   -1.9118619666
 H    2.6191525580    0.5745025385   -1.1847446927