22

 C    0.0008498337    1.5972123190    0.2131294182
 C   -0.0178202869    0.0630636755    0.0629016832
 C    0.6653361120   -0.4550908894   -1.2274372078
 C   -0.0363540977   -0.0667242008   -2.5253936787
 C    0.1676930249    1.3395880401   -3.1684393068
 C    0.2194544816    0.6565157161   -4.5601258983
 C    0.5104857442   -0.6882257851   -3.8429140839
 C    0.6047114331   -0.5610467167    1.2366205096
 N    1.1072007009   -1.0501207382    2.1557151787
 H    1.0278676270    1.9735665199    0.2106379349
 H   -0.5408234221    2.0648793654   -0.6110880673
 H   -0.4700204734    1.9011722378    1.1512731688
 H   -1.0639988615   -0.2715462961    0.0493866699
 H    1.7057946777   -0.1065202917   -1.2452745958
 H    0.7093532811   -1.5495090312   -1.1708434710
 H   -1.1095765551   -0.2803472176   -2.4405581603
 H   -0.6010170615    2.0988165483   -3.0034545845
 H    1.1383850684    1.7637418469   -2.8913199954
 H   -0.7602561714    0.6526916068   -5.0463582621
 H    0.9593558350    1.0199882069   -5.2764250941
 H    1.5863536875   -0.8793365329   -3.7690880269
 H    0.0236866527   -1.5918262230   -4.2179580006