17

 C    0.0737089252    1.5002022319    0.1208071210
 C    0.0016593729    0.0138791563    0.0220087808
 C   -0.0345848278   -0.7248511940   -1.1098153356
 C   -0.0657305884   -0.2489250270   -2.4404508924
 C   -0.1071516600    0.1195093006   -3.5878701189
 C    0.0007675193   -2.1884694472   -0.7705186471
 O    1.1999429779   -2.5775375463   -0.0686807796
 C    0.0287676046   -2.2838817575    0.6962304466
 C   -0.0073016795   -0.8695528170    1.2565259264
 H    1.0079286622    1.8143432975    0.6039391556
 H    0.0231035008    1.9670531224   -0.8652473218
 H   -0.7436370696    1.8937293243    0.7385169922
 H   -0.1331798035    0.4507574090   -4.5962281328
 H   -0.4174258937   -2.9365004644   -1.4360579281
 H   -0.3917889187   -3.1173072078    1.2518801531
 H    0.8499967078   -0.6677517591    1.9109282528
 H   -0.9108658594   -0.7006248817    1.8582302877