16

 O   -0.0257145739    1.4569239996    0.1614843451
 C    0.0700074263    0.0645126111    0.0669702791
 C    0.1246488175   -0.6797554163    1.4645533309
 C   -1.3791072838   -0.7125671887    1.3422145807
 C   -2.4729341931   -0.1605092242    1.8689461652
 C   -3.3474691099    0.3060301902    0.7399549224
 O   -4.4647653503    0.7678072507    0.7806346172
 N   -2.5676701880    0.1692078103   -0.4177679473
 C   -1.3759484908   -0.5650718626   -0.1509133138
 H    0.8092603916    1.7963668045    0.4990708716
 H    0.8245640816   -0.2559874222   -0.6633312357
 H    0.6105451234   -1.6565677193    1.3847378690
 H    0.5477443033   -0.1223701975    2.3026774535
 H   -2.6938594173    0.0859222410    2.8976568948
 H   -3.0140002897    0.2184417441   -1.3194894490
 H   -1.2871601569   -1.4911070006   -0.7295238937