13

 C   -0.0166307929    1.4762797833    0.0339928215
 C    0.0011261648   -0.0189582700   -0.0046568505
 N   -0.0261684803   -0.6083098038   -1.1748570197
 C   -0.0104256216   -1.9619124257   -1.2442722500
 O   -0.0291334580   -2.6867334986   -2.1829368929
 O    0.0380051318   -2.6570785765    0.0704750871
 C    0.0616845972   -1.9224850496    1.1638268885
 O    0.1034098755   -2.6238983577    2.2832662986
 N    0.0461311160   -0.6298962016    1.2193036115
 H    0.8742996740    1.8375165471    0.5580442397
 H   -0.0549850590    1.8878856948   -0.9733089822
 H   -0.8795715788    1.8153583167    0.6163232585
 H    0.1084788611   -3.5646739784    2.0538130097