16

 O   -0.1834384414    1.3807310881   -0.1737573905
 C   -0.0496168692   -0.0225786064   -0.0815122032
 C    0.6993809302   -0.5843114637   -1.2165916057
 C    1.3286770655   -1.0468808564   -2.1299429205
 C    0.6383597608   -0.4351296967    1.2268441757
 N    1.5186342703    0.5686480906    1.7987412879
 C    0.3245779529    0.1577517084    2.5709608853
 C   -0.7304600730    1.1892066554    2.8217249311
 O   -1.5093112328    1.0913599840    3.7378140228
 H    0.6611051991    1.7417182095    0.1358252458
 H   -1.0673132202   -0.4316712478   -0.0943942546
 H    1.8716727198   -1.4486160443   -2.9498671430
 H    0.9537723569   -1.4759646456    1.2456112451
 H    2.3676655590    0.1713098601    2.1876825638
 H    0.4626289800   -0.5120993355    3.4170332154
 H   -0.7461057781    2.0381426404    2.1147778945