20

 C   -0.0618569412    1.5429212633    0.0106255092
 C    0.0866401220    0.0396632113    0.0268141627
 C    1.4008977236   -0.6949890533   -0.2383413621
 N    2.6252638518    0.0471481336   -0.0745899363
 C    2.6609150847    0.4140789068    1.1474761094
 C    3.7115923076    1.2386168954    1.8062533277
 O    1.6362908540    0.0137154904    1.9591655640
 C    0.7426641880   -0.7400016977    1.1364381255
 C    0.1194729124   -1.9002171918    1.8538741092
 H    0.8614620325    2.0495862203    0.2981533442
 H   -0.3250134898    1.8895430477   -0.9938594255
 H   -0.8511076893    1.8666039872    0.6974361838
 H   -0.7641751076   -0.4952777942   -0.3900352088
 H    1.4238010145   -1.5183346555   -0.9434646802
 H    4.5183286151    1.4315082884    1.0997248468
 H    3.2958755981    2.1914173746    2.1497394029
 H    4.1047351026    0.7197340474    2.6860455498
 H   -0.5323702597   -1.5607824402    2.6661946483
 H   -0.4870513619   -2.4874860266    1.1588845061
 H    0.8862386125   -2.5544493173    2.2809218633