12

 O    0.0589402590    1.3536691181    0.1324521628
 C    0.0698979530    0.0187718682    0.0216704089
 N    0.0922344661   -0.7044723121   -1.0601484129
 N    0.0958345964   -2.0661300605   -0.7049705365
 C    0.0749292684   -2.0555096719    0.5981310836
 N    0.0628555334   -2.8866274085    1.6830902909
 N    0.0393938598   -2.1734070578    2.8527508208
 C    0.0361811126   -0.9170017412    2.5157607853
 N    0.0575440673   -0.7818207586    1.1384444982
 H    0.0708747021    1.7054552425   -0.7676839188
 H    0.0705934168   -3.8896980298    1.7074222596
 H    0.0193523951   -0.0957070583    3.2109796080