21

 C    0.1045939445    1.4549494650   -0.5192365850
 O   -0.1003730441    0.0970290314   -0.8295564742
 C    0.7512434635   -0.7679126039   -0.1120304682
 C    0.4392509221   -2.1955361090   -0.5480934758
 C    0.8921964143   -2.5026347450   -1.9871021928
 O    2.1812744465   -3.0688937905   -1.8005787811
 C    2.0682210748   -3.8302481135   -0.6222205083
 C    3.4241530340   -4.0400756155    0.0119000555
 O    1.2126598927   -3.0934537711    0.2473570224
 H   -0.0837374277    1.6620313791    0.5458407473
 H    1.1314393740    1.7767722871   -0.7539576287
 H   -0.5954430951    2.0387165040   -1.1218942386
 H    1.8112806491   -0.5454592120   -0.3192042666
 H    0.5955467280   -0.6719936559    0.9742892586
 H   -0.6302625040   -2.3911195724   -0.4072583896
 H    0.2149197756   -3.2192222162   -2.4747497757
 H    0.9794825396   -1.6091619608   -2.6070746111
 H    1.5828590233   -4.7980495891   -0.8517096391
 H    3.8880295366   -3.0726055057    0.2185204425
 H    3.3142694761   -4.5926303679    0.9482727369
 H    4.0676484862   -4.6124995280   -0.6612651383