17

 C    0.0727172045   -1.1729831335   -0.0377985414
 C    0.0485798951    0.0283080972   -0.0121580912
 C   -0.0169457992    1.4648510511    0.0273091936
 C   -0.3214796984    2.2853024201    1.3233557269
 C    0.4979198503    3.2991980650    0.4866138584
 O    1.2688352409    2.1734450258   -0.0314880848
 C   -0.4608981124    3.6341578725   -0.6778398020
 C   -0.0947742885    3.0570150356   -2.0220792446
 C   -0.8649684189    2.2181107244   -1.0371496462
 H    0.1020073300   -2.2343838658   -0.0633654109
 H   -1.3648937404    2.5088357729    1.5581644450
 H    0.2255417197    1.9036159278    2.1864641332
 H    1.1099775741    4.0858635434    0.9251759213
 H   -1.1685770233    4.4480304156   -0.5799481951
 H   -0.6601924939    3.4278309365   -2.8705625572
 H    0.9402448280    2.8128498483   -2.2243422762
 H   -1.8837252876    1.9022605530   -1.2202476687