21

 C    0.0252401187    1.6428293440   -0.1817788437
 O   -0.1183059549    0.2532987488    0.0189527780
 C    0.5560651447   -0.5560198956   -0.9308893619
 C    2.0403238814   -0.7665625229   -0.5780342375
 O    2.7614796966   -1.3344081399   -1.6507874262
 C   -0.2102999407   -1.8766354893   -0.9376240544
 C   -1.4944884421   -1.9617292014   -1.7860359560
 C   -0.7123384272   -2.9903210828   -2.6281458067
 O    0.4404956324   -2.8893791047   -1.7564683765
 H    1.0700894553    1.9747869931   -0.1062238124
 H   -0.3632278478    1.9513684752   -1.1643214781
 H   -0.5545117674    2.1402641406    0.5995935004
 H    0.5124475887   -0.0996860622   -1.9336245117
 H    2.5037174186    0.2010910032   -0.3586806501
 H    2.1079383196   -1.3727856921    0.3409154696
 H    2.2707093317   -2.1262792795   -1.9126465288
 H   -0.3117078765   -2.2213319464    0.0987472614
 H   -2.3673742608   -2.3569765805   -1.2659758549
 H   -1.7692487223   -1.0386376420   -2.2987141008
 H   -1.1134634292   -4.0094450200   -2.6402330464
 H   -0.4727562089   -2.6878482155   -3.6537804832