19

 C   -0.2259477387   -1.0513220435   -0.2442079526
 C   -0.1028659893    0.1380439139   -0.0995534872
 C    0.0777307107    1.5464092849    0.0584339042
 C    0.6255736854    2.1255318614    1.3696062408
 C    1.4836154450    2.1615180334    0.1612399938
 C    2.7490585252    1.3334325336   -0.0642231895
 C    3.5639247109    2.2059688263   -1.0512806488
 C    2.5187447573    3.2114323905   -1.5557435029
 O    1.6519805648    3.4161583718   -0.4426721554
 H   -0.3513259782   -2.0984076366   -0.3655910979
 H   -0.6398236628    2.1802403930   -0.4538400829
 H    0.1917889255    3.0617795416    1.7022816405
 H    0.8764849879    1.4219503034    2.1554577053
 H    3.2923890403    1.1644261979    0.8689534641
 H    2.5000788778    0.3551233754   -0.4826578254
 H    4.3639590536    2.7344435558   -0.5256500484
 H    4.0161718377    1.6277861029   -1.8602324175
 H    2.9296577619    4.1825954776   -1.8404176374
 H    1.9563448751    2.8021492967   -2.4093595527