20

 C   -0.0105412185    1.4704772261   -0.1280470025
 C    0.0044860922   -0.0319798176   -0.0517310038
 N   -1.0607536553   -0.6976063769    0.0265225442
 C   -1.1479463555   -2.1419270016    0.1067778679
 C    0.0751386871   -3.0287041715   -0.2407242866
 C    0.5943770797   -2.8278826068   -1.6432219567
 C    1.4001693603   -1.8515362980   -2.0617440441
 C    1.9669416359   -0.7427447050   -1.2196177333
 O    1.2880808739   -0.5632705648    0.0221417418
 H    0.5105476414    1.8908719225    0.7387061678
 H    0.5193064604    1.8243515757   -1.0196879639
 H   -1.0367162022    1.8352073051   -0.1548126843
 H   -1.4754161366   -2.3872466578    1.1265216293
 H   -1.9846906488   -2.4297586379   -0.5429655223
 H    0.8643086269   -2.8638534236    0.4935921662
 H   -0.2568600522   -4.0680335194   -0.1315984339
 H    0.2502165142   -3.5445195871   -2.3862025765
 H    1.7018668233   -1.8226273176   -3.1071039523
 H    3.0099848362   -0.9489376931   -0.9485198170
 H    1.9744545576    0.1951745694   -1.7965227702