19

 C   -0.1947366406    1.4837232084   -0.2020455444
 C   -0.0565824384   -0.0281791779   -0.0652900390
 C    1.1667090698   -0.6110454372   -0.8933650454
 O    1.6963887523    0.0722311880   -1.9859550683
 C    1.9193079642   -0.5640841647    0.4290104574
 O    3.0540872532   -0.2442352108    0.6859075482
 C    0.6352474092   -0.5454858569    1.2534130450
 C    0.7149181860    0.2711402152    2.5436890266
 O    1.6959088466   -0.2697808214    3.4083619995
 H    0.7442427889    2.0045961857    0.0141702354
 H   -0.4778565563    1.7413304846   -1.2261116920
 H   -0.9582430188    1.8761115713    0.4759249672
 H   -1.0028294535   -0.5234801589   -0.2898529482
 H    0.9400753771   -1.6449694766   -1.1824869089
 H    2.4711737397    0.5575555418   -1.6767382670
 H    0.3098299811   -1.5648813524    1.4848641762
 H    0.9234463205    1.3252640070    2.3106505479
 H   -0.2367464513    0.2376618687    3.0837708690
 H    2.5368284504   -0.2128141237    2.9364526909