21

 C   -0.1214613902    1.5598180197   -0.0478498886
 C    0.0358327330    0.0455978860   -0.0021488227
 O   -1.2320612142   -0.5890568773   -0.1240471120
 C    1.0898004254   -0.6097792540   -0.9266406557
 C    2.4968098574   -0.2439460686   -0.5372884782
 C    1.7627553095   -1.2756602270    0.2739311742
 C    0.7748677690   -0.5944262404    1.1992490122
 C    1.0182218575   -0.0150876663    2.5648022830
 C    0.0928332311   -1.1978303598    2.3833470479
 H    0.8363470784    2.0723478296    0.0718076215
 H   -0.5486170712    1.8732965997   -1.0089734443
 H   -0.7958424660    1.8971072042    0.7460090236
 H   -1.6492611142   -0.2509396119   -0.9243932764
 H    0.8492261421   -1.0415352625   -1.8914103008
 H    3.2668199102   -0.6276029705   -1.2000811652
 H    2.7289373993    0.7273441054   -0.1076940359
 H    2.1128833554   -2.2961247186    0.3750483713
 H    1.9875890884   -0.1828804481    3.0236253810
 H    0.5726111818    0.9459417918    2.8023427460
 H   -0.9754830966   -1.0390204780    2.4763219566
 H    0.4330061338   -2.1712250933    2.7226394826