19

 O    0.0503843462   -0.0681851774    0.0597398033
 C   -0.0400732586    1.1375521494    0.0053812843
 C   -1.3818851344    1.8578475849   -0.0487264790
 C   -1.4284432295    3.0346844425   -1.0555441658
 C   -0.0921662170    3.7053839131   -1.3417555482
 C    0.9474301852    4.1994342394   -0.3613663221
 C    1.0608546947    3.3378222145    0.8963629221
 C    1.1656603705    2.0517367270    0.0007631463
 C    1.2141482235    2.9772423147   -1.2465185279
 H   -2.1581556372    1.1204697439   -0.2638057133
 H   -1.5745977244    2.2294646831    0.9657338760
 H   -1.7984746443    2.6471018796   -2.0127561972
 H   -2.1650764427    3.7769602608   -0.7261106543
 H   -0.1378163419    4.3600528396   -2.2100314096
 H    1.3531838366    5.1998743407   -0.4584449814
 H    2.0082030465    3.5064351858    1.4131849842
 H    0.2542748765    3.3912171946    1.6334572094
 H    2.0679733080    1.4647652400    0.1675800938
 H    1.8969329623    2.8483930336   -2.0769416804