25

 C    0.0927928936    1.5931488457   -0.1676090564
 C    0.1387170781    0.0834236094   -0.0646296991
 C    1.4536956992   -0.6570759137   -0.0058778300
 C    0.5382695025   -0.6522051080    1.1974856003
 C    0.9192318646    0.0583044715    2.4839029508
 C    1.7818085556   -0.7686166135    3.4324590863
 C    1.1535842067   -2.0528697346    3.9421968579
 C    3.2777048371   -0.7569554220    3.2243729993
 C    2.6705726340   -0.0095310326    4.3897409485
 H    0.9190811644    2.0677267790    0.3693347231
 H    0.1619939039    1.9107374133   -1.2141007319
 H   -0.8417914315    1.9960921788    0.2393625941
 H   -0.6425907650   -0.4087101352   -0.6393355944
 H    1.5750906937   -1.5720734600   -0.5757038010
 H    2.3552326010   -0.0545457965    0.0549556468
 H   -0.0093759585   -1.5770604655    1.3598444873
 H    1.4521897399    0.9864259536    2.2498970908
 H    0.0035815725    0.3588922747    3.0143746373
 H    0.9639170789   -2.7630850649    3.1300706197
 H    1.8085326522   -2.5499755516    4.6647291597
 H    0.1975647424   -1.8546312710    4.4422780662
 H    3.8329196686   -1.6657105048    3.4329461397
 H    3.6794255433   -0.1760823844    2.4011249662
 H    2.6615475357    1.0751696446    4.3507548873
 H    2.8131692871   -0.4136043825    5.3867797417