19

 C    0.0239842013    1.5094742926    0.0577418996
 C   -0.0272455136   -0.0038336939   -0.0223644611
 C    0.7017131758   -0.5668948078   -1.2624658352
 O    0.6813017120   -1.9937819741   -1.2293176406
 C   -0.0106403775   -2.4820991480   -0.0651849739
 C    0.7370905359   -1.9349436180    1.1621474825
 O    0.6949358290   -0.5091450568    1.1290306463
 C   -1.4133597741   -1.9288146714   -0.0370389657
 C   -1.4203333230   -0.5960531159   -0.0186154622
 H    1.0597224015    1.8590100933    0.0590947481
 H   -0.4983679128    1.9577541024   -0.7928687774
 H   -0.4537085636    1.8523273256    0.9797282713
 H    0.2259381379   -0.2168431727   -2.1882592563
 H    1.7454810024   -0.2262137550   -1.2489043705
 H    0.0385713032   -3.5705012448   -0.1148303964
 H    0.2823086349   -2.2954052467    2.0946394008
 H    1.7841114024   -2.2622927453    1.1274661815
 H   -2.2906581617   -2.5649651152   -0.0246508369
 H   -2.3051645802    0.0310945317   -0.0088965839