18

 C   -0.3256039578    1.4270163766    0.0640951740
 C    0.1086219457   -0.0188105084    0.0351688202
 C    0.0254940319   -0.7378543314   -1.0866846944
 C    0.3097855548   -2.1967832868   -1.3347894196
 O    1.2840671545   -2.8296776336   -0.5286648990
 C    1.0462769967   -2.7925890020    0.8469302576
 O    1.4610746954   -1.5983957239    1.4440875979
 C    0.5424075989   -0.5283097380    1.3951440090
 H    0.5172830614    2.0888673921    0.3004235000
 H   -0.7495293380    1.7406405129   -0.8924997947
 H   -1.0821772558    1.5977110320    0.8415048811
 H   -0.3672208119   -0.2348399605   -1.9702455211
 H   -0.6446263266   -2.7538539796   -1.2690814746
 H    0.6667518475   -2.3212525167   -2.3625523581
 H   -0.0213085492   -2.9855954936    1.0652644911
 H    1.6654753805   -3.5807963256    1.2825089759
 H    1.0258552040    0.2858170425    1.9461530371
 H   -0.3700798517   -0.7884981361    1.9654285775