21

 C    0.2834326005    1.5825013203    0.1531133316
 C    0.0381775642    0.0723570053    0.0805560619
 C    0.4734482665   -0.5125563025   -1.2515370515
 O    1.9059195407   -0.3682473397   -1.4798557689
 C    2.0892369719   -1.7920779129   -1.6201112872
 C    0.6044966877   -2.0299486509   -1.3870268664
 C   -0.0936340579   -3.1119653910   -0.6080756087
 C   -0.3322879841   -2.9448726361   -2.0932130470
 O   -1.5231820142   -2.3615709762   -2.5365701965
 H    1.3419758994    1.8033147862   -0.0101769585
 H   -0.2928398973    2.1141173244   -0.6121765351
 H   -0.0044627684    1.9844944538    1.1290338094
 H    0.5791583896   -0.4380791133    0.8864493275
 H   -1.0286138034   -0.1475628924    0.2191580361
 H   -0.0930479808   -0.0514543990   -2.0722106655
 H    2.4668288444   -2.0648946044   -2.6149718453
 H    2.7670239824   -2.1973812898   -0.8568175854
 H    0.4870518823   -3.9645164895   -0.2682724630
 H   -0.8954589044   -2.8089361884    0.0581358293
 H    0.0948366268   -3.6936174494   -2.7624304754
 H   -2.2301932057   -3.0068739046   -2.4323900314