13

 O    0.1909319249    1.4011625663    0.1598205616
 C    0.0644023759    0.0212673040    0.0264977562
 C   -1.4485493186   -0.4304652758   -0.0036261084
 N   -1.1576794255   -1.0390422745   -1.3228430739
 C    0.1145356565   -0.5806307625   -1.3913473700
 N    0.7061223155   -0.7523614431   -2.5191444631
 O   -0.3264121533   -1.4103544525   -3.2842474175
 C   -1.5122294960   -1.5441074335   -2.5650038760
 O   -2.5261133159   -2.0098169089   -2.9908403236
 H    1.1234012774    1.6382467966    0.1098344622
 H    0.6699746980   -0.5391805921    0.7483050803
 H   -1.7632825462   -1.1467501348    0.7554975857
 H   -2.1309055628    0.4190705709   -0.0572069136