19

 C    0.0865893381    1.5184532434    0.2054315534
 C    0.1123894840    0.0173476538    0.0609020356
 C   -0.9413983270   -0.8458019862    0.7141029874
 C    0.4886283781   -0.9162503529    1.1925830531
 C    1.3380740406   -2.0316111882    0.5895762469
 N    0.9813074195   -1.9831812867   -0.8329265738
 C    0.7430435094   -0.5768740986   -1.1921741971
 C    2.7748341035   -1.7790464000    0.8462055325
 N    3.9056544436   -1.5931617879    1.0020897965
 H    1.0907906128    1.9449798509    0.1032554173
 H   -0.5519534358    1.9800027853   -0.5566828467
 H   -0.3046399819    1.8126552656    1.1840321557
 H   -1.6432987326   -0.3462771826    1.3735534872
 H   -1.3478825554   -1.6886428741    0.1661292598
 H    0.7534899668   -0.5501352258    2.1766052499
 H    1.0978485480   -3.0210368092    0.9978216841
 H    1.6645433359   -2.4390150063   -1.4246535999
 H    0.0903457770   -0.5303250609   -2.0718084175
 H    1.6656357455   -0.0191930097   -1.4241108746