21

 C   -0.4376727471    1.1203323685    0.4892502224
 O   -0.2754668543   -0.2555604228    0.2361257336
 C    0.4433563108   -0.5154606797   -0.9494288740
 C    0.6483099970   -2.0360693982   -1.0439158899
 C    1.1975543512   -2.3958341929   -2.3484629547
 C    1.7054334229   -2.6755541557   -3.4029322059
 C    1.5783301871   -2.5411465626    0.0979481699
 C    1.5847759432   -4.0640634433    0.2173817605
 O    2.8889228715   -2.0168462246   -0.0535422240
 H    0.5312502059    1.6311824133    0.5994575458
 H   -0.9998308095    1.6192350741   -0.3158169084
 H   -0.9975786571    1.2167386561    1.4225586747
 H   -0.1099972583   -0.1507529348   -1.8287796280
 H    1.4257271105   -0.0205108858   -0.9323449710
 H   -0.3355446650   -2.5065938986   -0.9198021928
 H    2.1213272410   -2.9296966296   -4.3467037671
 H    1.1992042524   -2.0987863589    1.0232443113
 H    1.9184351227   -4.5284616212   -0.7172719948
 H    2.2649194188   -4.3695297557    1.0166864496
 H    0.5845896089   -4.4465276225    0.4471185199
 H    3.2227139976   -2.3294534951   -0.9042719871