16

 C    0.1620118537    1.2930994231    0.6965565948
 C    0.0110844259    0.0829305667   -0.1901885834
 O    0.8136213725   -0.2307213122   -1.0305586963
 C   -1.2935693804   -0.7640733628   -0.0313744526
 C   -1.1110571081   -2.1973342883   -0.5655945851
 C   -2.4175410196   -2.8538737768   -0.9592716804
 O   -2.6971951584   -4.0007196581   -0.7402226160
 C   -1.8177282885   -0.7384652613    1.3332422956
 N   -2.2164897228   -0.7179608480    2.4179193794
 H    1.0256567428    1.8751737476    0.3754208040
 H   -0.7432758613    1.9091522297    0.6726168808
 H    0.2927557161    0.9754597288    1.7365980459
 H   -2.0283846381   -0.2419771534   -0.6663055286
 H   -0.4867059471   -2.1133988249   -1.4648118883
 H   -0.5854841981   -2.8327112073    0.1501939700
 H   -3.1187383886   -2.1832171230   -1.5124085998