23

 C    0.6733070639    1.3125104052   -0.2450249567
 C    0.1459514790   -0.0825212483    0.0423219210
 O    0.9064139088   -0.6400831387    1.1050334665
 C    0.5122709563   -1.9372708658    1.4728664201
 O    0.7439792469   -2.8773405035    0.4466798764
 C    2.0535949413   -3.4503692613    0.5983566790
 C    2.6359675521   -2.8812151694    1.9025335927
 C    1.3795149500   -2.3978744289    2.6513890036
 C    1.6192223293   -1.3593837458    3.7427942573
 H    1.7251185430    1.2720136569   -0.5427628307
 H    0.1019712572    1.7752967119   -1.0554381912
 H    0.5937165739    1.9470530631    0.6424843838
 H   -0.9181024040   -0.0441718355    0.3297861447
 H    0.2208280591   -0.7226338597   -0.8462329500
 H   -0.5697432669   -1.9541679755    1.6716030656
 H    1.9383238429   -4.5404201305    0.6399860242
 H    2.6645020642   -3.2085471723   -0.2785034719
 H    3.2084553587   -3.6238304525    2.4633579984
 H    3.2913198204   -2.0294778739    1.6975015013
 H    0.8720317327   -3.2707349858    3.0813240784
 H    2.0951380404   -0.4668387483    3.3306644959
 H    0.6777757803   -1.0519063591    4.2101642040
 H    2.2629942008   -1.7660467223    4.5294351677