17

 O   -0.1472578574    1.4676244147    0.0559474367
 C   -0.0193669741    0.0639202731    0.2099440715
 C   -1.3425821670   -0.5577216928   -0.2281582812
 C   -1.3776280274   -2.0719834785   -0.0729555213
 C   -1.7398609545   -2.6739506629    1.2797936468
 C   -2.7159979111   -2.7629396007    0.1464574737
 C   -0.4053119643   -2.7930528558   -0.8586556643
 N    0.3811620067   -3.3582049231   -1.4923537881
 H    0.7044274612    1.8709781975    0.2464672275
 H    0.7999892939   -0.3379861100   -0.4047146099
 H    0.1907114936   -0.2095255999    1.2567137468
 H   -2.1500542849   -0.1240927711    0.3715451057
 H   -1.5350000128   -0.2819564065   -1.2706030043
 H   -1.2245916382   -3.5760575357    1.5863976834
 H   -1.9359841638   -1.9681301725    2.0793036456
 H   -3.5887303352   -2.1198583953    0.1591284783
 H   -2.8670625647   -3.7259945005   -0.3258491870