19

 O   -0.1000121875    1.4453979424   -0.0173311648
 C    0.0110147165    0.0240659726   -0.0296069243
 C   -1.4009628679   -0.5482420837    0.0798362815
 C   -1.4048920703   -2.0549435217   -0.2057915137
 O   -2.6814834725   -2.6282464665   -0.0180847890
 C   -0.9033116718   -2.3410365023   -1.6346881903
 O   -1.9699900913   -2.1193184315   -2.5775193552
 C    0.3089951755   -1.5251137441   -1.9888231620
 C    0.7020376253   -0.4652823760   -1.2812080711
 H    0.7861158725    1.8176951463    0.0377235583
 H    0.5981978125   -0.3095555209    0.8445576468
 H   -1.8195108257   -0.3545393901    1.0702863505
 H   -2.0386032617   -0.0281193175   -0.6463143663
 H   -0.7265397616   -2.5529246215    0.5001269800
 H   -3.1301593210   -2.5280992727   -0.8698183497
 H   -0.6895150623   -3.4117324408   -1.7239433229
 H   -1.9816050525   -1.1773022218   -2.7816573851
 H    0.8481586259   -1.8200884196   -2.8855338463
 H    1.5797668780    0.0994325895   -1.5930284963