17

 N   -0.2796254777    1.3789548277   -0.0511476942
 C    0.1280746223    0.0570730593    0.0710838640
 O    1.2686088440   -0.2754284032    0.2636413317
 N   -0.9707045856   -0.8249467673    0.0123710879
 C   -0.9237730572   -2.2202758046   -0.0567012611
 O    0.0869913710   -2.8543720393   -0.2271864320
 C   -2.2997935885   -2.8591828278    0.0898109481
 C   -2.2464561216   -4.3729495101   -0.0587586613
 O   -3.5767445543   -4.8477249713    0.0882863844
 H    0.4979090058    2.0156219023   -0.1440691999
 H   -1.0589758515    1.5862930059   -0.6576208649
 H   -1.8840527449   -0.4144727153    0.1339809237
 H   -2.7202290362   -2.6007830884    1.0700497917
 H   -2.9865916788   -2.4420465527   -0.6577539088
 H   -1.8252058327   -4.6319421494   -1.0400142219
 H   -1.5740125277   -4.7924780458    0.7015222935
 H   -3.5596859465   -5.8061755602    0.0147233890