19

 C    0.1744819521    1.5580296293    0.0915599414
 C    0.0385301026    0.0665072999    0.0212801761
 C   -0.1228485978   -0.7246982815   -1.1078257482
 N   -0.1982949744   -2.0062487566   -0.6536711760
 N   -0.0982392425   -2.1128941437    0.6879447225
 C    0.0443988707   -0.8556846486    1.0927167087
 C   -0.2051897234   -0.3466578291   -2.5293830744
 C    0.3869281679   -1.2145643680   -3.6243221743
 C   -1.1050950838   -1.0844090241   -3.5033365413
 H    1.0404370107    1.9237719760   -0.4726836725
 H   -0.7092426203    2.0754976809   -0.3002135461
 H    0.3046357978    1.8807485523    1.1283335842
 H   -0.3153985865   -2.8457386560   -1.1946754244
 H    0.1490839459   -0.6408557822    2.1473154283
 H   -0.1243535104    0.7237208571   -2.6824214042
 H    0.8853599133   -0.7188247747   -4.4497196431
 H    0.8512956169   -2.1488177902   -3.3260445723
 H   -1.6695223281   -1.9289221233   -3.1216842989
 H   -1.6362933309   -0.4988521778   -4.2452437552