21

 C   -0.2727049778    1.6190031968   -0.1341173815
 C    0.0026306618    0.1290973594   -0.0073997460
 C    1.1734655859   -0.5953330726   -0.7113055966
 C    2.4460218593    0.1324946367   -0.2393795598
 C    2.1052520926    0.1373632907    1.2863336776
 O    2.0023870820    1.4086703977    1.9060489134
 C    0.7180987132   -0.5492611750    1.2011815980
 C    0.0380048740   -0.9363371699    2.4820810206
 O    1.0599348686   -1.6538639763    0.2954593554
 H    0.5983957087    2.2289440778    0.1043933436
 H   -0.6051020015    1.8573031832   -1.1510701719
 H   -1.0756116967    1.9170137980    0.5488073018
 H   -0.9054218338   -0.4504396571   -0.1996155239
 H    1.1195141552   -0.9515632307   -1.7405606134
 H    3.3448366684   -0.4418400631   -0.4746191456
 H    2.5531294852    1.1442987984   -0.6404275725
 H    2.7882026746   -0.5106075862    1.8505415240
 H    2.8893877960    1.7626830886    2.0182805608
 H   -0.1202494395   -0.0455738737    3.0973891175
 H   -0.9270692126   -1.4133588630    2.2912433343
 H    0.6622539164   -1.6349480997    3.0497713742