17

 O   -0.0306520699   -0.0549003219    0.0849581120
 C    0.0138854105    1.1492617664    0.0776611997
 C    1.2891244379    1.9614077946    0.0189837904
 C    1.3125904995    2.9528978598   -1.1885961995
 C    1.8964657200    4.2433575464   -0.6131388556
 C    1.1915712588    4.8283394349    0.5936351757
 O    0.3200640408    3.8590669865    1.1814301323
 C    1.4403983954    2.9122444005    1.2181599303
 C    2.4319290617    4.0126935701    0.7869899812
 H   -0.9102660201    1.7659659740    0.1136082857
 H    2.1352288949    1.2678205311   -0.0133492533
 H    1.9289539025    2.5609091776   -2.0011674121
 H    0.3058285109    3.1123525620   -1.5901080392
 H    2.4138615132    4.9423639011   -1.2607807098
 H    0.9631784154    5.8764008653    0.7464077285
 H    1.5395949859    2.4462265968    2.1993809687
 H    3.4162963828    4.2336032847    1.1737617351