15

 C    0.0559870427    1.3777834894    0.0092586643
 N    1.3198720027    1.8222146251   -0.0002558864
 N    2.0599164739    0.6955491539   -0.0133156355
 C    3.4235332647    0.6711321618   -0.0262690644
 C    4.0687033172   -0.5295344888   -0.0388579628
 C    3.3219659534   -1.7398216353   -0.0384188253
 C    1.9527204077   -1.7085604896   -0.0253772485
 C    1.2804889660   -0.4646006288   -0.0122915171
 C   -0.0400219648   -0.0173308991    0.0025359972
 H   -0.7487756331    2.0989914713    0.0207532432
 H    3.9006919326    1.6414416284   -0.0254867766
 H    5.1509226725   -0.5469611310   -0.0491260870
 H    3.8462071071   -2.6885239456   -0.0485094748
 H    1.3643434138   -2.6184848433   -0.0247924552
 H   -0.9295367265   -0.6251690084    0.0075953788