17

 C   -0.4480274849    1.4276703491    0.0242867938
 C    0.0257967277   -0.0165500443   -0.0340452596
 C    1.3007369528   -0.2614929822   -0.9080996825
 C    2.0659104877   -0.5626689319    0.3590077595
 N    3.2719364497   -0.7248951846    0.7004225280
 O    4.1239205676   -0.6594690882   -0.4076887443
 C    0.8212373484   -0.5380047488    1.2391444292
 C    0.8376788402    0.2979149357    2.4284904187
 N    0.8311619952    0.9768903589    3.3640690330
 H    0.3732103740    2.1073459155    0.2741939782
 H   -0.8531854059    1.7296152551   -0.9467816090
 H   -1.2297298455    1.5618148678    0.7776517257
 H   -0.8056957179   -0.6803891563   -0.2788581143
 H    1.2351626375   -1.1105385046   -1.5952467084
 H    1.6657749434    0.6039281282   -1.4686881693
 H    4.9928515160   -0.7700057253   -0.0056703241
 H    0.5072843541   -1.5483821841    1.5231212056