18

 C   -0.0133496913    1.4458011350    0.1276881355
 C    1.3003506681    0.7650580128   -0.1257280720
 C    1.8159530816    0.1299374198    1.1715818764
 C    0.5015953846   -0.7047539754    1.2681465451
 C    0.5670956995   -2.2418186780    1.3751334750
 O   -0.3082553841   -2.2496470195    2.5193846995
 C   -0.3777049714   -0.8084349065    2.5310476970
 C    0.0104594852   -0.0521399110   -0.0237678468
 H   -0.2219599249    1.9013763837    1.0939127956
 H   -0.4315729123    1.9869245745   -0.7150467079
 H    1.8996998530    0.9835398355   -1.0006310440
 H    2.6882524207   -0.5130147512    1.0249808819
 H    2.0248478540    0.8195975055    1.9974574839
 H    0.1444537704   -2.7989550755    0.5283011684
 H    1.5588923959   -2.6518272854    1.6113839893
 H    0.0599334558   -0.3862023309    3.4458942563
 H   -1.4070123529   -0.4423131275    2.4241201305
 H   -0.5504908719   -0.5590045759   -0.8009697237