18

 C   -0.0027852996    1.6153001282    0.1682719821
 C    0.0330550167    0.0865046758    0.0731981158
 C    0.7089237091   -0.4555474220   -1.2080419903
 C    1.4012164932   -1.7542155971   -0.7624077320
 C    1.6134047472   -1.5871845591    0.7443654821
 O    2.3050452288   -2.2535166870    1.4783035675
 N    0.8438708962   -0.5115492502    1.1288423874
 C   -1.4032415180   -0.4423475899    0.2217860033
 O   -2.0603994040   -0.9331879026   -0.6567006436
 H    1.0170241406    2.0099382841    0.1845899971
 H   -0.5329606379    2.0385857217   -0.6902478428
 H   -0.5143611139    1.9500570034    1.0781307217
 H   -0.0327094543   -0.6044323169   -1.9934182907
 H    1.4461149558    0.2723904279   -1.5580950213
 H    0.7649595719   -2.6323660304   -0.9179549113
 H    2.3524772002   -1.9489785084   -1.2599383805
 H    0.7672018233   -0.2604509550    2.1027041107
 H   -1.8026905553   -0.3425468126    1.2588360149