16

 O    0.1035363402    0.2069061605    0.9718341185
 C   -0.0467764215    1.2176080938    0.3197609466
 C    1.0975562230    1.7734168076   -0.4429236956
 N    1.9905676048    2.2082113539   -1.0352466775
 C   -1.3013679411    1.9593545038    0.1786749862
 C   -2.4410089984    1.7048491424    1.1442131325
 C   -2.6606132835    1.3079220544   -0.2663461851
 C   -2.9435130534    2.5206201249   -1.1583544737
 C   -1.5954031458    3.1747005865   -0.7103613939
 H   -2.2526760421    0.8955530210    1.8404164948
 H   -2.9530041307    2.5706190737    1.5576319428
 H   -2.7824342996    0.2690431733   -0.5472383643
 H   -2.9523956077    2.2771291345   -2.2216434239
 H   -3.8581051936    3.0694561608   -0.9152457989
 H   -1.6628031143    4.1307360060   -0.1834122931
 H   -0.8887330562    3.2797869129   -1.5353100956