16

 N    0.0467877447    1.3830709488   -0.1620323274
 C   -0.0481925826    0.0303699866    0.0282604510
 C   -1.1872403845   -0.6747849774   -0.1486652476
 C   -1.2711499869   -2.0968513148    0.1343863654
 O   -2.2777169355   -2.7719305901    0.0222202941
 N   -0.0757912938   -2.7120229707    0.5491010068
 C    1.1773038409   -2.1342734600    0.6335811320
 N    2.2821520054   -2.7468109657    0.8056433740
 C    1.2020665838   -0.6197327779    0.5561540055
 H    0.9593368731    1.7794904096   -0.3179675216
 H   -0.7033474033    1.8450162904   -0.6515749840
 H   -2.1025738227   -0.2130773562   -0.4989294573
 H   -0.1520168551   -3.7154267036    0.6489738033
 H    2.1445581606   -3.7572201256    0.8721224818
 H    2.0736275681   -0.3331884289   -0.0413676817
 H    1.3938080476   -0.2333068244    1.5659165258