18

 O    0.0123874462    1.1333160397   -0.6206275415
 C   -0.0240433005   -0.1418282662   -0.0331509248
 C   -1.4344210822   -0.7200875835   -0.2079185454
 O   -2.1676334230   -0.4170828612   -1.1258419093
 N   -1.7766259334   -1.6413148221    0.7417360630
 C   -3.0379776977   -2.3584153968    0.6870127208
 C   -3.0120835283   -3.5346777929   -0.3166933732
 C   -4.2669704991   -4.2731678429   -0.3240722093
 C   -5.3153759200   -4.8604245941   -0.2967117850
 H    0.9324453613    1.4003676944   -0.6990279823
 H    0.6730526891   -0.8450674690   -0.5187603801
 H    0.2377118186   -0.1144356003    1.0383343866
 H   -1.1306405323   -1.8501238565    1.4846580622
 H   -3.2724241871   -2.7266228034    1.6888732578
 H   -3.8202668677   -1.6565589943    0.3889881849
 H   -2.8056940922   -3.1264571396   -1.3121364291
 H   -2.1820009613   -4.2074130495   -0.0669296122
 H   -6.2380208006   -5.3856942918   -0.2909729832