19

 C   -0.0675448361    1.5280783166   -0.0836651382
 C   -0.0744546737    0.0264704505   -0.0815300218
 C    0.8254305425   -0.9606796710   -0.8947519040
 C    1.9574380711   -0.9257091651    0.1844566201
 C    0.6369187315   -0.9060403423    0.9812941621
 C   -0.2024140538   -0.8600152057    2.2369812167
 O   -1.5125266706   -0.8785749965    1.6079203741
 C   -1.2443037037   -0.9333898057    0.1810267493
 C   -0.0674692091   -1.8882203492   -0.0194525752
 H    0.9515075824    1.9260699607   -0.0170786011
 H   -0.5196883677    1.9263388277   -0.9987567380
 H   -0.6403635590    1.9155273495    0.7659907474
 H    0.9445112906   -1.0002087795   -1.9779295004
 H    2.5760319017   -1.8232202277    0.2788851989
 H    2.5786380070   -0.0258834268    0.2266703144
 H   -0.0943698173   -1.7302219182    2.8941419723
 H   -0.0876220176    0.0564225677    2.8278472046
 H   -2.2001033925   -0.9550491591   -0.3428595012
 H   -0.0265182059   -2.9751022258    0.0536604401