15

 C   -0.0566138510   -1.0838043202   -0.1384537517
 C   -0.0279197762    0.1142810152   -0.0465741002
 C    0.0235879414    1.5359218157    0.0907266727
 C   -0.6492472229    2.4460540718    1.1564921227
 C   -0.0325914363    3.3454294661    0.0484482939
 C    1.2585207487    2.4802892005    0.0867710371
 O   -0.5846542504    2.3984496704   -0.9664527095
 C   -0.1719586755    4.7531642117   -0.1550904522
 C   -0.2759292877    5.9414817735   -0.3026197288
 H   -0.0861276190   -2.1420638041   -0.2254507082
 H   -1.7381647981    2.4124178015    1.1641961073
 H   -0.2031549488    2.4831683819    2.1525282738
 H    1.8745903603    2.5204605427    0.9874976958
 H    1.8335850244    2.4765335271   -0.8385514304
 H   -0.3711231889    6.9905775662   -0.4393245623