14

 O   -0.0536323294   -0.0338011030   -0.1465380069
 C    0.0194187333    1.1361736322    0.1241817124
 C    1.3090887300    1.9506460565    0.0561714708
 C    1.3046055848    2.8831156073   -1.1489910683
 C    1.4390723640    4.1656966126   -0.8007914506
 C    1.5164708988    4.2951694318    0.6829373323
 O    0.3271196731    3.8208352145    1.3607289638
 C    1.4349397454    2.9281056182    1.2296527031
 H   -0.8656167381    1.7283883418    0.4347725602
 H    2.1433950215    1.2421111231    0.0168202594
 H    1.1653397593    2.5064206479   -2.1555499253
 H    1.4738899763    5.0085315164   -1.4793484079
 H    2.0252623664    5.1165887663    1.1765096836
 H    1.9013255446    2.6167462245    2.1598363434