14

 N   -0.0216331038    1.2076193819   -0.5582417367
 C   -0.0199585996    0.0124789802   -0.1105197218
 C    1.2192680723   -0.6775935939    0.3276011459
 N    1.5793058778   -1.9009145508    0.2127182624
 C    0.7896469452   -2.9225049829   -0.2607758092
 C   -0.5581642550   -2.9908188380   -0.3147732080
 N   -1.4751766891   -2.0136456384    0.0073742396
 C   -1.3849849666   -0.6252875915    0.0711663990
 O   -2.3776874068    0.0283282085    0.2856704655
 H    0.9352271518    1.5748095300   -0.5891299382
 H    1.9588064341    0.0064766636    0.7542991800
 H    1.3356372454   -3.8175491719   -0.5383966284
 H   -1.0172019694   -3.9301852056   -0.6028335992
 H   -2.4411628064   -2.3060460313    0.0788127690