20

 C   -0.0918747129    1.5189972486   -0.0195962012
 C    0.0610364296    0.0131108984    0.0003315581
 C    1.1332555675   -0.6909944025   -0.8862550886
 C    1.1292008821   -1.8090639331    0.1966419849
 C    0.7233436463   -0.7048227413    1.2158138386
 C   -0.0584369506   -2.7505603356   -0.0411579679
 C   -1.3721199325   -1.9944414818   -0.2921369562
 O   -2.4321708618   -2.5509375943   -0.5024176111
 N   -1.2290705130   -0.6350628381   -0.2555448220
 H    0.8695476607    2.0026771278    0.1710756977
 H   -0.4581262324    1.8640787838   -0.9932700514
 H   -0.7979719437    1.8526374537    0.7494139574
 H    0.8442067966   -0.9502956902   -1.9082736844
 H    2.0751054425   -0.1359741656   -0.8930162973
 H    2.0554841256   -2.3595145575    0.3736461433
 H    1.5922790354   -0.1522655772    1.5829739296
 H    0.0721382728   -0.9763450867    2.0509887236
 H    0.1128051780   -3.4004546896   -0.9064404904
 H   -0.2230844536   -3.4119805538    0.8166344353
 H   -2.0577805168   -0.0815772951   -0.4131684080