21

 C    0.0738765541    1.5806767993    0.0242558558
 C    0.1318550985    0.0672999952    0.0867800228
 C    1.3577764262   -0.7660156019   -0.2212363021
 C    2.5927340426   -0.1259771023    0.3571790569
 C    3.9909602178   -0.3242513719   -0.0174126134
 O    3.3300412230    0.9268791991   -0.2555336633
 C    1.9828638231   -0.0752580590    1.7690171657
 C    0.7258674773   -0.7600865710    1.1945831920
 C   -0.0192415283   -1.8534143292    1.9050777065
 H    1.0036042562    2.0481309578    0.3546042029
 H   -0.1055799820    1.9118360615   -1.0041173180
 H   -0.7425156452    1.9664097780    0.6454422694
 H   -0.7643569241   -0.4068360176   -0.3128811695
 H    1.3502595755   -1.5445317061   -0.9762302673
 H    4.7652960756   -0.3072543079    0.7495833655
 H    4.2393794115   -0.8965750638   -0.9112654670
 H    2.5221104875   -0.7093792280    2.4788532927
 H    1.8511295075    0.9167277508    2.2110378639
 H   -0.5846821715   -1.4589677062    2.7584313625
 H   -0.7336791729   -2.3452912224    1.2368486604
 H    0.6639579278   -2.6197324344    2.2897293537