21

 C   -0.4623607748    1.4788238242    0.1157736145
 C    0.0029474722    0.0106324882    0.0082018721
 C    0.6847308470   -0.2904989789   -1.3485747200
 C    2.1656159878    0.0454142019   -1.4163705677
 C    2.8483979024   -0.2306687982   -2.7361929047
 O    2.5726051836    1.2549253856   -0.7675871544
 C    2.9238014659   -0.0132526553   -0.1503014180
 C    2.2187111962   -0.3717307664    1.1024317265
 C    0.8864506603   -0.3640999920    1.1722699950
 H    0.3909734774    2.1523479867    0.0195735513
 H   -1.1850547684    1.7077146613   -0.6756491753
 H   -0.9482545142    1.6665991093    1.0788904863
 H   -0.8983357896   -0.6145159688    0.0607530498
 H    0.5912084642   -1.3614398608   -1.5710694742
 H    0.1528607353    0.2385363753   -2.1494350917
 H    2.3952050768    0.3666346270   -3.5354247824
 H    3.9094312841    0.0251802901   -2.6809938479
 H    2.7553688958   -1.2861628385   -3.0131715374
 H    3.9909417536   -0.2250394657   -0.1930287237
 H    2.8246117285   -0.6378234966    1.9633415377
 H    0.3917709161   -0.6057749483    2.1099350141