21

 C    0.0190005821    1.5343036263    0.0584999009
 C    0.0477510333    0.0278073545    0.0196104150
 C    0.3485634317   -0.6912485263   -1.2907395112
 C    0.5208178206   -2.1564832459   -0.8377763955
 C    1.3396104064   -2.0281368527    0.4662775875
 C    0.6743105564   -0.8322506077    1.1302417066
 C   -0.8199264455   -0.7975812911    0.9347095071
 O   -1.5305655434   -1.9216621902    0.4829020697
 C   -0.8593499982   -2.7214515479   -0.4916780372
 H    0.9798652175    1.9595470317   -0.2573401296
 H   -0.7556255454    1.9363474576   -0.6054683025
 H   -0.1891380191    1.9032004353    1.0683150292
 H   -0.4499721085   -0.5777097128   -2.0337120882
 H    1.2729287622   -0.2995469093   -1.7336642581
 H    0.9965626104   -2.7915623415   -1.5894741074
 H    1.2961051409   -2.9407522255    1.0716055979
 H    2.3943532051   -1.8177013282    0.2544150079
 H    1.1141601184   -0.3836406074    2.0151466570
 H   -1.4206541602   -0.2725715680    1.6700593934
 H   -1.4905276815   -2.7689185445   -1.3906937597
 H   -0.7667511235   -3.7423066065   -0.0944336130