20

 C    0.0132570326    1.5407935869    0.0508727780
 C    0.0090152036    0.0245233790   -0.0070956511
 C    0.3240373099   -0.6560729654   -1.3802494622
 C   -0.7951699394   -1.6710827782   -1.0794154032
 C   -0.5204534136   -2.6508221483    0.0767318251
 C    0.1052855525   -2.0004569932    1.2579842589
 C    0.8123606158   -0.6734189911    1.1030205717
 N   -1.3568120264   -1.8554408935    1.0696617344
 C   -1.3719764464   -0.7543178582    0.0210473222
 H    1.0262505730    1.9391272766   -0.0812991984
 H   -0.6145828957    1.9706752924   -0.7370407467
 H   -0.3633642473    1.9012513992    1.0149695999
 H    0.0539520158   -0.0094964870   -2.2214236375
 H    1.3417092357   -1.0303980884   -1.5313241665
 H   -1.4031032300   -2.0829307228   -1.8844315895
 H   -0.6131621741   -3.7306412493    0.0076700119
 H    0.3781469658   -2.6497767763    2.0854034705
 H    1.8724165071   -0.7739045129    0.8465600648
 H    0.7473163142   -0.1178087757    2.0469652087
 H   -2.3059192431   -0.1994261138   -0.0486889409