17

 C   -0.0432958663    1.4966469042    0.1275418890
 C   -0.0096866134    0.0134123229   -0.0161903871
 C   -0.0368587721   -0.7693890625   -1.1622054111
 N   -0.1471693353   -0.2652356381   -2.4799302659
 C   -0.0044098652   -2.1267211467   -0.7597300339
 C    0.0465551409   -2.1550899887    0.6280603162
 N    0.0558156302   -0.8436138674    1.0541021319
 C    0.0881204366   -3.2319623451    1.5311506526
 C    0.1265757867   -4.1445294734    2.3195409833
 H    0.9502044916    1.9377923793    0.2872041637
 H   -0.4591443485    1.9388928528   -0.7823275057
 H   -0.6756991035    1.8085551870    0.9668901593
 H    0.6159442418    0.3568231487   -2.7208885278
 H   -0.1603043817   -1.0156045108   -3.1591356902
 H   -0.0176871673   -2.9956705952   -1.3998474422
 H    0.0870606345   -0.5675429740    2.0202377380
 H    0.1584439010   -4.9549475429    3.0040728799