20

 C   -0.3537832761    1.4370070422    0.5826466383
 C   -0.0723229946   -0.0341587785    0.2702254318
 C    0.6576788298   -0.2534652045   -1.0512211347
 C    0.9335718500   -1.7257118576   -1.3604027534
 O   -0.2533583869   -2.4964220728   -1.4263132716
 O   -0.1986409854    0.2649676820   -2.1061105997
 C    0.4267215922    0.8117982064   -3.1829362113
 N   -0.5053321798    1.2169250624   -4.0975359410
 O    1.6236259806    0.8978285405   -3.3251736982
 H    0.5736941954    2.0180867280    0.6347495312
 H   -0.9871038614    1.8872766971   -0.1867195838
 H   -0.8664572817    1.5404141959    1.5435352988
 H    0.5506965802   -0.4714342695    1.0599853089
 H   -1.0015019219   -0.6128652797    0.2558489698
 H    1.5993654606    0.3024367898   -1.0814650596
 H    1.5099173722   -1.7882030560   -2.2946158396
 H    1.5444195612   -2.1570058177   -0.5603301782
 H   -0.8130981325   -2.0786649058   -2.0904359374
 H   -1.4587799457    1.3314361906   -3.7977657021
 H   -0.1689595659    1.8144442071   -4.8332118281