17

 O    0.1280535901    1.0601677422   -0.6164355669
 C    0.0568264770   -0.2308705999   -0.0396478875
 C   -1.4011959977   -0.6293477870    0.1588896518
 N   -2.1958034370   -0.5248123102   -1.1109779829
 C   -2.7252131711   -1.9090768752   -0.9291778300
 C   -1.7844455613   -2.1226184826    0.2785807284
 O   -0.9601926495   -3.0206918951   -0.5259540395
 C   -1.8307247102   -2.9295688596   -1.6099748163
 N   -1.8227854988   -3.5171258948   -2.7132295079
 H   -0.3488562948    0.9923796960   -1.4536896637
 H    0.5599097812   -0.9823962366   -0.6622983129
 H    0.5774185215   -0.1827459488    0.9225188721
 H   -1.8464107382   -0.0494525371    0.9764926196
 H   -2.9281563873    0.1730465874   -1.0624745370
 H   -3.8043823004   -2.0484511438   -0.9551275070
 H   -2.0285718387   -2.5614197170    1.2439971092
 H   -1.0189179048   -4.1411016379   -2.8042607495