20

 C    0.0509718710    1.4535061845   -0.1005397533
 C    0.0298099263   -0.0428041822   -0.0683964291
 N    0.6646183771   -0.9288893552   -1.1045443045
 C    0.0769645571   -1.9194773510   -0.1375222072
 C    0.1730826162   -3.4064252569   -0.2795522978
 C    0.4379498087   -1.0149177347    1.0763627220
 O   -0.8872981217   -1.0703198334    1.6764354773
 C   -1.1654696955   -1.0243838792    0.2395692248
 C   -2.5815722822   -1.0424215678   -0.2368061271
 H    1.0779145881    1.8259018951   -0.1672359185
 H   -0.5073299949    1.8421188073   -0.9595988828
 H   -0.4067347953    1.8493971007    0.8116834584
 H    0.1150106691   -0.9108505582   -1.9691787053
 H    1.2172827042   -3.7209342654   -0.3715767943
 H   -0.2624837282   -3.8907683402    0.6002601614
 H   -0.3666355200   -3.7583382062   -1.1658733570
 H    1.3138768767   -1.0167708456    1.7242053642
 H   -3.1340784326   -0.1824244354    0.1546226815
 H   -2.6131438608   -1.0028339664   -1.3311367932
 H   -3.0894904532   -1.9555581496    0.0891931604