21

 C   -0.0229409000    1.3627864771    0.7927036019
 C    0.0515761814    0.1251391508   -0.0787245202
 O    1.0539593553   -0.1724188979   -0.6897186544
 C   -1.1914658696   -0.7831405646   -0.1333394047
 O   -2.3394806367   -0.1376399128    0.4218495860
 C   -1.4669515733   -1.3437955315   -1.5521676579
 C   -1.9304239225   -2.8164731012   -1.3641067984
 C   -2.0064862000   -3.0338366705    0.1616739129
 C   -0.9658649835   -2.0523213421    0.7179452864
 H    0.9645601476    1.8216494792    0.8523397694
 H   -0.7347158691    2.0808356983    0.3704328071
 H   -0.3993856642    1.1152607758    1.7892542742
 H   -2.7173610247    0.4371168301   -0.2513053207
 H   -2.2208548396   -0.7298989039   -2.0577582572
 H   -0.5506567806   -1.2866761546   -2.1423934936
 H   -2.8828808826   -3.0210965619   -1.8596432656
 H   -1.1922040932   -3.4937105547   -1.8052517000
 H   -2.9960121690   -2.7574626191    0.5375818828
 H   -1.8137968573   -4.0690918702    0.4561201966
 H    0.0500553953   -2.4188086362    0.5375912460
 H   -1.0783700337   -1.8419408603    1.7847174096