18

 O   -0.1368766453    0.0057295282    0.1180473451
 C   -0.0193485316    1.1995671458    0.0174716753
 C    1.2930104278    1.9424811296   -0.0579094457
 C    1.3866431016    2.8098300698   -1.3286694197
 C    2.6115084777    3.7197649234   -1.3020271537
 C    2.7273163888    4.8355723707   -2.3865915610
 N    2.7028490541    5.8094655850   -1.2908345812
 C    2.5476188376    4.8909995708   -0.2841083801
 O    2.3898714340    4.9910894187    0.9050225951
 H   -0.9186181056    1.8595874455   -0.0313508262
 H    1.3618557401    2.6033040973    0.8169998935
 H    2.1105722401    1.2174335805   -0.0068941762
 H    1.4205076346    2.1668168042   -2.2163679576
 H    0.4812028750    3.4248723713   -1.4208723333
 H    3.5300027296    3.1352867016   -1.1949038860
 H    3.6529280315    4.8363711349   -2.9698751680
 H    1.8673435497    4.9022172406   -3.0616712956
 H    2.6823381303    6.8184874219   -1.2831794547