23

 C   -0.2111460110    1.5879101120   -0.1581427549
 C   -0.0598699905    0.0683104607    0.0232259733
 C   -1.4487092087   -0.5968866829    0.0027939038
 C    0.7482738425   -0.5183093787   -1.1522759761
 O    1.9504028939    0.1661735253   -1.4386555902
 C    3.0733619190   -0.2091213696   -0.6700499735
 C    3.0584259977    0.1871677038    0.7867331891
 C    2.0254131087    0.1854105032    1.6291583938
 C    0.6013672538   -0.2526209034    1.3845700259
 H    0.7606328487    2.0845399742   -0.1465496155
 H   -0.6937335654    1.8201281166   -1.1138929811
 H   -0.8292470932    2.0122012378    0.6407918000
 H   -1.9873720550   -0.3573119619   -0.9202119045
 H   -1.3724455037   -1.6881920359    0.0739421820
 H   -2.0596784931   -0.2515343729    0.8433921097
 H    0.9487049606   -1.5890423897   -0.9744011742
 H    0.1458661952   -0.4445712545   -2.0656349531
 H    3.2331618807   -1.3013847146   -0.7497229253
 H    3.9284062052    0.2670749659   -1.1614182594
 H    4.0316002032    0.4775618010    1.1790781420
 H    2.2307314857    0.4867581938    2.6549667125
 H   -0.0301272250    0.1751857055    2.1728754813
 H    0.5528268109   -1.3422507959    1.5418449746