19

 O   -0.2287284658    1.6049937682    0.1821713999
 C    0.1088945565    0.3042964085   -0.2527393702
 C   -1.1079727804   -0.6057114708   -0.2911454197
 O   -2.0203022148   -0.0321869529   -1.2240109860
 C   -3.3020417195   -0.6344533363   -1.2616102061
 C   -4.2023860911    0.3134506873   -2.0632105427
 O   -3.7068315546    0.5119410923   -3.3710659404
 C   -3.2507524585   -2.0014873843   -1.9464470071
 O   -4.0942789370   -2.8450105859   -1.8000720119
 H   -0.9740842911    1.8836152351   -0.3618089586
 H    0.5784644747    0.3176248522   -1.2494600773
 H    0.8407639103   -0.0951325692    0.4564959045
 H   -0.8238495052   -1.6261841706   -0.5896042722
 H   -1.5755042260   -0.6512102195    0.7034240995
 H   -3.7162863794   -0.7666932106   -0.2508044723
 H   -5.1981826932   -0.1287986284   -2.1554521473
 H   -4.2912369960    1.2599960839   -1.5085128094
 H   -2.7997974537    0.8244534491   -3.2767611759
 H   -2.3744763353   -2.1433337581   -2.6172425868