16

 O   -0.1746037626    1.4392847570    0.1167699204
 C   -0.0420492478    0.0493216501    0.0234000799
 C   -1.3695266880   -0.6894656640    0.0942758034
 C   -2.2411466390   -0.2595464769   -1.0695867859
 C   -1.1626588326   -1.2506047478   -1.3226107241
 O   -1.4633896535   -2.4731231064   -1.8730901771
 C    0.2152014458   -0.5699056396   -1.4262197263
 C    0.4676967723    0.3646836322   -2.5096740468
 N    0.6745507974    1.1434817785   -3.3394165973
 H    0.6628383901    1.8542146911   -0.1183715677
 H    0.7027345298   -0.3381803912    0.7296682131
 H   -1.7790771038   -1.1570215881    0.9799608682
 H   -3.2311727311   -0.7022401500   -1.0654683426
 H   -2.1882208608    0.7547835225   -1.4506868290
 H   -0.8388738363   -3.1294059251   -1.5428899216
 H    1.0268887402   -1.3028858223   -1.3828143566