16

 C   -0.0172070737    1.5615890845    0.0298056391
 C    0.0544303080    0.0578221814    0.0338400175
 C    0.9531794895   -0.8098814965   -0.9274435625
 C    0.5760233167   -1.8986906655    0.0979450942
 C    0.6615711871   -0.8180753998    1.1952688377
 O   -0.8663023676   -2.0278463806   -0.1006787844
 C   -1.2544167304   -0.7106154029   -0.1489401910
 O   -2.3785789986   -0.3381852705   -0.3018599755
 H    0.9726525133    2.0064956731    0.1676164149
 H   -0.4307747452    1.9254590952   -0.9158108125
 H   -0.6710016287    1.9187003334    0.8314625542
 H    0.6226797606   -0.9543458007   -1.9584668143
 H    2.0043672841   -0.5167244613   -0.8873587033
 H    1.0216858171   -2.8882274546    0.1553490581
 H    1.6843229766   -0.5257182577    1.4423513232
 H    0.0654434313   -0.9700046475    2.0978529946