15

 N    0.0949559836    1.3393527665   -0.2289650679
 C    0.0080898865   -0.0444588192   -0.0504716600
 C   -1.1787448505   -0.7099033727   -0.1889179958
 N   -1.4955624578   -1.9718099212    0.2419451359
 C   -0.6723152901   -2.9454800515    0.3554477929
 C    0.7554210134   -2.9225769920   -0.0672914284
 N    1.2018736765   -3.8564985630   -0.8090984002
 N    1.5383183870   -1.9120312753    0.4932329785
 C    1.2044637178   -0.6726042060    0.4901223004
 H    0.9617488910    1.6612678404   -0.6374043756
 H   -0.7030007175    1.7540010997   -0.6903456928
 H   -2.0375470633   -0.1448902303   -0.5497047842
 H   -1.0423968660   -3.8866346295    0.7616959391
 H    2.2001171170   -3.7098872463   -0.9852249140
 H    1.9154589524    0.0184096804    0.9514323023