15

 O    0.0927337519    1.2811121719   -0.4115828049
 C   -0.0322488285    0.0435828670    0.2851633606
 C   -1.4104436810   -0.5222178669    0.1852394608
 N   -1.7440132008   -1.7907729302    0.0324729606
 C   -3.1083792980   -1.8203305601    0.0375917466
 O   -3.8370717971   -2.9623395642   -0.1036351506
 C   -3.6206936651   -0.5589489806    0.1843623657
 O   -4.8741994486   -0.0406904428    0.2257220778
 N   -2.5247782180    0.2659522606    0.2838954187
 H   -0.0748950739    1.1037760924   -1.3437829866
 H    0.6765411215   -0.7187222083   -0.0629147234
 H    0.2276906849    0.2831009574    1.3237654412
 H   -3.2019381669   -3.6825733257   -0.1861345990
 H   -5.4924352998   -0.7688945683    0.1009334835
 H   -2.5366963404    1.2697572979    0.3594567392