20

 C    0.0096751043    1.5804198151   -0.1837432445
 C    0.0203216344    0.1278748307   -0.0883473872
 C    0.0318539314   -1.0760698231   -0.0262012941
 C    0.0478818249   -2.5225934673    0.0612275855
 C    0.3014898286   -3.2056607080    1.4586802709
 C    0.6363879252   -2.3685479195    2.6842338741
 C   -1.0978080851   -3.7975872742    1.3079084491
 C   -2.1222285284   -2.7700430971    1.0424051938
 N   -1.2953889186   -3.2279994493   -0.0889717311
 H    0.8171405971    1.9421754401   -0.8298494941
 H   -0.9359612924    1.9405688872   -0.6038337249
 H    0.1350865369    2.0480652760    0.7990938622
 H    0.7149507664   -2.9317685964   -0.7020257071
 H    1.0564598277   -3.9863864403    1.3302821406
 H   -0.0875728635   -1.5640199881    2.8369726064
 H    0.6465732243   -2.9931692188    3.5842093057
 H    1.6246171753   -1.9081619989    2.5828580720
 H   -1.3610133323   -4.8265552381    1.5334843122
 H   -3.1519524725   -3.1050813705    0.9630783359
 H   -2.0036766338   -1.7517110995    1.4021040044