15

 O   -0.0223250957    1.4405276873    0.0073015951
 C   -0.0085608562    0.0235152784    0.0021345004
 C   -1.4168791841   -0.4910241613    0.0122620475
 C   -2.4793047089    0.3327091310    0.0235540390
 O   -3.7665446955   -0.0962790409    0.0329444471
 C   -3.9912809840   -1.4269595360    0.0308759422
 C   -3.0129534395   -2.3475910805    0.0200224341
 C   -1.6064306040   -1.9486848607    0.0093576983
 O   -0.6657554880   -2.7351976938   -0.0005204503
 H    0.8878315470    1.7480981115    0.0015755084
 H    0.5049143439   -0.3821856762   -0.8832740217
 H    0.5198647548   -0.3885626382    0.8757010591
 H   -2.4139132796    1.4113387236    0.0263207824
 H   -5.0523434252   -1.6438603061    0.0390883668
 H   -3.2572882849   -3.4026018680    0.0190002418