13

 O   -0.0439765213   -0.1454055686    0.0009327269
 C   -0.0173895909    1.0627265420    0.0072357334
 C    1.1932847383    1.8482562507    0.0003011225
 C    2.1869308351    2.5316558972   -0.0051919441
 C    3.4094814282    3.3313243029   -0.0123255377
 C    3.1837415137    4.7746177651   -0.0027225132
 C    3.0250157669    5.9700861508    0.0050862381
 C    2.7965912328    7.3950655869    0.0150553869
 O    3.6754168850    8.2245117999    0.0118201609
 H   -0.9473891894    1.6656079202    0.0190806962
 H    4.0277974734    3.0555690534    0.8538811801
 H    4.0116394675    3.0647012868   -0.8926621919
 H    1.7258389906    7.6811993328    0.0262709117