19

 C    0.6951348889    1.3193149861   -0.2683712551
 C    0.0166291557   -0.0310497312   -0.0426509817
 O   -1.3818200628    0.1552719805    0.1950364658
 C    0.2913538635   -1.0289288181   -1.2085329395
 C    1.4668286536   -1.8634083320   -0.7366328293
 O    2.5590403769   -1.0850090081   -0.2267672447
 C    1.6503740199   -1.6838869556    0.7079980135
 C    0.5567405639   -0.7755701785    1.2183767951
 O    1.0041525644    0.0528758207    2.2697256388
 H    1.7665280725    1.1905977146   -0.4258389451
 H    0.2701962619    1.8034361642   -1.1571937533
 H    0.5442481741    1.9759747706    0.5912189870
 H   -1.7113039771    0.7877019376   -0.4521169542
 H   -0.5849025173   -1.6729478665   -1.3405988424
 H    0.4866717471   -0.5229849150   -2.1599097647
 H    1.7496740658   -2.7755537676   -1.2556573518
 H    2.0824412521   -2.4362262025    1.3617429168
 H   -0.2629560310   -1.4270004130    1.5636578315
 H    0.2343468180    0.5166853436    2.6158797033