15

 N   -0.0520569103    1.2657823283    0.0073087856
 C   -0.0229426798    0.0071645531   -0.0166305010
 O    1.1109885888   -0.7808787296   -0.0516237601
 C    0.6260028610   -2.1434823102   -0.0156856051
 C   -0.6256799780   -2.0709175266   -0.8928127576
 C   -1.1936930380   -0.9538516547    0.0145123308
 C   -1.0963909218   -1.6739967862    1.3821919423
 O    0.1388577183   -2.4207617853    1.2736715805
 H    0.8960198935    1.6475186482   -0.0016916629
 H    1.4475692350   -2.8133332764   -0.2560831671
 H   -0.4216468083   -1.7510591159   -1.9154318569
 H   -1.2062160121   -2.9951237033   -0.8825035558
 H   -2.1553031728   -0.5057551543   -0.2184482441
 H   -1.0336456474   -0.9845476284    2.2283828152
 H   -1.9309691380   -2.3673535087    1.5384078460