13

 O    0.1324326231    1.2505569678   -0.3085772832
 C   -0.0046443456   -0.1084457606   -0.0832868806
 C   -0.5010829476   -0.6193920713    1.2556591051
 O   -1.0576115397    0.3640267787    2.0936421722
 C   -2.1682528151    0.8927593811    1.4989593298
 N   -2.8157442330    1.8333010376    2.0159225246
 O   -2.4257950067    0.2502985898    0.3180392894
 C   -1.4041622518   -0.6796602116    0.0567516672
 H    0.5955421472    1.6442878269    0.4396220829
 H    0.7075694066   -0.7558796142   -0.5955585254
 H   -0.0630699776   -1.4502975001    1.7932148839
 H   -3.6022691800    2.0890260460    1.4247098888
 H   -1.7444876998   -1.5673031501   -0.4594587547