18

 O   -0.0096863191    1.4495217587   -0.0607923370
 C    0.0409821839    0.0515055003   -0.0036334894
 C    0.3300552474   -0.6507098503    1.3819462450
 C   -1.0417196837   -1.3148783952    1.2768975870
 N   -2.0197417524   -0.1987063384    1.1686159826
 C   -1.3117808185   -0.6808830621   -0.0459582871
 C   -2.0420657188   -1.1371747124   -1.2477668520
 C   -2.0036636434   -0.3557352619   -2.4934195154
 O   -1.2330676037   -1.5527868169   -2.3516776518
 H   -0.7229658757    1.7056817525    0.5401783960
 H    0.7190969873   -0.2874817779   -0.7883840738
 H    1.1650245602   -1.3522333368    1.3273010563
 H    0.4628382796    0.0235918640    2.2314104720
 H   -1.3549717345   -2.2833412258    1.6470545727
 H   -2.9575647133   -0.6000423067    1.1618173091
 H   -2.9105400584   -1.7730791992   -1.0604518979
 H   -2.8347745156   -0.4155286294   -3.1942628948
 H   -1.4304723013    0.5693506277   -2.5124853616