13

 C   -0.0446945361    1.5613881913   -0.1604348688
 C    0.0902222542    0.0481399034    0.0613964971
 O    0.7739112361   -0.2229711921    1.2527651634
 C   -1.2741399422   -0.6412929543    0.0911208618
 O   -1.6207248108   -1.2711374900    1.0718760124
 C   -2.1053146696   -0.5250581337   -1.0849846596
 C   -2.7781479141   -0.4271788399   -2.0782280251
 H    0.9520364009    2.0085241027   -0.1555910239
 H   -0.5256002745    1.7812295682   -1.1172256383
 H   -0.6280477649    2.0131485199    0.6471460633
 H    0.6340101325   -0.3827098445   -0.7978721842
 H    0.1796637968   -0.7859206170    1.7747000162
 H   -3.3842185983   -0.3487390442   -2.9484651443