17

 O   -0.0002293515    0.0320811961    0.0111769574
 C   -0.0157337016    1.2318488269    0.0239461808
 C   -1.2099712638    2.1859978405    0.0477728189
 C   -0.6785253946    3.2906523535    0.9821420336
 O    0.7591755347    3.1507458485    1.0294435064
 C    1.1439670036    2.2263173852    0.0080302355
 C    1.1332064867    2.8707062854   -1.3708065155
 C   -0.0271439814    3.0912553399   -1.9939311655
 C   -1.3634826271    2.6928610123   -1.4114945409
 H   -2.1242298645    1.7122068912    0.4053972087
 H   -0.9393035009    4.2949424061    0.6250896289
 H   -1.0572098974    3.1769574438    2.0030753658
 H    2.1071888613    1.7942851423    0.2774187191
 H    2.0784149830    3.1663997399   -1.8146777727
 H   -0.0418865673    3.5755403058   -2.9672126090
 H   -1.8186760352    1.9062485099   -2.0288428632
 H   -2.0593771840    3.5419677726   -1.4412017885