16

 O   -0.3298803959    0.6433458961    0.3310498479
 C    0.5736192356    1.2104926732    0.8796499059
 N    1.8640793256    1.3927697757    0.3904065365
 C    2.3957289908    0.9238486950   -0.8174879210
 O    1.7883146368    0.2632535195   -1.6186148759
 C    3.8471679748    1.3744152890   -1.0333823685
 C    4.7733678708    1.0432476016    0.1165600117
 C    5.7725261473    2.0004187726    0.6072615359
 O    4.5577765132    1.7803922948    1.3329673963
 H    0.4809774162    1.6795645743    1.8806453786
 H    2.5098590212    1.8880972749    0.9948133265
 H    4.1917716433    0.8917503468   -1.9505117595
 H    3.8484035095    2.4588207459   -1.1970398419
 H    4.9574353531   -0.0181076971    0.2817433665
 H    6.6722903200    1.6407484892    1.1019612406
 H    5.8600538576    2.9732299086    0.1264296705