19

 C    0.4441902070    1.1493011054    0.4680240420
 C    0.2679485867   -0.2780258227   -0.0623383289
 C    0.6285544102   -0.4507010307   -1.5632171081
 C   -0.3031574297    0.3291964440   -2.4955727942
 O    1.9957148251   -0.1281844425   -1.8169591574
 C    0.5478149877   -1.9456982266   -1.8903515433
 O   -0.3801722502   -2.4653711281   -2.4626792831
 C    1.6755734904   -2.8890539145   -1.4306099041
 O    2.2813069856   -2.7834269077   -0.3984264581
 H    1.4796804285    1.4934824078    0.3656496677
 H   -0.2087572361    1.8682237539   -0.0353085416
 H    0.2076312663    1.1815253308    1.5353410127
 H    0.9031617576   -0.9565768485    0.5124914817
 H   -0.7704512462   -0.6000016973    0.0791832990
 H   -0.2452836004    1.4013051742   -2.2868434379
 H   -0.0118741893    0.1668845707   -3.5359790011
 H   -1.3391194776    0.0049273348   -2.3749090141
 H    2.1346104832    0.7950177054   -1.5841153246
 H    1.7885278810   -3.7593969886   -2.1124627566