15

 C   -0.0391320385    1.5045630543    0.0497891340
 C    0.0098585642   -0.0111387962    0.0124861886
 C   -1.2416798109   -0.6666304430   -0.5398997854
 C    1.3380338706   -0.6689574802   -0.2740043043
 C    0.7512644169   -0.7222158610    1.1186257130
 H    0.8863303999    1.9249004021    0.4557935831
 H   -0.1818387829    1.9204574284   -0.9548929106
 H   -0.8683207582    1.8581571812    0.6743964837
 H   -1.4357088955   -0.3434438724   -1.5697641083
 H   -1.1532675722   -1.7575779956   -0.5443383228
 H   -2.1222141635   -0.4057081966    0.0595136103
 H    1.3439837404   -1.5823520773   -0.8600508441
 H    2.2019689746   -0.0332908426   -0.4392932599
 H    1.2194957647   -0.1224601776    1.8924657976
 H    0.3615331904   -1.6715371735    1.4717193150