24

 C   -0.0122650573    1.5644239573    0.1706196213
 C    0.0050897568    0.0288801265    0.0520257883
 C    0.6117525453   -0.5806209107    1.3298051100
 C   -1.4429988968   -0.4755633232   -0.0967545848
 C    0.7879091990   -0.4239479804   -1.2041805283
 C    2.2562984573    0.0064342343   -1.2917065256
 C    2.9794079798   -0.6857119379   -2.4479219976
 N    3.9896683550    0.0429032741   -3.0110866195
 O    2.6940865357   -1.8014924897   -2.8375280704
 H    0.9898502874    1.9730403493    0.3371041050
 H   -0.4176647119    2.0270840550   -0.7364794348
 H   -0.6373643741    1.8818050251    1.0125329691
 H    0.0056774223   -0.3234023503    2.2054220317
 H    0.6557917982   -1.6732588212    1.2639609917
 H    1.6258883958   -0.2147077659    1.5204721248
 H   -1.9187362915   -0.0553456018   -0.9897594418
 H   -1.4736740410   -1.5669604052   -0.1852273183
 H   -2.0496414338   -0.1919310215    0.7703114627
 H    0.7613460763   -1.5160635494   -1.2762248838
 H    0.2639548469   -0.0522530502   -2.0943869168
 H    2.3528170517    1.0935501987   -1.3861327637
 H    2.7941463081   -0.2753962459   -0.3772212109
 H    4.2815311288    0.9296795100   -2.6403332729
 H    4.5653161618   -0.4036012872   -3.7063019256