21

 C    0.0047805654    1.5759555104   -0.0279804281
 C    0.0787106082    0.0515749723    0.0204800719
 C    0.7793490713   -0.6110747711   -1.1909265593
 C    1.2383239143   -1.9801084201   -0.6728918161
 O    0.7535235357   -3.1282840980   -1.3071414243
 C    2.5439666857   -2.0341453361    0.0675394723
 C    1.2355942244   -1.9267252514    0.8335267401
 C    0.7968265516   -0.5337706722    1.2722807754
 O    1.9441724391    0.2181406084    1.6657756379
 H    1.0070476679    2.0161454820   -0.0645221617
 H   -0.5365487160    1.9161569887   -0.9164095818
 H   -0.5179697676    1.9842797919    0.8458125750
 H   -0.9426049102   -0.3502895615    0.0566782674
 H    0.0953272620   -0.7398129174   -2.0340660406
 H    1.6231291859   -0.0028537802   -1.5383219336
 H    1.3064894941   -3.2969550117   -2.0774809738
 H    3.0342990182   -3.0008129645    0.1163006385
 H    3.2040324831   -1.1747985308    0.0569936907
 H    0.9202780358   -2.7879512457    1.4096398580
 H    0.0960823195   -0.5992998058    2.1168432552
 H    1.6413690617    1.0817233030    1.9630541068