21

 C   -0.0370527233    1.5215027726    0.0124865800
 C   -0.0087762268    0.0139277173   -0.0157359118
 C    0.3761071413   -0.8257401444   -1.2851673178
 C   -0.3239673755   -1.9368290828   -0.4756575822
 O    0.5305515779   -2.1135126075    0.6667983895
 C    0.8241849412   -0.7405752098    1.0262263671
 C   -1.3330024727   -0.8474372190    0.0188423767
 C   -2.0905156238   -1.0822868895    1.3153906719
 O   -2.1995619392   -0.3485680954   -0.9884438630
 H    0.9548506808    1.9405163125   -0.1906204658
 H   -0.7311105564    1.9033935371   -0.7410379309
 H   -0.3610359684    1.8963884518    0.9905538469
 H   -0.1707447183   -0.5188428929   -2.1730308846
 H    1.4391896244   -0.9703601138   -1.4916107137
 H   -0.6176627554   -2.9084761925   -0.8732619206
 H    1.9000225766   -0.5466798804    0.9338903479
 H    0.5207635482   -0.5474865412    2.0618970963
 H   -1.4780302619   -1.5964700597    2.0570021006
 H   -2.4497208572   -0.1365172539    1.7338575761
 H   -2.9682175831   -1.7133202804    1.1247065819
 H   -2.9509288685   -0.9469573981   -1.0536748745