14

 C   -0.0239300578    1.5161090493    0.0056637089
 C   -0.0051047552    0.0156450908   -0.0301284557
 C   -0.0505333556   -0.7271532960   -1.1683612539
 N   -0.0350177576   -2.0984398417   -1.2308084979
 C    0.0286694566   -2.6893532341   -0.0930884406
 O    0.0500186830   -4.0155526364   -0.0215963623
 O    0.0795497292   -2.1074245621    1.1092419581
 C    0.0661513492   -0.6764203579    1.2358098817
 O    0.1143012543   -0.2361226122    2.3469190648
 H    0.8734992330    1.9097588772    0.4943736296
 H   -0.0788582096    1.9276631501   -1.0052458481
 H   -0.8800081355    1.8857348350    0.5798512557
 H   -0.1046014123   -0.2316706642   -2.1344327499
 H    0.0989674483   -4.2690358778    0.9101298496