24

 C   -0.0474789610    1.4654043002   -0.2314856468
 C    0.0301683382   -0.0423914068    0.0452324146
 C    0.7984223678   -0.3098842786    1.3475619408
 C   -1.3789120325   -0.6627607615    0.0519260563
 C   -1.4187510379   -2.1959367059    0.1214888945
 C   -2.8247560060   -2.7531272503    0.0322075838
 C   -3.4723193019   -2.9850531749   -1.3105729473
 C   -3.0667701240   -4.1594711318   -0.4517141112
 H    0.9508334679    1.9133589633   -0.2787776704
 H   -0.5543575213    1.6725484145   -1.1799296398
 H   -0.6035111812    1.9804401830    0.5613443475
 H    0.5929746185   -0.5056347399   -0.7790365116
 H    0.2651557771    0.1132702638    2.2079014949
 H    0.9357662369   -1.3788867634    1.5340843427
 H    1.7921940427    0.1494594312    1.3171028975
 H   -1.9482199761   -0.2461025067    0.8959698767
 H   -1.9094251799   -0.3438978412   -0.8548371572
 H   -0.8156929862   -2.6129089265   -0.6974190692
 H   -0.9521384113   -2.5448610024    1.0513484406
 H   -3.4908670992   -2.4062416321    0.8193448449
 H   -4.5292314012   -2.7708012377   -1.4254545487
 H   -2.8812684806   -2.7809057707   -2.1980666637
 H   -2.2053741156   -4.7409901854   -0.7646513309
 H   -3.8470070032   -4.7453377601    0.0218118419