23

 C   -0.1166954905    1.5705262475    0.0157781974
 C    0.0383779796    0.0473305435   -0.0326855930
 C    0.8060222610   -0.4623963743   -1.2272975271
 C    2.1755583500    0.0859853847   -1.7121803035
 C    1.5712670607   -0.4247825243   -3.0336105926
 C    1.5613005103   -1.9567210807   -2.8690635309
 C    0.9260311659   -2.0013988735   -1.4396886155
 C    1.7171882295   -2.7758158107   -0.3874734091
 O    0.2506217159   -0.0550111975   -2.5305482877
 H    0.8495282223    2.0682620127    0.1460984171
 H   -0.5622941920    1.9387560369   -0.9117919571
 H   -0.7578359543    1.8690967600    0.8503973100
 H    0.5342494102   -0.3126978640    0.8775829914
 H   -0.9533385369   -0.4242203969   -0.0495921702
 H    2.2143046354    1.1746762344   -1.6773815378
 H    3.1015115822   -0.3567986082   -1.3364144570
 H    1.8122878395    0.0039378508   -4.0064584115
 H    0.9410897209   -2.4418024460   -3.6258896885
 H    2.5643360980   -2.3939232033   -2.9072069011
 H   -0.0902594367   -2.4052062232   -1.4935173179
 H    2.7379397897   -2.3932024020   -0.2800608145
 H    1.2364258952   -2.7244847368    0.5954988772
 H    1.7920399140   -3.8339416089   -0.6593562982