22

 C   -1.0160316527    1.1793038626   -0.4786789672
 C   -0.3002924820   -0.1754355540   -0.4349331133
 N    0.7591421255   -0.4728565189   -1.4305571186
 C    0.7987236753    0.1814919890   -2.7178376918
 C    1.8849807045   -0.3715415556   -0.4541098798
 C    2.7579814322   -1.6254070691   -0.4042349809
 C    2.7438007937    0.9012855780   -0.5187568830
 C    0.7971240981   -0.2781107238    0.6372826205
 O    0.8121942272   -0.2589037237    1.8327437531
 H   -0.3162287108    2.0200990659   -0.4850380376
 H   -1.6528746698    1.2580269509   -1.3652606214
 H   -1.6534285852    1.2772865444    0.4051357873
 H   -1.0540482068   -0.9733774059   -0.3761768809
 H    0.8682754109    1.2823127642   -2.6838389266
 H    1.6577730625   -0.1877984548   -3.2879716389
 H   -0.1008491852   -0.0770693996   -3.2871228479
 H    3.3904641113   -1.6880345042   -1.2969935478
 H    3.4104793480   -1.6048633913    0.4745006438
 H    2.1394556966   -2.5251476513   -0.3624302320
 H    2.1380923734    1.8115702551   -0.5374584453
 H    3.3967667429    0.9506367366    0.3574319441
 H    3.3766534803    0.8948331254   -1.4126195558