18

 O   -0.2136501270    1.1831806003    1.0371555140
 C   -0.1382064654    0.0759015406    0.1563576996
 C    0.8405726900   -0.9568220876    0.7491942103
 N    0.0772201272   -1.9565729269    1.5246237696
 C   -0.8667378891   -1.3751036561    2.4957256714
 C   -1.3364726174   -1.8062940308    1.1512762704
 C   -1.4611251826   -0.7341793117    0.0614537083
 C   -2.7451951379    0.0540023443    0.1339418107
 O   -2.8310826016    1.2594283927    0.1969257786
 H   -0.9991004298    1.6877249173    0.7785003632
 H    0.1816400007    0.4050852024   -0.8425955337
 H    1.3614212452   -1.4932394858   -0.0509216642
 H    1.5864656046   -0.4623295108    1.3765160644
 H   -1.0675006234   -2.0113375153    3.3530775055
 H   -0.8054124845   -0.3114604378    2.6991377678
 H   -1.9151717832   -2.7184020190    1.0338504097
 H   -1.4914509635   -1.2603137648   -0.9056000398
 H   -3.6674851024   -0.5671862312    0.1165906243