16

 C   -0.0228569988    1.5356576805    0.0313278924
 C   -0.0305566232    0.0394749208   -0.0126239816
 C   -0.8047720108   -0.8312496988    0.8840929789
 N    0.6855698763   -0.8221448921    1.0363064953
 C    1.1650310995   -1.6710851810   -0.0251408406
 N    1.8782839135   -2.6928954980    0.0842585066
 C    0.5792995482   -0.7882629279   -1.1619114195
 C   -0.2981296132   -1.3901127777   -2.1502763975
 N   -1.0035288805   -1.8932298785   -2.9160592361
 H    0.9508667909    1.9369800819   -0.2673072524
 H   -0.7825830015    1.9436484347   -0.6443451590
 H   -0.2414966519    1.8881187079    1.0426770355
 H   -1.3015401927   -0.3632744727    1.7272954918
 H   -1.2843370445   -1.7334599279    0.5143934403
 H    2.0967246377   -3.1001929536   -0.8258515194
 H    1.3882116410   -0.2452919577   -1.6612530647