19

 C    0.0220189277    1.6709430442   -0.0442751826
 C   -0.0406025155    0.1384873241   -0.0110462852
 C    0.8145059450   -0.4322818437    1.1380856552
 N   -1.4063361406   -0.4162519654    0.0476097174
 C   -2.1326711753   -0.2476934168    1.3049539651
 C   -3.5004630567   -0.7557738038    1.1687609169
 N   -4.5854920189   -1.1351211681    1.0568099100
 C    0.5513768409   -0.4549958849   -1.2988529053
 O    1.1635926762    0.1672118559   -2.1248106795
 H    1.0504277988    2.0114000479   -0.1863058975
 H   -0.5689879877    2.0652733773   -0.8763430826
 H   -0.3559003805    2.1017416512    0.8878692068
 H    0.5006888740   -0.0271600332    2.1044620866
 H    0.7410069178   -1.5232323708    1.1779106058
 H    1.8627808729   -0.1574571803    0.9944498803
 H   -1.9606802160   -0.0170510356   -0.7038067714
 H   -1.6381564786   -0.8236002521    2.0940161832
 H   -2.1992084116    0.7930288002    1.6653048707
 H    0.3603047082   -1.5460631560   -1.3988625139