23

 C    0.0136048907    1.4584674210    0.3056372480
 C   -0.1387948612   -0.0070001746   -0.1299426205
 C   -1.6051180799   -0.3364721376   -0.4411690425
 C    0.7572056026   -0.3787026100   -1.3335300257
 O    0.4178989905    0.3588854515   -2.5076818738
 C    2.2696525443   -0.2811042632   -1.0295035997
 C    3.0827514435   -0.9717718576   -2.1236119812
 C    3.5706387852   -0.1063707257   -3.2661486543
 O    3.2800809101   -2.1646833044   -2.0801900790
 H    1.0420863637    1.7085598651    0.5833750229
 H   -0.3048113526    2.1496035213   -0.4851328799
 H   -0.6196218123    1.6651383959    1.1735477747
 H    0.1881047849   -0.6424404234    0.7040640821
 H   -1.9502867781    0.2293756213   -1.3116209392
 H   -1.7322663798   -1.4005253832   -0.6654432465
 H   -2.2515156632   -0.0911141433    0.4072709672
 H    0.5446175930   -1.4212070089   -1.5971338022
 H    0.5352519895    1.2950393192   -2.3119902549
 H    2.5609909429    0.7703717728   -0.9252451957
 H    2.4775898023   -0.7975665077   -0.0876725813
 H    4.2251156064    0.6896241188   -2.8921529798
 H    4.1055108730   -0.7119449709   -3.9986418496
 H    2.7042950846    0.3767834536   -3.7310079789