14

 O   -0.1105376315    0.0815083245   -0.4447549493
 C   -0.0028786223    1.1927928779   -0.0627065475
 O   -1.0387213494    2.0502368252    0.3849924567
 C   -0.0288029276    3.0123774065    0.8449890538
 C    0.7274125337    2.9318823689    2.1522987182
 N    1.8548614258    3.2256859981    1.1549590183
 C    0.9209273210    4.1742522913    0.3297897640
 C    1.2051385266    3.4574252252   -0.9839280280
 C    1.0470811292    2.3413568825    0.0603031050
 H    0.5867509253    3.7251330391    2.8898637577
 H    0.8281893555    1.9519098401    2.6270981705
 H    0.9048577466    5.2373171185    0.5788431977
 H    0.4289748649    3.5156619888   -1.7490215374
 H    2.2047946324    3.5861521934   -1.4026774197