17

 N   -0.0810344768    1.2797287499    0.2926264077
 C   -0.0236409771    0.0529592274   -0.0104544320
 O    1.1684113819   -0.5682257024   -0.2798736144
 C    1.2290915869   -1.8817461125   -0.8760909981
 C   -0.1041393030   -2.6426568328   -0.7962859838
 N   -1.1959867517   -1.7395113019   -1.2136174811
 C   -1.2604806305   -0.8294867722   -0.0513544632
 C   -1.1477132717   -1.8252938353    1.0972350420
 C   -0.4769189208   -2.8849738830    0.6585185076
 H    0.8548680976    1.6925424017    0.2781391339
 H    1.5230101336   -1.7505651936   -1.9266143546
 H    2.0369096261   -2.4129809652   -0.3610193001
 H   -0.0562229072   -3.5440510562   -1.4156876858
 H   -0.9433178768   -1.2285030865   -2.0576173984
 H   -2.1542887596   -0.2056107860   -0.0478892279
 H   -1.5012757545   -1.6198493217    2.0979616512
 H   -0.1611273363   -3.7521785797    1.2230837971