10

 N   -0.0312055290    1.2799813340    0.3287969860
 C   -0.0356795420    0.0730311966   -0.0224173917
 O    1.1142347267   -0.5803974552   -0.4264744043
 N    1.1482282203   -1.9537692720   -0.8336897261
 N    0.0995562347   -2.6012518452   -0.8280280752
 N   -1.0752675941   -2.0459918408   -0.4477440527
 C   -1.2960450667   -0.7400843555   -0.0255154553
 O   -2.3879052405   -0.3519253391    0.2901830673
 H    0.9086111116    1.6778683190    0.2703553838
 H   -1.8642969610   -2.6771185916   -0.4855963017