15

 O    0.0989191358    1.3654297799   -0.0456853054
 C    0.0119546478   -0.0215151198   -0.0226845554
 C    0.8304265485   -0.5465978154    1.0744021600
 N    1.4711096751   -0.9836629119    1.9302941788
 C   -1.3631891271   -0.7115055180   -0.0870427252
 C   -1.7189073732   -0.7432942876   -1.5708293044
 N   -0.6333230732   -0.0034673220   -2.2679991393
 C    0.2968385863   -0.7729406074   -1.3735389186
 C   -0.8287632711   -1.8079807175   -1.0009054973
 H   -0.2165590819    1.6039044636   -0.9342872366
 H   -2.1050416314   -0.7833582673    0.6962833489
 H   -2.7414614254   -0.7735096614   -1.9220526031
 H   -0.5464527872   -0.3746440624   -3.2121814501
 H    1.3116892023   -0.9518906349   -1.7177987078
 H   -0.8749095452   -2.8843034879   -0.9284692546