18

 O    0.1009761453    1.3732011310   -0.1496344981
 C    0.0398837849   -0.0251346463   -0.0035723762
 C    0.5671007971   -0.5397048430    1.4115111200
 O   -0.3166023351   -1.5619442153    1.9407462773
 C   -1.1383472641   -1.9409036138    0.8564367747
 C   -2.6855527413   -1.7113101695    0.6823299199
 C   -2.4618868560   -0.2280059871    1.0101332358
 C   -1.3160245821   -0.6805608365    0.0454878042
 N   -2.4111489807   -1.3544797226   -0.7883936776
 H   -0.5776678041    1.7600728773    0.4154509155
 H    0.6616907297   -0.4354711938   -0.8050274550
 H    1.5798825437   -0.9481792708    1.3219489274
 H    0.5929087088    0.2982746110    2.1160052751
 H   -0.7549017837   -2.8314603286    0.3377188376
 H   -3.5245196711   -2.3560619534    0.9462262729
 H   -3.1893133178    0.4587780289    0.5770744230
 H   -2.1823568599    0.0088825349    2.0354938989
 H   -2.0103021634   -2.1730537427   -1.2626479254