19

 C    0.0133465427    1.6566308448    0.0076718099
 C    1.5014963910    1.1986633370    0.0201345895
 C    1.0358339511    0.1830511392    1.1147191901
 O    1.7905205773   -0.9077030225    1.5556441273
 C    2.7066460762   -1.4961622166    0.6550128723
 C    2.0526762443   -1.9544322200   -0.6366462273
 O    1.8138474584   -0.8927490246   -1.5380391739
 C    1.0476801490    0.1903319560   -1.0980233970
 C   -0.0664886872    0.1016490781   -0.0038500786
 H   -0.3480277262    2.1518780899    0.9102295863
 H   -0.3276445961    2.1653076797   -0.8953479932
 H    2.3821789315    1.8419733119    0.0242818440
 H    0.6763692147    0.6501654038    2.0359001509
 H    3.5268827464   -0.8016551976    0.4154295970
 H    3.1296747980   -2.3547846926    1.1868596442
 H    2.7147335567   -2.6462314306   -1.1678162226
 H    1.1191860049   -2.4871086021   -0.3970976242
 H    0.7324461295    0.6875901291   -2.0196236794
 H   -0.9726786920   -0.5052015829   -0.0080058351