20

 C    0.2062768986    1.4841381797    0.1337685647
 C    0.2013053937   -0.0446880597    0.0774184835
 C    0.5306301350   -0.5812063004   -1.3293050200
 C    0.5414502867   -2.0678406484   -1.4076690798
 N   -0.2558249333   -2.8526963130   -2.0602429913
 C    0.1980634888   -4.1344002876   -1.7665796177
 C    1.2647253641   -4.0634844350   -0.9352549132
 C    2.1616131486   -5.0510458404   -0.2863334277
 O    1.4967355565   -2.7308477759   -0.6955078858
 H    1.1862822682    1.8883880973   -0.1435223999
 H   -0.5331933993    1.9090466038   -0.5539548097
 H   -0.0295548473    1.8433884524    1.1400082565
 H    0.9282039661   -0.4484444818    0.7912159847
 H   -0.7796296894   -0.4277748537    0.3824648503
 H   -0.2074124974   -0.2277303804   -2.0545016364
 H    1.5088171752   -0.1932477660   -1.6423317502
 H   -0.2762288750   -5.0127706114   -2.1755465202
 H    3.2047490446   -4.9109376791   -0.5917768970
 H    2.1261267155   -4.9720960819    0.8061697101
 H    1.8573737800   -6.0624859084   -0.5652168809