19

 C   -0.0771379806    1.5730397438    0.0378264491
 C   -0.0190745047    0.0481113436    0.0049496680
 C   -1.4179713594   -0.5611723859    0.1261165917
 C    0.8566311870   -0.6456728801   -1.1249428099
 C    2.2239973463    0.0136527495   -0.8985400174
 O    2.2836681768    0.0189061933    0.5578926195
 C    1.0537779965   -0.6262982601    0.9309957502
 C    1.0091644103   -1.7872892707   -0.0877436045
 O    0.9982746440   -2.9793099916   -0.0898805071
 H    0.9102018029    2.0212200390    0.1559601479
 H   -0.5352975378    1.9658372614   -0.8764095289
 H   -0.6923539080    1.9043868801    0.8810436943
 H   -2.0535907348   -0.2228292476   -0.6992421690
 H   -1.4077790194   -1.6550471492    0.1072232600
 H   -1.8938469697   -0.2469964632    1.0610191162
 H    0.5093554997   -0.8016188750   -2.1441354354
 H    3.0546776149   -0.5743278233   -1.3050453425
 H    2.2958620488    1.0389719425   -1.2754826319
 H    0.9778599672   -0.7155675565    2.0120502296