10

 O   -0.1175816515    1.3486986259   -0.1851115236
 C    0.0770483113    0.0420264444   -0.0592285458
 N    1.2298056345   -0.4264397901    0.2288197317
 O    1.3266797346   -1.8350235562    0.3390721473
 C    0.2616961627   -2.6512390471    0.1517290012
 O    0.3730147576   -3.8339624502    0.2509396261
 C   -1.0805229997   -1.9984191558   -0.1901106732
 O   -2.0836283955   -2.5981600592   -0.3775109367
 O   -1.0760566037   -0.6169361664   -0.2763867794
 H    0.7286923598    1.7906904748   -0.0231787376