15

 N   -0.2568792045    1.4301449428   -0.0178451553
 C   -0.0149920271    0.0246354400   -0.0169388778
 C   -1.0903923347   -0.8594760394   -0.0963241869
 O   -2.3926099852   -0.5668970315   -0.1780535677
 N   -0.6338031674   -2.1241656889   -0.0799336546
 C    0.7557862907   -2.1024851643    0.0108387775
 C    1.4939534456   -3.3320122808    0.0459981915
 O    0.9793077033   -4.4390358416    0.0004253933
 C    1.1501594682   -0.7695589417    0.0505357173
 H    0.1916550641    1.8939760909   -0.8018286763
 H    0.0855172215    1.8767657488    0.8272867472
 H   -2.4286009940    0.4040945379   -0.1701485604
 H   -1.1674020244   -2.9776557913   -0.1236568412
 H    2.5949935468   -3.2037138972    0.1187240767
 H    2.1719035371   -0.4254792237    0.1206966367