25

 C   -0.0616117235    1.1296203137   -0.6661090390
 C    0.0962809354   -0.3220341603   -0.2104970723
 C    0.8047471857   -0.4648787579    1.1412401168
 C    0.8799760955   -1.9289312306    1.5859511708
 C    1.5321657406   -2.1251517740    2.9473840496
 O    1.4983838806   -3.5014800909    3.2620089915
 C    2.1110225124   -3.7956916212    4.4924414660
 O    2.1270421951    0.0713799443    1.0240772475
 C    2.4471645940    1.0970951445    1.9356500991
 H    0.9146099981    1.6157874767   -0.7457426434
 H   -0.5469807342    1.1850390772   -1.6451883233
 H   -0.6718298003    1.7057176924    0.0391172902
 H   -0.8858672971   -0.8055700047   -0.1418192515
 H    0.6724241937   -0.8841373006   -0.9558414178
 H    0.2478392857    0.1139802683    1.8956771723
 H   -0.1319591620   -2.3491462976    1.6184010234
 H    1.4430648986   -2.5003052343    0.8392345034
 H    2.5719178774   -1.7616721173    2.9274797437
 H    0.9967790486   -1.5451555542    3.7212834983
 H    3.1741896359   -3.5056353001    4.5016721387
 H    1.6124706769   -3.2845805226    5.3323312197
 H    2.0393970362   -4.8754223954    4.6461212517
 H    1.7781560711    1.9648524717    1.8359948737
 H    2.4123786479    0.7550212574    2.9812887168
 H    3.4683273578    1.4184627756    1.7116902641