21

 C    0.3644511868    1.4211698054   -0.0613463267
 C    0.0398285607   -0.0724072760    0.0619325927
 C   -1.4767940891   -0.3127643878    0.0214795651
 O    0.6510567482   -0.7619658791   -1.0549797016
 C    1.4744292635   -1.8454793110   -0.6053711694
 C    2.8346713999   -1.7306615102   -1.3080742426
 O    3.4160629596   -0.4592452650   -1.1261379214
 C    1.4955654226   -1.6980092360    0.8921565924
 C    0.6911327156   -0.7130239181    1.2657071552
 H    1.4448194558    1.5807532718   -0.0030161765
 H   -0.0011876181    1.8089666494   -1.0171473171
 H   -0.1095040109    1.9920730959    0.7435298060
 H   -1.8991559401    0.0899919758   -0.9041125336
 H   -1.6952844498   -1.3829743413    0.0663413290
 H   -1.9724976708    0.1761412346    0.8667166761
 H    1.0218415383   -2.8088700241   -0.8996015362
 H    3.5275800693   -2.4721811099   -0.8951397510
 H    2.6959557588   -1.9617302093   -2.3763159051
 H    2.7320970884    0.1689381968   -1.3887628953
 H    2.0860832431   -2.3379949351    1.5357557373
 H    0.4897081880   -0.3819445966    2.2769972228