21

 C    0.1169767470    1.4906954327    0.0493893578
 C    0.0951289941   -0.0041793764   -0.0115212919
 C   -0.0341613747   -0.7681157660   -1.0991575354
 C   -0.0133694842   -2.2473395868   -0.8056201353
 C    1.1649587884   -3.0140570426   -1.4457400644
 C    2.2802156068   -2.7810536081   -0.4256003153
 O    1.6375932041   -2.8168075695    0.8432834806
 C    0.3079469958   -2.3042778916    0.7223794418
 C    0.1927967455   -0.8497254116    1.2394007837
 H    1.0493183370    1.8531272816    0.5008290519
 H    0.0214547299    1.9394449928   -0.9431527499
 H   -0.6984829569    1.8732456827    0.6767876694
 H   -0.1404882278   -0.3852262897   -2.1099662980
 H   -0.9697708743   -2.7216578611   -1.0527596111
 H    0.9332600768   -4.0817153939   -1.5148025891
 H    1.4161542950   -2.6517900637   -2.4463455923
 H    3.0530130742   -3.5552317238   -0.4308521528
 H    2.7663302527   -1.8074804582   -0.5931325295
 H   -0.3426603421   -2.9849474314    1.2797502755
 H    1.0609112942   -0.6015884260    1.8615215195
 H   -0.6945059815   -0.7133080195    1.8735073748