19

 C    0.0290409039    1.2350130133    0.5856942149
 C    1.4480933635    1.5604521496    0.0012629535
 C    2.6030433368    1.8149914746    0.9698871428
 C    3.0531402173    0.5803997383    1.7047579116
 C    2.7123001729   -0.6636259512    1.3682498580
 C    1.8415781391   -0.9853783763    0.1927602796
 O    0.4410097933   -1.2305722328    0.5587265689
 C    0.0091032132   -0.0967225728   -0.2130879080
 C    1.4420016935    0.1892771182   -0.7265886911
 H   -0.0151425924    1.0764304345    1.6655368604
 H   -0.7406340347    1.9554747987    0.2968649048
 H    1.3824494859    2.3839552642   -0.7146407167
 H    3.4615959227    2.2453305043    0.4328386228
 H    2.3081285245    2.5823272356    1.6989742451
 H    3.6997561940    0.7408218513    2.5649972333
 H    3.0595645357   -1.5041304076    1.9636834490
 H    2.2284705704   -1.8584540424   -0.3469756848
 H   -0.8620485349   -0.3226078811   -0.8324865146
 H    1.7630101953    0.1345559316   -1.7659689095