17

 N   -0.0965821119    1.3131111022    0.1277750471
 C   -0.0241313089    0.0500917163    0.0186984507
 C   -1.2734636435   -0.7918840880   -0.0753068002
 C   -1.2124845324   -1.7673846285   -1.2642917274
 C    0.1105302392   -2.4806115861   -1.2748045877
 C    1.1842542360   -1.9732736987   -0.6725843934
 N    1.1768413267   -0.7165180359   -0.0226407980
 C    2.3316459424   -0.2925878946    0.6219581511
 O    3.3835125075   -0.8850598083    0.5957298083
 H    0.8184549840    1.7640822992    0.1324387935
 H   -1.3595867776   -1.3754658635    0.8504800114
 H   -2.1275455094   -0.1173576854   -0.1363137568
 H   -2.0369597397   -2.4842660453   -1.1906959821
 H   -1.3644948479   -1.2265458488   -2.2091785838
 H    0.2004553343   -3.4344526597   -1.7816247448
 H    2.1541631119   -2.4499774283   -0.6407519681
 H    2.1738473191    0.6387895632    1.1891828100