14

 C    0.1334839024    1.3882654728   -0.1265165016
 O    0.1330345688   -0.0390876177   -0.0226234323
 C    0.5720661442   -0.5589052869    1.1222879022
 N    0.9703576833    0.2213824261    2.0689972190
 O    1.4184277880   -0.4221303121    3.2461098835
 C    1.4202422395   -1.7837520710    3.3511116948
 N    1.8143326393   -2.3987681955    4.3901006261
 C    0.9344703957   -2.5154076571    2.1802859077
 N    0.5254165125   -1.9514398933    1.1073732883
 H    1.1470363812    1.7828964103   -0.0122080238
 H   -0.2546977880    1.6064012310   -1.1210333762
 H   -0.5049187058    1.8311229900    0.6431638135
 H    2.1201623616   -1.7442668426    5.1129364487
 H    0.9329071873   -3.6004969140    2.2563143601