14

 O    0.0437121447   -0.0237046979   -0.0057541478
 C   -0.0111017944    1.1807386283    0.0211877244
 C   -1.2272230711    2.0399544426    0.1059731201
 C   -0.8972297278    3.3320597316   -0.0017462088
 C    0.5941932979    3.5119602354   -0.1179788089
 N    1.2769435402    3.0150734542    1.1239485953
 C    1.1715027223    2.1386250401   -0.0683620155
 C    1.1590323521    4.5874165328   -0.8710726039
 C    1.6167695832    5.5105950792   -1.4912358990
 H   -2.2169963655    1.6290342427    0.2539914111
 H   -1.5724289534    4.1781856938    0.0260447053
 H    2.2218546702    3.4024404238    1.1425916528
 H    2.0631939579    1.8520076602   -0.6120165435
 H    2.0252326438    6.3186324832   -2.0466216215