19

 C   -0.2802734115    1.0811276090    0.0314211384
 N   -0.1144843239   -0.3583075597   -0.0824105259
 C    0.6867236930   -0.8246050944   -1.1426727257
 C    1.1613985615   -2.1148612724   -1.2597145379
 N    1.8593777570   -2.2160948805   -2.4436714823
 C    1.8467875989   -1.0044978239   -3.0823299552
 C    1.1250924297   -0.1228191146   -2.3063529227
 O    1.0559672373   -3.1759975029   -0.4157914069
 C   -0.2388444295   -3.7878509118   -0.4087623271
 H    0.6686382729    1.6401097286    0.0906895102
 H   -0.8355024999    1.4585184681   -0.8338566322
 H   -0.8698913736    1.3029264380    0.9248952281
 H    0.1798227563   -0.7695886382    0.7945063905
 H    2.3550856510   -3.0409829244   -2.7318319654
 H    2.3572758689   -0.8616594053   -4.0201997167
 H    0.9332282524    0.9110850181   -2.5453678323
 H   -0.4776609161   -4.2132080737   -1.3914353099
 H   -0.2027579646   -4.5870505433    0.3352199173
 H   -1.0122599799   -3.0614506766   -0.1360169941