19

 C   -0.0039958165    1.4261409483   -0.0229484077
 C   -0.0409856747   -0.0739019649   -0.0138070121
 O    0.9750341990   -0.6782361118   -0.8006195775
 C    0.4405552022   -1.9086040978   -1.3108228664
 C   -0.6877737395   -2.2591470921   -0.3443558746
 C   -0.1390990368   -2.2959875475    1.1205354188
 C   -0.4906717952   -0.8158467819    1.2553213388
 C   -1.3063707440   -0.8578736049   -0.0321706335
 O   -2.5893019300   -0.4119506376   -0.2722979393
 H    0.9392072347    1.7944572420    0.3922425988
 H   -0.0924150329    1.8103424938   -1.0447927833
 H   -0.8257542060    1.8322715188    0.5729193918
 H    0.0645026021   -1.7687886525   -2.3379338309
 H    1.2490393444   -2.6466726633   -1.3329178514
 H   -1.3488189065   -3.0661951749   -0.6569984464
 H   -0.7554022556   -2.9201792363    1.7718414599
 H    0.9134001233   -2.5751057719    1.2352567497
 H   -0.6882594837   -0.2736043272    2.1736010142
 H   -2.6200046144   -0.0182959884   -1.1516787789