23

 C    0.0648738305    1.5503979494    0.3101743340
 C    0.1324857522    0.0498152703    0.0894865888
 C    0.8883437194   -0.4044419878   -1.1800179547
 C    1.5906440436   -1.7140993173   -0.7438278621
 C    1.2020758801   -1.8619716587    0.7467608088
 C    2.2984891855   -2.3985889946    1.6528856768
 C    1.8704929235   -2.5072532907    3.1109601135
 O    2.9507953492   -3.0789408384    3.8365869324
 O    0.8418859277   -0.5497268068    1.1677119732
 H    1.0734413126    1.9736870868    0.3517035837
 H   -0.4819772706    2.0325790879   -0.5061042223
 H   -0.4451341181    1.7821388524    1.2494578516
 H   -0.8917694313   -0.3633754215    0.0634506007
 H    0.2102898766   -0.5448040215   -2.0257173211
 H    1.6221761830    0.3535447820   -1.4701833834
 H    1.2735869514   -2.5818004507   -1.3278514811
 H    2.6764593138   -1.6300060556   -0.8456789877
 H    0.3129601778   -2.5145298309    0.8225293166
 H    2.6029148747   -3.3908841127    1.2993049665
 H    3.1758666463   -1.7453335674    1.5834297508
 H    1.6105393213   -1.5096237131    3.4906416075
 H    0.9659829628   -3.1343226988    3.1857054165
 H    2.7183425480   -3.0755564324    4.7694221512