15

 O   -0.1115938490    0.1115144335   -0.2417856883
 C   -0.0422630110    1.2665832992    0.1006192954
 C    1.2410718141    2.0258177778    0.0696043211
 C    1.2567642750    3.5005574795   -0.1813292834
 C    1.6340929669    3.0315699797    1.2101932923
 C    0.6397154786    3.2983030892    2.3086415442
 O   -0.5260617823    3.5425172793    2.1231576235
 C    3.0104880437    3.0242895042    1.6145028983
 C    4.1525482963    3.0260261077    1.9907347367
 H   -0.9298912600    1.8353281060    0.4345520145
 H    2.0801182364    1.4403316694   -0.2887131512
 H    2.0480907383    3.9059896822   -0.7989879113
 H    0.2953571485    4.0006266512   -0.2392983722
 H    1.0760760403    3.2651249030    3.3270933237
 H    5.1647359943    3.0257974479    2.3130051266