19

 C   -0.0150189812    1.4644360359   -0.0948668860
 C    0.0020857534   -0.0431997424   -0.0627556616
 C    0.5272930449   -0.8998274542   -1.2899106744
 C   -0.2507763704   -2.0077961734   -0.5840747259
 C    0.4132355694   -2.7931828178    0.2837579813
 C    0.3242215007   -2.1812241081    1.6956563814
 O    1.6008135230   -2.1730283893    2.3079105426
 C   -0.2408415102   -0.8002378756    1.3236338744
 C   -1.1407938540   -0.9914225698    0.1500982538
 H    0.9891826953    1.8803779938    0.0454733439
 H   -0.3926442188    1.8265028090   -1.0581525180
 H   -0.6577053737    1.8752036805    0.6900556485
 H    0.0854482788   -0.4798622316   -2.2023327048
 H    1.6013188103   -1.0566833877   -1.4329246455
 H    1.3217831473   -3.3348016558    0.0327236122
 H   -0.3302746415   -2.6761754401    2.4239503078
 H    2.1854456514   -1.6576623526    1.7397713150
 H   -0.5174181081   -0.1145262282    2.1226315661
 H   -2.2107491166   -0.8440842227    0.0774331591