18

 C    0.2253306935    1.4486268000    0.3139778206
 C   -0.0141544368   -0.0568047909    0.4232131051
 O   -0.4144667708   -0.4335767074    1.7310380210
 C   -1.0260437299   -0.5429986875   -0.6421147160
 C   -1.2575396835   -1.9787797279   -0.6065196717
 C   -1.4340772148   -3.1704312340   -0.5711515897
 C   -1.6758211365   -4.6054272261   -0.5594007546
 N   -1.1680222139   -5.2321300167    0.5433751703
 O   -2.2625544131   -5.1894978342   -1.4503308874
 H    0.9306212823    1.7717101452    1.0836280806
 H    0.6307987671    1.7194412567   -0.6661084762
 H   -0.7114504545    2.0032058871    0.4529768627
 H    0.9300085788   -0.5888236868    0.2621361008
 H   -1.2222925910    0.0468834458    1.9454442956
 H   -1.9794121203   -0.0147731158   -0.4939580849
 H   -0.6716749049   -0.2512725125   -1.6391964742
 H   -0.7694519768   -4.7086547641    1.3032767996
 H   -1.3533081352   -6.2150680407    0.6584249085