20

 O    0.7535200513    1.1661500222   -0.8781638728
 C    0.3771104751   -0.0447724918   -0.2957563903
 C    1.2093733849   -1.2532098527   -0.6912105597
 C    2.6828845962   -1.2076821893   -0.2332285160
 N    3.5867369308   -0.4639303170   -1.1072019891
 C    3.8924462336    0.8397026819   -0.9497968923
 O    3.4172386317    1.5739134110   -0.0969625413
 C   -0.2231955415    0.0061110226    1.0920144964
 C   -1.1033067043   -0.2130046078   -0.1249087936
 H    1.5707826304    1.4696628478   -0.4469098457
 H    0.7544699599   -2.1478213491   -0.2503888953
 H    1.1738135615   -1.3820749211   -1.7803393988
 H    2.7535050751   -0.7595307352    0.7618678417
 H    3.0757071384   -2.2268521644   -0.1672225337
 H    4.0083288956   -0.9505234306   -1.8823685927
 H    4.6424084775    1.1904597805   -1.6828097401
 H   -0.0633867313   -0.8271136632    1.7689751630
 H   -0.2655352182    0.9785656491    1.5685530826
 H   -1.7162970090    0.6186568897   -0.4515968090
 H   -1.5427981975   -1.1933168726   -0.2759609734