21

 C    0.0620508969    1.4058784936    0.0245271513
 O   -0.0717679664    0.0046431242   -0.0637988125
 C    0.6126481565   -0.5875079305   -1.1609575903
 C    2.1094825280   -0.7528643656   -0.8529306957
 O    2.7451327050   -1.5361282326   -1.8417402683
 C    2.2702726661   -2.8697291194   -1.8574190407
 C    0.7753782084   -2.9722790429   -1.7492649377
 C   -0.0107618068   -1.9408032079   -1.4386893375
 C   -1.5089355197   -2.0327561110   -1.3650646748
 H    1.0917223568    1.7226993621    0.2444030223
 H   -0.2595684246    1.9021870407   -0.9042556402
 H   -0.5823585187    1.7379448968    0.8424225017
 H    0.4920600977    0.0561773627   -2.0506395452
 H    2.6268064168    0.2103176763   -0.8459015677
 H    2.2050788570   -1.2046399740    0.1476710544
 H    2.6174219996   -3.3045757626   -2.8025499321
 H    2.7449330965   -3.4545005004   -1.0470075691
 H    0.3465514867   -3.9533611015   -1.9423798605
 H   -1.8540258427   -3.0422658872   -1.6032204206
 H   -1.8690526991   -1.7575227392   -0.3696110880
 H   -1.9800464942   -1.3350650815   -2.0697515488