19

 C    0.0257140107    1.4198043211    0.0784704806
 N   -0.0007362549   -0.0330583015    0.0692987632
 C    1.2944719040   -0.6785203734    0.1320104960
 C   -1.2106345956   -0.6782753950    0.0037723326
 O   -2.2672483185   -0.0648952175   -0.0470597027
 C   -1.1992955627   -2.2042960352   -0.0038765594
 C   -2.6127469826   -2.7674755443   -0.0793793073
 O   -2.4900251426   -4.1842192344   -0.0810042061
 H    0.5933408268    1.8013510270   -0.7799687864
 H   -0.9994359959    1.7817641763    0.0279721549
 H    0.5025867203    1.7917911394    0.9943879695
 H    1.8277201148   -0.3907147461    1.0482546126
 H    1.2001550242   -1.7618360139    0.1213833855
 H    1.9181752349   -0.3812263948   -0.7219840155
 H   -0.6206927713   -2.5830336485   -0.8545323691
 H   -0.7104411581   -2.5924035276    0.8973647267
 H   -3.1995251554   -2.4089630369    0.7767045207
 H   -3.1092065586   -2.3990724731   -0.9868551139
 H   -3.3748844294   -4.5568375416   -0.1288375020