16

 O   -0.0152433754    1.2876395636   -0.0758154206
 C   -0.0283736960   -0.1083847336   -0.0359929842
 C   -0.4701156204   -0.7146079435    1.2797681036
 C   -1.4065548823   -0.6661880035    0.0501452980
 C   -1.4204194547   -2.2179218840   -0.0048823405
 C   -0.4921799149   -2.2469144373    1.2198342437
 O    0.5610401086   -2.8896398624    0.4154572288
 C   -0.2666977594   -2.9180751599   -0.7039671744
 N   -0.0676274934   -3.4000201485   -1.8432640511
 H    0.8046259120    1.5883488061    0.3301859165
 H    0.7351705751   -0.5953479332   -0.6402944232
 H   -0.4860653415   -0.1145559467    2.1809519573
 H   -2.2681282500   -0.0365154530   -0.1266016140
 H   -2.3977067207   -2.6937343795   -0.0282944506
 H   -0.6924392808   -2.8015088782    2.1350348496
 H    0.8612511939   -3.8202033063   -1.9135538688