20

 C   -0.2021188811    1.5448590475   -0.1196874338
 C   -0.0155335526    0.0216521444   -0.0360193027
 O    0.7521532593   -0.2028274191    1.1507100973
 C   -1.3406007873   -0.6148130015    0.0940840953
 C   -2.4211918249   -1.1273622878    0.2254160795
 C    0.7533733167   -0.5341034739   -1.2580191461
 C    2.0881405613    0.1328556085   -1.5272035128
 C    0.5865797095   -1.9743957177   -1.5959128671
 N    0.0120470744   -0.9275481527   -2.4642071035
 H    0.7706990539    2.0391765281   -0.0979866226
 H   -0.7247734624    1.8173618741   -1.0396774026
 H   -0.7856687383    1.8896501612    0.7361125048
 H    0.8718249598   -1.1555442214    1.2386652597
 H   -3.3761062549   -1.5763961087    0.3507376408
 H    2.6915339732    0.1680518254   -0.6159801299
 H    2.6335018940   -0.4236680173   -2.2926715434
 H    1.9563409403    1.1541026119   -1.8965563225
 H    1.4230926096   -2.5188091156   -2.0253799681
 H   -0.0987770310   -2.5757306503   -1.0054194563
 H   -0.9896580095   -0.8754878949   -2.2849931860