20

 N    0.0205562946    1.3416890793   -0.1295918209
 C    0.0587525169    0.0360203143    0.2679350070
 O    1.0570279480   -0.4690016543    0.7436453989
 C   -1.2516651583   -0.7305331801    0.0836002922
 C   -1.0221610009   -2.2347446912   -0.0780221656
 C   -2.3238079410   -3.0411786386   -0.0719007779
 C   -2.0845090032   -4.5505444397   -0.2557042499
 C   -3.3645012637   -5.3417708010   -0.1241064466
 O   -3.8194751234   -6.0731271548   -0.9652081827
 H    0.8280874897    1.9169784754    0.0458231499
 H   -0.8178049783    1.7760953916   -0.4721688769
 H   -1.8639691454   -0.5410656758    0.9766355421
 H   -1.8149531471   -0.3243214073   -0.7654822719
 H   -0.4771687397   -2.4200813866   -1.0116790278
 H   -0.3612901501   -2.5697489547    0.7276711614
 H   -2.8564027698   -2.8693447561    0.8737624304
 H   -2.9906002600   -2.6842514636   -0.8677586529
 H   -1.6335787051   -4.7709814300   -1.2276879975
 H   -1.3955616508   -4.8994810508    0.5275045305
 H   -3.8941399625   -5.1907952761    0.8474178381