25

 C    2.0155686696    2.4503333530   -0.6247968893
 C    0.9536582522    1.3490679672   -0.5028816215
 C    1.2014368564    0.1772956949   -1.4394241871
 O    1.2339974026    0.5780451685   -2.7944451373
 C    2.0923958257   -0.9941110184   -1.0617558684
 C    2.8424090557   -1.1179837455    0.2488736806
 C    0.5820746620   -1.1887576608   -1.2102659810
 C   -0.2820664735   -1.4428305864    0.0138511963
 C    0.1025864070   -1.9677853494   -2.4241993077
 H    3.0157176191    2.0703822161   -0.3883727988
 H    2.0388439988    2.8645258900   -1.6377849889
 H    1.8027032588    3.2765093163    0.0600457370
 H    0.9088705201    1.0076547528    0.5342420737
 H   -0.0324682590    1.7704489924   -0.7351558194
 H    2.0970868500    0.9689645370   -2.9644180842
 H    2.6516488877   -1.3832596372   -1.9110883782
 H    2.2972060724   -0.6894323527    1.0930797308
 H    3.0375747251   -2.1696070778    0.4885044654
 H    3.8121531158   -0.6099244109    0.1965899654
 H    0.0727175830   -0.9408034778    0.9153392630
 H   -1.3111343040   -1.1101038670   -0.1657307613
 H   -0.3208965175   -2.5165239468    0.2323094783
 H    0.1746213062   -3.0459711077   -2.2377893329
 H   -0.9473715736   -1.7406128164   -2.6445906087
 H    0.6852605091   -1.7257666635   -3.3132270057