16

 C    0.4318339806   -0.5345392249    1.3333538553
 C    0.0793905886    0.0751304087    0.0011164979
 N    0.0077243931    1.3451749907   -0.0932679622
 N   -0.1518254241   -0.7899127992   -1.0681184709
 C   -0.1294264475   -2.1622060652   -1.1885481803
 N   -0.3905128112   -2.7630057614   -2.3386743503
 C   -0.2621840894   -4.0820717731   -2.0221862829
 N    0.0564683427   -4.3431313353   -0.7717742848
 N    0.1404609940   -3.0845314790   -0.2378680794
 H   -0.3717056444   -1.1820229529    1.7017679066
 H    1.3582752754   -1.1166260807    1.2739873752
 H    0.5765900783    0.2778884450    2.0431503581
 H   -0.2373887783    1.6482710716   -1.0384767022
 H   -0.3860475701   -0.3538312353   -1.9491669509
 H   -0.4103333005   -4.8710807570   -2.7442358735
 H    0.3748080129   -2.9713765920    0.7311838343