17

 N    0.0429136075    1.2378038363    0.3157682275
 C    0.0082361687    0.0213829623    0.0323913595
 O    1.0481941973   -0.8700860756   -0.3253495071
 C    0.0411719700   -1.7925507783   -0.9088090731
 C   -0.3334658697   -3.2706378770   -0.6549956980
 C   -1.6770870532   -2.9504254687    0.1220508139
 C   -1.1000043956   -2.0235140044    1.2031108322
 C   -0.9962007688   -1.1108135939   -0.0468873745
 N   -2.3134536236   -1.6804555768   -0.4545619801
 H    0.9949660078    1.6055074761    0.2736828335
 H   -0.0246216775   -1.5392940476   -1.9706393449
 H   -0.4687186372   -3.8086234268   -1.5963596713
 H    0.3507267334   -3.8433871103   -0.0255909308
 H   -2.3583399219   -3.7737187473    0.3349827299
 H   -1.8530666631   -1.6396634009    1.8896345883
 H   -0.1806941358   -2.3130985002    1.7112858836
 H   -2.4246950683   -1.6968553569   -1.4694124685