18

 C   -0.0940915183    1.6398917712   -0.0199091980
 C    0.0108224641    0.1263957189    0.0099226277
 C    1.1634246409   -0.6056177743   -0.7243545342
 O    2.3618053821   -0.0228568976   -0.1402968271
 C    2.0433030652   -0.0156079069    1.2098340547
 N    2.7655701211    0.4046708501    2.1507970286
 C    0.6678220119   -0.6247813923    1.2355776257
 C    0.9297297284   -1.8084780504    0.2410224606
 O   -0.2210531947   -2.5830795114    0.0370851432
 H    0.8659982497    2.1209333496    0.1829382055
 H   -0.4434670660    1.9815724980   -1.0001541263
 H   -0.8125281252    1.9907960323    0.7279701069
 H   -0.9395404196   -0.3510375784   -0.2294207039
 H    1.2778954965   -0.6775176507   -1.8050593990
 H    3.6558087552    0.7553021905    1.7907584171
 H    0.1901641420   -0.7556878852    2.2021395122
 H    1.8179164651   -2.4213348820    0.4386571750
 H   -0.0321329185   -3.2271496913   -0.6529556187