19

 C   -0.0958416653    1.5859925994    0.0516010762
 C    0.0083171886    0.0775544924    0.1394412404
 C   -1.2189489529   -0.6489456351   -0.3008641397
 O   -2.2244359370   -0.1193665385   -0.7035406961
 C    1.2504467209   -0.7384722485   -0.1883091355
 C    2.5197348983    0.0126928427    0.2276880508
 C    2.0088863348   -0.0497103480    1.7117571715
 O    1.8454936879    1.1326957210    2.4601457420
 C    0.7179106390   -0.7088916021    1.2400087649
 H    0.7438537010    2.0840595241    0.5318315500
 H   -0.1606193726    1.9027435156   -0.9943053299
 H   -1.0126354304    1.9171352218    0.5465756215
 H   -1.1432299172   -1.7607301169   -0.2351948731
 H    1.2172247161   -1.5565289005   -0.8979331846
 H    3.4357212677   -0.5615126666    0.0724804396
 H    2.6470603132    1.0114175588   -0.1964256875
 H    2.6035874335   -0.7839175424    2.2717849992
 H    2.7111022156    1.4170960491    2.7708735691
 H    0.1911912689   -1.4776493563    1.7937332713