19

 C   -0.1795223863    1.6417343880   -0.1847236454
 C    0.1269763657    0.1516099935   -0.0244499849
 C    0.7292441715   -0.4979349000   -1.2910382302
 C    1.0993678208   -1.9871854992   -1.0655895170
 C    1.9482526186   -2.5295053351   -2.2162920555
 N    1.2578876692   -3.2033895372   -3.1838721415
 O    3.1509950850   -2.3617069842   -2.2514811488
 C   -0.1948027136   -0.3864265761   -2.4260736458
 N   -0.9402194101   -0.3417525754   -3.3092260746
 H    0.7247105236    2.2077598539   -0.4327539760
 H   -0.9126518013    1.8143573402   -0.9784431704
 H   -0.5864284955    2.0522775792    0.7435850841
 H    0.8471433343    0.0009509058    0.7873921458
 H   -0.7822417559   -0.3936564084    0.2542917419
 H    1.6490483506    0.0373003526   -1.5589361409
 H    1.7112472659   -2.0512905249   -0.1632938330
 H    0.1894405809   -2.5758184277   -0.9132445109
 H    0.2585332538   -3.1044058535   -3.2616012670
 H    1.7627091528   -3.4193085715   -4.0301723399