18

 C    0.0756743755    1.4685638595    0.1150603506
 C    0.2072289608   -0.0141758540    0.0197542114
 C    0.0168751925   -0.9581370658   -1.0959638270
 C    0.5405971852   -2.1015217683   -0.1993034450
 C   -0.8465130946   -2.2541798474    0.4097093102
 C   -0.5705084501   -2.4460383317    1.9341519750
 C    0.4909615596   -1.3601756468    2.1148710958
 C    0.9201280573   -1.0338336478    0.8782028994
 N   -1.1465630873   -0.8274291148   -0.1479313576
 H    1.0204899518    1.9580789540   -0.1428427064
 H   -0.6998534558    1.8232361508   -0.5687697706
 H   -0.2010647653    1.7722249832    1.1301522735
 H   -0.0713193277   -0.8263193402   -2.1673342188
 H    1.2218106891   -2.9114801395   -0.4573072962
 H   -1.5799999367   -2.9312503227   -0.0368003443
 H   -1.4173632714   -2.2236356176    2.5935545949
 H   -0.2878209762   -3.4924047587    2.1188100981
 H    0.4205118034   -0.6483437922    2.9316159472