18

 C   -0.5659123562    1.4279371762   -0.0257423381
 C    0.0731761077    0.0643586889   -0.1258142934
 O    1.2801790993    0.0459316029   -0.9425776474
 C    2.0218200974   -0.6496458930    0.0633094921
 C    2.8352863747    0.2568614860    1.0092895446
 N    1.6174700271    0.5122911473    1.8347955455
 C    0.8511797858   -0.5032449285    1.0963782712
 C    0.2869640181   -1.6325106488    1.8847615656
 O    0.4790144101   -1.7790834254    3.0687135866
 H   -0.7820313773    1.8089260946   -1.0285088553
 H   -1.5090022572    1.3658764478    0.5278863845
 H    0.1012407390    2.1206275734    0.4908114745
 H   -0.6350490514   -0.6810118435   -0.5181753229
 H    2.4581913637   -1.5860932035   -0.2918331968
 H    3.6256794412   -0.2918175030    1.5356776633
 H    3.2575626784    1.1527311205    0.5448370467
 H    1.7164838493    0.2444284759    2.8091564234
 H   -0.3252438597   -2.3561646779    1.3026413357