17

 C   -0.0654165919    1.4850600025   -0.1057265369
 N    0.0038389083    0.0321148855   -0.0769896549
 C   -1.2400826824   -0.7012351355    0.1022870212
 C   -1.0896630344   -2.1089756815   -0.4630150144
 C    0.1334766509   -2.7513856196    0.1162166738
 N    0.1825377123   -3.9533762845    0.4910305516
 O    1.2445325147   -1.9345180614    0.1899892695
 C    1.2314344816   -0.5580702853    0.0111477590
 O    2.2893621194    0.0124809721   -0.0388822734
 H    0.9392503802    1.8749844080   -0.2570635807
 H   -0.7156123214    1.8144848635   -0.9236124803
 H   -0.4661284812    1.8793025077    0.8370518087
 H   -1.5278424356   -0.7372492634    1.1639975428
 H   -2.0312529119   -0.1627366562   -0.4282863468
 H   -1.9550787474   -2.7336940096   -0.2426680766
 H   -0.9742679665   -2.0488865778   -1.5521641801
 H    1.1169360653   -4.1824845643    0.8365320474