18

 O   -0.0887307548    1.3605169778    0.0676392419
 C    0.0192941958   -0.0300858316    0.0570528782
 C    0.8724136984   -0.7448380863    1.0971929497
 N    0.6064861721   -2.1441458451    0.7470749579
 C    0.3720141268   -2.1768043833   -0.7229633433
 C   -0.7833915183   -2.1853059809    0.2201794203
 C   -1.3527108744   -0.7747951213   -0.0127592100
 C   -1.2856701447   -0.6086966275   -1.5600799631
 C    0.2445662237   -0.7665297318   -1.3191526105
 H    0.7723564616    1.7330113178   -0.1507366975
 H    1.9432157079   -0.5270260019    1.0053767460
 H    0.5507734664   -0.5361090116    2.1226204269
 H    0.7453266213   -3.0317696946   -1.2725205266
 H   -1.3928198597   -3.0454413851    0.4663528174
 H   -2.2055852337   -0.4492660064    0.5814790979
 H   -1.7883391357   -1.3546280559   -2.1812676865
 H   -1.5541410975    0.4015474988   -1.8775857500
 H    0.9947834947   -0.4364516311   -2.0387650587