21

 C   -0.0092584767    1.5015563576    0.0447860307
 C   -0.0008285667    0.0033948074   -0.0147513182
 C   -0.0073340143   -0.7112166327   -1.1436723529
 C   -0.0036721130   -2.2213085906   -1.0756215966
 C    0.0147996338   -2.6949691304    0.3875416684
 O   -0.0537849314   -4.0928750003    0.5110448879
 C   -1.0458106064   -1.9222024869    1.2036419488
 C    0.0164532554   -0.7818043032    1.2870044549
 C    1.0966147937   -1.9022248731    1.1837593594
 H    0.8712465872    1.8815057813    0.5794365703
 H   -0.0199332550    1.9467860851   -0.9538938758
 H   -0.8855533143    1.8710613061    0.5934447734
 H   -0.0202577860   -0.2353560531   -2.1205771519
 H   -0.8855014555   -2.6427404012   -1.5782859675
 H    0.8734430351   -2.6279569891   -1.6050576275
 H    0.5781413181   -4.4832194980   -0.1028612007
 H   -2.0049178362   -1.6990532414    0.7301914394
 H   -1.2010533729   -2.4065767841    2.1709857549
 H    0.0175037332   -0.1430185935    2.1709846154
 H    1.2806695444   -2.3837496332    2.1476151812
 H    2.0408542674   -1.6564063264    0.6904507763