17

 C   -0.0885259623    1.5485815433    0.0544102206
 C    0.0032385928    0.0475291781   -0.0773665143
 C    0.7106444289   -0.6556443690   -1.1753223092
 C    1.7584608449    0.1063176349   -2.0103169841
 N    2.8008193685    0.5159430051   -1.0265339065
 C    2.4355161474    0.0564943323    0.1026969731
 N    1.2569230919   -0.7315131231    0.2060807258
 C    2.3203583610   -0.7170482493   -3.0765674517
 C    2.7587729943   -1.4112303364   -3.9531799350
 H    0.8005611989    2.0636567574   -0.3145756347
 H   -0.9530651150    1.9089233168   -0.5134758855
 H   -0.2379321928    1.8341790450    1.1006185459
 H   -0.8604685977   -0.4750805272    0.3285328764
 H    0.3075687703   -1.5758092145   -1.5838378251
 H    1.3468348604    1.0213061749   -2.4571215713
 H    3.0114976278    0.2214575969    1.0090012777
 H    3.1576128707   -2.0170514850   -4.7289484421