12

 O   -0.1207200111   -0.0047491419    0.0010362540
 C   -0.0183819481    1.1946647120    0.0079558779
 C    1.2595747326    1.9382899456    0.0008625792
 C    1.3879479077    3.2728595795    0.0105982606
 C    2.8448578876    3.6390114002   -0.0012126043
 O    3.3370714352    4.7386878062    0.0029717435
 N    3.5165566802    2.4216598785   -0.0177315354
 C    2.6464789040    1.3253278175   -0.0180390125
 O    2.9705628085    0.1699660359   -0.0312782070
 H   -0.9106589228    1.8589248320    0.0208281656
 H    0.6086631006    4.0234475929    0.0246181917
 H    4.5208200056    2.3324473516   -0.0289041932