19

 C   -0.5994655283    1.1946637792    0.1734208987
 C    0.2304240878   -0.0574550868   -0.0199145234
 C    1.0312246620   -0.2126357860   -1.3310467975
 C    2.2766384764   -0.2772814173   -0.4050404053
 O    1.4520224386   -0.0361743474    0.7650211578
 C    2.9979632119   -1.5387268439   -0.3643189336
 C    3.5939806951   -2.5866674589   -0.3465436067
 C    4.3478089617   -3.8365414860   -0.2670298226
 O    5.7266617545   -3.6538680200    0.0213882280
 H   -0.0262260112    2.0873535296   -0.0960876894
 H   -1.5010722115    1.1563554720   -0.4480937052
 H   -0.9096688636    1.2887224749    1.2188469313
 H   -0.3621330700   -0.9478356459    0.2310016020
 H    0.8363686855   -1.1113438292   -1.9152478407
 H    1.0095832313    0.6633778007   -1.9818801799
 H    2.9889553645    0.5454390362   -0.5463067570
 H    3.8666694124   -4.4988704533    0.4706957658
 H    4.3118977350   -4.3598391748   -1.2291938623
 H    5.7847710781   -3.0957090331    0.8039647400