16

 O    0.0997078892   -0.0726791407   -0.1074446757
 C    0.0336463440    1.1358499586   -0.0351799289
 C   -1.2963057763    1.8717322205    0.1492512705
 C   -1.5402293271    2.6485223205    1.4418398176
 O   -2.5328347446    2.4807044414    2.0924619204
 O   -0.6926049570    3.6458626181    1.8098855211
 C    0.6972806779    3.7528152789    1.4880630805
 C    1.1171335632    3.3761463882    0.0705793190
 N    1.1265027704    1.9453970394   -0.1648945325
 H   -1.4254695190    2.5780993440   -0.6810189285
 H   -2.0843556456    1.1245289419    0.0903031770
 H    0.9298587942    4.8067667088    1.6663332194
 H    1.2688004190    3.1493006839    2.2041726559
 H    0.4857940313    3.8963727378   -0.6616031894
 H    2.1357719691    3.7443010750   -0.0783841891
 H    2.0070615714    1.4639070538   -0.2666208473