23

 C   -0.0272418935    1.4770974530    0.2046965085
 C    0.0251890256   -0.0362999315    0.0617044406
 C    0.6967430344   -0.5024640597   -1.2357842171
 C    0.8310851134   -2.0312621765   -1.2622839640
 C    1.5074179302   -2.5329662166    0.0217864527
 C    0.7959205699   -1.9654439809    1.2504342840
 C    1.4864001726   -2.2815154205    2.5726783298
 O    0.8037253108   -1.6982480994    3.6628974902
 O    0.7370719433   -0.5399847166    1.1910786861
 H    0.9832213833    1.8974870497    0.1922708982
 H   -0.5978106026    1.9206819890   -0.6167472093
 H   -0.5035334945    1.7574244016    1.1483202524
 H   -1.0028179093   -0.4409296006    0.0883043724
 H    0.1182068207   -0.1486412302   -2.0967418634
 H    1.6897807689   -0.0384411917   -1.2976093103
 H   -0.1672246361   -2.4820897928   -1.3454581807
 H    1.3934356506   -2.3532619009   -2.1449997576
 H    1.5008240106   -3.6282453780    0.0627584431
 H    2.5565570084   -2.2107665612    0.0411478897
 H   -0.2352230175   -2.3589504330    1.2925537666
 H    1.4993964324   -3.3643304642    2.7357711404
 H    2.5318437990   -1.9346937638    2.5184025726
 H    0.6284605492   -0.7884162452    3.3923844548