20

 C    0.0298484366    1.4762925588   -0.0086134001
 C    0.0137481907   -0.0452424807    0.0295901976
 C    0.2680378795   -0.7414719899   -1.3512896768
 N   -1.0819720764   -1.3952046785   -1.3659387393
 C   -1.2372753095   -2.1531305251   -0.0938962072
 C   -0.1128046530   -2.8593665453    0.6590505061
 C    0.7856559185   -1.9225244525    1.4288905514
 C    0.8401050193   -0.6211246662    1.1530071780
 C   -1.3881790989   -0.6894002771   -0.0627426012
 H    1.0501136974    1.8521112076   -0.1460854675
 H   -0.5847543953    1.8589251780   -0.8295716507
 H   -0.3567041022    1.8970620773    0.9266472027
 H    0.3274011553   -0.0314709241   -2.1805928585
 H    1.1138959811   -1.4338688931   -1.4103560842
 H   -2.1627092816   -2.7215255162   -0.1333592000
 H   -0.5669809484   -3.5775314299    1.3532116079
 H    0.4785077490   -3.4719695445   -0.0376405105
 H    1.3873666484   -2.3520944543    2.2251202452
 H    1.4934028130    0.0448141505    1.7109092643
 H   -2.3252461435   -0.1699966651    0.1161000427