19

 C    0.3799858604    1.4287258038    0.0123870319
 C    0.2150075789   -0.0709182933    0.0551908873
 O    0.1455889537   -0.6947127698    1.0924459115
 C    0.1365673337   -0.7831601466   -1.2872857860
 N    0.2174765027   -0.0559521103   -2.3473910173
 N   -0.0021884673   -2.1318749429   -1.2388391080
 C   -0.2098918791   -3.1397425270   -0.1875534310
 C   -0.3541600282   -4.2075761040   -1.3088026866
 C   -0.1658598055   -3.0656559925   -2.3479174753
 H    1.2869903260    1.6916886840   -0.5385850846
 H   -0.4480380380    1.8827581839   -0.5386283679
 H    0.4220926110    1.8123172475    1.0323190079
 H    0.1557047993   -0.6216564765   -3.1961947836
 H    0.6421446474   -3.2627850606    0.4854041944
 H   -1.1028874244   -2.9701328447    0.4201226948
 H    0.4338779773   -4.9608812940   -1.3220610823
 H   -1.3236706703   -4.7043296199   -1.3492347259
 H   -1.0397377767   -2.8534365497   -2.9784651723
 H    0.7162476391   -3.1488384874   -2.9955963170