20

 C   -0.0674588174    1.5250894974    0.0179614204
 C   -0.0174698493    0.0293659088   -0.0676800692
 C    0.7660934156   -0.7810819549   -1.1158998063
 C   -0.1933354871   -1.9861863014   -0.8288254211
 O   -0.8190285737   -2.6054831037   -1.9166039217
 C    0.4254465900   -2.9011804310    0.2340792165
 C    0.6289009395   -1.9150857609    1.4087557372
 N   -0.2657409572   -0.7565491862    1.1580248868
 C   -1.0902025691   -1.0132054134   -0.0155246780
 H    0.9012528153    1.9316229133    0.3325825299
 H   -0.3142910047    1.9644848954   -0.9546526465
 H   -0.8175797981    1.8407900067    0.7475169993
 H    0.5803418572   -0.3874027039   -2.1188902434
 H    1.8435789756   -0.9257345536   -0.9704241195
 H   -0.1641438538   -3.1352592975   -2.3831959894
 H   -0.2790631403   -3.6997499771    0.4905789266
 H    1.3617661008   -3.3619944977   -0.1004191746
 H    0.3535098646   -2.3585527792    2.3694079512
 H    1.6640608026   -1.5695030015    1.4931311399
 H   -2.1727776105   -0.9663327597    0.0154845818