19

 C   -0.1218769591    1.4463526398   -0.0426062866
 C    0.0734201276   -0.0457729854   -0.0025839031
 O   -0.9848020489   -0.7568201364   -0.6171323984
 C   -1.6749472982   -1.5967364733    0.2840722959
 O   -0.8383481995   -2.5905415048    0.7913674388
 C    0.1438095285   -2.0475252533    1.6781666613
 C    0.7518054663   -0.7541998757    1.1654115793
 C    1.4205091280   -0.6972713003   -0.1986968270
 O    1.5319171812   -1.8385041185   -0.9815900912
 H    0.7585173145    1.9626065510    0.3514486691
 H   -0.2839025961    1.7799475880   -1.0727029331
 H   -0.9895754318    1.7481769789    0.5547001472
 H   -2.1105559865   -0.9958042356    1.1011165079
 H   -2.4617295827   -2.0898279964   -0.2897429459
 H   -0.3175035307   -1.8686099096    2.6616242910
 H    0.9029810647   -2.8265419833    1.7901977820
 H    1.1631440363   -0.1152728812    1.9419902656
 H    2.2857282437   -0.0492062014   -0.3061220994
 H    0.6316610826   -2.0906182727   -1.2313964436