19

 C   -0.2296425545    1.5380919439   -0.0104278376
 C    0.1003237503    0.0547744143    0.0800401460
 N    0.9576008624   -0.3867105973   -1.0321103394
 C    1.4349324980   -1.7202332834   -0.6813974248
 C    1.7740064012   -1.5722448851    0.8256398803
 C    0.9153792515   -0.3732310491    1.3227934618
 O    1.7174715891    0.7140888634    1.7566059409
 C    0.4253884946   -2.7812031786   -0.9115124500
 N   -0.3838253574   -3.5810755478   -1.1199651796
 H    0.6840509025    2.1334753823   -0.0189224833
 H   -0.7981857633    1.7466607369   -0.9227943491
 H   -0.8402449798    1.8487674496    0.8423098849
 H   -0.8407230527   -0.5226746553    0.1059626197
 H    0.4751822667   -0.3699428208   -1.9242923252
 H    2.3196082419   -1.9804994885   -1.2710824484
 H    1.5916083738   -2.4954191874    1.3779220676
 H    2.8276608247   -1.3046006841    0.9281180018
 H    0.2326757404   -0.6795662794    2.1255207008
 H    2.1532027905    0.4559290863    2.5742719235