16

 C   -0.1437585837    1.4442287376    0.0139737064
 N   -0.0538484387    0.0030955765    0.0286178357
 C   -0.0331276149   -0.7631860826   -1.1321562712
 O   -0.0430410064   -0.3656445591   -2.2835708675
 N   -0.0002445662   -2.0739962770   -0.6721889823
 C    0.1035914205   -2.0922906110    0.7307669126
 O    0.2225589697   -3.2477138095    1.4396408104
 C    0.0374734688   -0.8178066490    1.1643249110
 N   -0.0763772130   -0.2818211387    2.4546413007
 H    0.8028457362    1.9179601648    0.3026445844
 H   -0.3797013290    1.7377814949   -1.0101267539
 H   -0.9295836382    1.7865898339    0.6931341648
 H    0.2646139036   -2.8326339351   -1.2767948581
 H   -0.6198467381   -3.7213071087    1.4305429581
 H   -0.1467289024   -1.0336515264    3.1310364933
 H    0.7261477920    0.2884434493    2.7089671457