19

 C    0.4207767087    1.7676221957   -0.3265037134
 C    0.0549660443    0.3541078219    0.0840866123
 C    1.1035018759   -0.7316353246   -0.0311296267
 C    0.6857551422   -0.2078905809    1.3301459872
 N   -1.3489465296    0.0941605828   -0.1202902901
 C   -1.7001034028   -0.8136865007   -0.9291153995
 N   -3.0497632789   -1.0636590467   -1.1511242882
 C   -3.5256089280   -2.0333490871   -2.0019424922
 O   -2.8351476266   -2.7819025149   -2.6520840435
 H    1.4609573876    1.9913398002   -0.0729619169
 H    0.2948952439    1.9063171388   -1.4058720615
 H   -0.2244492044    2.4895599539    0.1838391228
 H    0.7999106026   -1.7402734290   -0.2870383500
 H    2.0811562121   -0.4584969304   -0.4137681529
 H    1.3755473663    0.4189673905    1.8854195016
 H    0.0740388195   -0.8602728731    1.9437998100
 H   -1.0438116728   -1.4634726003   -1.5100977303
 H   -3.7017052990   -0.4819034557   -0.6435554171
 H   -4.6316262110   -2.0486800906   -2.0222284919