15

 O    0.0545558304    1.3245815702    0.1222285733
 C   -0.0117357325   -0.0767451654    0.0498912019
 C   -1.4772596960   -0.5057193604    0.1883213078
 O   -2.2932175698    0.1219014049    0.8289817501
 N   -1.7632718479   -1.6850529993   -0.4428203851
 C   -3.0551239992   -2.3389292508   -0.2886120389
 C   -2.9255223145   -3.7431656640    0.0887802332
 C   -2.8063497941   -4.9045182799    0.3726573019
 H    0.9685492262    1.5730747890    0.2854569572
 H    0.4045432945   -0.4642960883   -0.8952526968
 H    0.5384633652   -0.5643228175    0.8714023129
 H   -1.0454844072   -2.1694058023   -0.9566669079
 H   -3.5909244547   -1.7688045855    0.4772727440
 H   -3.6427833571   -2.2593189426   -1.2133920286
 H   -2.7135130433   -5.9283324482    0.6392218950