12

 N    0.0501397394    1.2971040673    0.1657744512
 C   -0.0538002667   -0.0501767154    0.0619204025
 N   -1.1472953399   -0.7557450526    0.0283856223
 N   -0.6314683408   -2.0490309670    0.0104072878
 C   -0.9676341006   -3.3728260540   -0.0350841798
 N    0.1408973062   -4.0850763941   -0.0541267739
 N    1.2484549816   -3.2331036933   -0.0248354203
 C    0.7163729490   -2.0502847902    0.0131650671
 O    1.1284734729   -0.7472929679    0.0506403111
 H    0.8975254508    1.7051658250   -0.1981573130
 H   -0.7971656643    1.8065775639   -0.0329506557
 H   -1.9747717375   -3.7522391017   -0.0493876392