19

 C   -0.0668515662    1.6598219665    0.1158395233
 C    0.0920001706    0.1529352338    0.0397639368
 C    0.8899083880   -0.5872450967   -1.0822682975
 C    0.5278549604   -0.8231142252   -2.5142954359
 C    2.2305573890   -0.1046043411   -0.4628851273
 C    1.3073393303   -0.6166524173    0.6677264112
 O    0.9531472317   -1.7740144884   -0.1746296387
 C    1.5879339772   -0.8522603612    2.1132266606
 O    2.0850837733   -0.0248273730    2.8352826976
 H    0.8514967032    2.2050846074   -0.1131334864
 H   -0.8381113028    1.9925894826   -0.5875534089
 H   -0.3878574477    1.9580904614    1.1190190178
 H   -0.8429374140   -0.3703002949    0.2601312467
 H    0.5129474012    0.1245598136   -3.0618969748
 H    1.2564067925   -1.4860916224   -2.9904714218
 H   -0.4622466769   -1.2828342690   -2.5884956562
 H    3.0856166279   -0.7495671540   -0.6686960773
 H    2.4834721225    0.9549651651   -0.4956933649
 H    1.2758177797   -1.8551507171    2.4801733557