25

 C   -0.0213703414    1.5425272879   -0.0264875647
 C   -0.0057521528    0.0185721333    0.0933903356
 O    0.6052256721   -0.3962897549    1.3163221555
 C   -1.4020030569   -0.5910913808   -0.0735476492
 C   -1.3957377884   -2.1143235096   -0.0291553358
 O   -2.7290677657   -2.5636414554   -0.1588225893
 C   -2.8878163606   -3.9738339202   -0.2618738283
 C   -2.6807394611   -4.6759574718    1.0843795435
 C   -4.2876922132   -4.2095598592   -0.8193158548
 H    0.9848869453    1.9441524362    0.1199010378
 H   -0.3853430685    1.8600440537   -1.0089615471
 H   -0.6809675621    1.9847220842    0.7308924590
 H    0.6544942052   -0.3901095309   -0.6827155289
 H    0.0809342089   -0.0324075210    2.0389563414
 H   -2.0622404523   -0.2154132766    0.7206408870
 H   -1.8389768121   -0.2608822716   -1.0232189204
 H   -0.7765098914   -2.5151550888   -0.8511047124
 H   -0.9394186053   -2.4515142839    0.9113602644
 H   -2.1456760757   -4.3617602700   -0.9813144445
 H   -3.4010687285   -4.3020798715    1.8195096915
 H   -2.8244459554   -5.7561089599    0.9784832141
 H   -1.6732875025   -4.5131791268    1.4770875762
 H   -4.4072772697   -3.6994721544   -1.7787436207
 H   -4.4735674999   -5.2780099275   -0.9640314187
 H   -5.0410464781   -3.8179514804   -0.1281423514