15

 N    0.0191822361    1.2997547160   -0.0222168500
 C   -0.0357080205   -0.0652922635   -0.0074823053
 N   -1.1104255550   -0.7422542647    0.1499486559
 C   -0.8003092881   -2.1627184484    0.1669729917
 C    0.6925252900   -2.3073788891   -0.1550709162
 O    1.3034404037   -3.3068859194   -0.3970606592
 C    1.2660073209   -0.8583759062   -0.0991673822
 C    2.1509337959   -0.4856807403   -1.1841843401
 C    2.8645918126   -0.1531690499   -2.0925667985
 H    0.7878710175    1.7076529489   -0.5329523629
 H   -0.8703729270    1.7625812325   -0.1427811276
 H   -1.0092297614   -2.6163047312    1.1466855867
 H   -1.4004413326   -2.7190882024   -0.5634647316
 H    1.8023586321   -0.7721071434    0.8583965025
 H    3.5044012058    0.1197545313   -2.8953265933