21

 C    0.0491592824    1.5705577462   -0.1805746794
 C    0.0081931490    0.0530651241    0.0177786030
 C   -1.4108267220   -0.5217662330   -0.0307387304
 C   -1.4508463308   -2.0501440718    0.1662088200
 C   -2.8255687308   -2.6340623594    0.1469789835
 C   -3.6048146715   -3.2076373074    1.1202375315
 N   -4.8318056317   -3.5879472443    0.6231121508
 C   -4.8056667690   -3.2502901256   -0.6435147106
 N   -3.6183854208   -2.6693658669   -0.9859472987
 H    1.0742960573    1.9512218713   -0.1375969495
 H   -0.3708554280    1.8551503233   -1.1518274371
 H   -0.5305205566    2.0865093310    0.5926888437
 H    0.6240827507   -0.4350514772   -0.7495270264
 H    0.4676514738   -0.2038489189    0.9814473468
 H   -2.0316961732   -0.0484338565    0.7400619204
 H   -1.8751289946   -0.2623851024   -0.9924844769
 H   -0.8228214279   -2.5268890156   -0.6002828361
 H   -0.9936611642   -2.3020301005    1.1294630615
 H   -3.3434115109   -3.3694499194    2.1556898848
 H   -5.6014380223   -3.3976818760   -1.3587027961
 H   -3.3604285990   -2.3324695712   -1.8984215548