16

 C    0.7185527334    0.8426435917    0.2769261189
 N   -0.3721644739    0.3615982028   -0.5698170400
 C    0.0512638960   -0.5387707892   -1.6156090128
 C    0.4703349634   -1.9262203715   -1.1415818542
 O    0.2920293051   -2.3734331517   -0.0416318013
 O    1.0559831877   -2.6184179718   -2.1725204178
 C    1.4513004924   -3.9151297018   -1.9446279465
 N    1.9872003120   -4.5410464582   -2.8938639773
 H    1.2964485416    0.0460878882    0.7704812903
 H    1.4074472771    1.4415054991   -0.3294491973
 H    0.3069874675    1.4958816194    1.0511321962
 H   -1.0634901112   -0.1054146020    0.0077481987
 H   -0.7592150172   -0.6905132728   -2.3417977481
 H    0.8803831863   -0.1009871865   -2.1823309448
 H    1.2417716976   -4.2494828792   -0.9283995664
 H    2.2299998120   -5.4836395765   -2.5916890076