21

 C   -0.1172397020    1.5683002788    0.0625447333
 C   -0.0045557064    0.0446260951    0.0094438459
 C   -1.3668236259   -0.5980840458   -0.2589091431
 C    1.1083830723   -0.5493870455   -0.9415666312
 C    1.7343568002   -1.2680561476    0.2457356895
 O    2.2499116845   -2.5402688132    0.0800924536
 C    2.1779600276   -0.2670648115    1.2806147767
 C    0.7072439607   -0.6560642640    1.1879360835
 O    0.0522614577   -1.2496174031    2.2559171066
 H    0.8468385717    2.0450472917    0.2654120342
 H   -0.4893175163    1.9665416005   -0.8882503062
 H   -0.8178669046    1.8834360110    0.8449320563
 H   -1.7745614585   -0.2519919278   -1.2150989221
 H   -1.2908680993   -1.6891106959   -0.2918770087
 H   -2.0829237502   -0.3428848274    0.5290354912
 H    0.6946667799   -1.2419991250   -1.6776944021
 H    1.7529519486    0.1755089163   -1.4491426802
 H    2.5085597660   -2.8823151775    0.9423442789
 H    2.6615793766   -0.7150722752    2.1462972146
 H    2.5560894744    0.7204473032    1.0199073936
 H   -0.0336208169   -0.6000109870    2.9629022358