16

 C   -0.0780763390    1.1737943690   -0.1950146474
 C    1.4313966758    1.4639077713   -0.1029614250
 C    1.4898803129    0.1647476407    0.7346505458
 O    0.0732057819   -0.0743701132    0.5140041599
 C    2.3516274380   -0.9520406750    0.2436835322
 N    2.5541690904   -1.1908532913   -1.0457664469
 N    3.3451755426   -2.2843485478   -1.0145742447
 C    3.5887092149   -2.6523173297    0.2598562869
 N    2.9766872936   -1.8295361313    1.0864973753
 H   -0.7257527132    1.8732724512    0.3486882690
 H   -0.4820075847    1.0244770202   -1.2028131183
 H    1.9658284881    1.3965242211   -1.0501603478
 H    1.7205563552    2.3745977605    0.4228746262
 H    1.6979258790    0.3073609304    1.8008719867
 H    3.6642914573   -2.6987496367   -1.8752165215
 H    4.2023214073   -3.4999337494    0.5256385894