17

 C    0.0071433561    1.5292032946   -0.0007912867
 C    1.4583561842    2.0541139415    0.0417400421
 N    2.2181589356    1.6244053916    1.2321794922
 C    1.8809318157    0.3298451281    1.5824983105
 C    0.9376101368   -0.4853610082    1.0496670423
 C   -0.0456677670   -0.0156755370    0.0278443024
 N    1.0552744744   -1.7429086614    1.6392237456
 C    2.0259434425   -1.6106692510    2.4793534349
 O    2.6007703833   -0.3698109045    2.5051826583
 H   -0.5394894824    1.9276397014    0.8626635950
 H   -0.4868139108    1.9133107343   -0.8989721008
 H    1.9984305923    1.6949395479   -0.8432789491
 H    1.4762440651    3.1463678191    0.0097327115
 H    2.1628281583    2.2825851846    2.0015530343
 H   -1.0577384998   -0.3574905161    0.2703218703
 H    0.1877052450   -0.4255915533   -0.9641527979
 H    2.4290755410   -2.3363125115    3.1671423350