25

 C   -0.0870896456    1.4609285735   -0.1214704555
 C    0.0744953589   -0.0429275971    0.0329879322
 C   -1.0600653398   -0.8027254443   -0.6357045882
 C    1.4671185303   -0.6341151311   -0.0325575912
 C    0.7228933393   -0.6273358593    1.2887033297
 C    1.2140596934    0.3128089601    2.3817062169
 C    0.1910424750   -1.9126018981    1.8790942536
 C    0.3747933671   -3.2843990038    1.2805557665
 C    1.1307721643   -2.9050823823    2.5265331241
 H    0.7681893991    2.0252416521    0.2551582861
 H   -0.2031893036    1.7179242953   -1.1812846923
 H   -0.9822844506    1.8215296665    0.3999664617
 H   -1.1115657743   -0.5479280379   -1.7011953670
 H   -0.9458472817   -1.8842201463   -0.5550173186
 H   -2.0267064205   -0.5350068684   -0.1911251379
 H    1.5998910638   -1.5706958109   -0.5644419584
 H    2.3076344178    0.0461687801   -0.1351465732
 H    1.6689532348    1.2229814650    1.9861045950
 H    0.3921296290    0.6115116656    3.0437505398
 H    1.9656195236   -0.1883453849    3.0009751572
 H   -0.7505825877   -1.7759834386    2.4087688761
 H   -0.4471350662   -3.9875694550    1.3649127746
 H    0.9435381373   -3.3841698301    0.3631173023
 H    2.1952564879   -2.7226684231    2.4201839185
 H    0.8476264586   -3.3570268172    3.4707436481