21

 C   -0.0474601695    1.5746591575    0.1297535028
 C   -0.0213029942    0.0413977348    0.0527119004
 C    0.6638262190   -0.5219927102    1.3198345318
 O    0.8935240736   -1.9163153665    1.2624248695
 C   -1.4648919369   -0.5099922485   -0.0401218543
 O   -2.3061680603   -0.0626040501    1.0108404617
 C    0.7099814999   -0.4539238479   -1.2345426316
 C    2.2071285847   -0.2650631927   -1.1998427449
 O    2.9546549041   -0.9824963703   -0.5717170469
 H    0.9590022261    1.9945153780    0.2335158280
 H   -0.5023880781    2.0072148976   -0.7680000803
 H   -0.6433048737    1.8964151293    0.9875381888
 H    1.5960573416    0.0255608169    1.5128734916
 H    0.0101070402   -0.3349608382    2.1798905939
 H    1.6977450510   -2.0302080725    0.7361646426
 H   -1.9280993588   -0.1607586677   -0.9706957135
 H   -1.4212864063   -1.6062777139   -0.0729988596
 H   -2.1663419409   -0.6357668901    1.7698707235
 H    0.5271756168   -1.5285396616   -1.3438451839
 H    0.2923797017    0.0597147561   -2.1068757503
 H    2.6212777499    0.5845458203   -1.7830843792