19

 C    0.0451548697    1.5952389443   -0.0179254372
 C    0.0298577939    0.0633446237    0.0287513290
 C    0.7072868572   -0.6125799875   -1.1965321758
 C    1.4669932858   -1.8155841222   -0.6263432779
 C    1.3432203517   -3.1891746329   -1.1930230369
 N    2.6027931455   -2.4360166265   -1.3305018729
 C    1.5749853214   -1.5471369761    0.8333876854
 C    0.7938869154   -0.5310088029    1.1964883467
 H    1.0722893810    1.9730555358   -0.0673725775
 H   -0.4955825588    1.9690138164   -0.8940401655
 H   -0.4276002102    2.0234946042    0.8724501840
 H   -1.0201793180   -0.2599820823    0.0923438844
 H   -0.0034186641   -0.8844086514   -1.9820502348
 H    1.4300472171    0.0883852651   -1.6345921197
 H    1.4001162595   -4.0591052888   -0.5434472845
 H    0.7088079804   -3.3193773081   -2.0668727066
 H    2.6718570361   -2.0495859677   -2.2697135670
 H    2.2018749703   -2.1477464747    1.4818863911
 H    0.6721901362   -0.1615054583    2.2094241256