18

 C   -0.1448001528    1.3851876533   -0.0033524742
 O    0.0040527736   -0.0165865316   -0.0133739939
 C    0.6099979776   -0.4948707584   -1.1917719725
 C    0.6941223615   -2.0170040190   -1.0777423468
 C   -0.6962305628   -2.6793077290   -0.9792603359
 C    1.4793873686   -2.5914707926   -2.2353283713
 O    1.8701173995   -1.9723359692   -3.1933122391
 C    1.7633817813   -4.0445719080   -2.1372300135
 N    1.9918050307   -5.1748895446   -2.0516802024
 H    0.8269113550    1.8974630127   -0.0758753353
 H   -0.7798288251    1.7328106255   -0.8327540471
 H   -0.6180909467    1.6551068115    0.9433491617
 H    0.0235854724   -0.2136956527   -2.0814756640
 H    1.6152553378   -0.0648108733   -1.3209489975
 H    1.2489813812   -2.2664938793   -0.1618386395
 H   -1.2793796728   -2.4941720396   -1.8872297754
 H   -0.6182997774   -3.7595281861   -0.8320330972
 H   -1.2299549818   -2.2458586097   -0.1323546562