21

 C    1.0268466161    1.4142816643   -0.1805690566
 O    1.1000125247    0.0158906626   -0.0511049445
 C    0.0342182758   -0.6523896949   -0.6899307713
 C    0.1930895310   -2.1557300656   -0.4585427050
 C    0.0760338702   -2.5139347178    1.0217698628
 N   -0.8504198385   -2.8401352241   -1.2229754386
 C   -0.5459414154   -3.1494640602   -2.6168018266
 C   -0.5819863579   -4.2253852281   -1.5890251737
 H    1.0604036124    1.7299595087   -1.2357594478
 H    0.1049550030    1.8191431318    0.2665824961
 H    1.8882381894    1.8384812605    0.3414538116
 H   -0.9379168852   -0.3178729777   -0.2909258944
 H    0.0360629990   -0.4362007483   -1.7715454614
 H    1.2006939364   -2.4391864613   -0.8164744917
 H    0.2565993429   -3.5811017387    1.1823171186
 H    0.8043498693   -1.9441175240    1.6027340765
 H   -0.9289457640   -2.2803476763    1.3880674387
 H   -1.3639584792   -3.0268971589   -3.3209047970
 H    0.4331983280   -2.8664877301   -3.0012329025
 H    0.3736022327   -4.6557717552   -1.2923328424
 H   -1.4259805005   -4.9064186269   -1.5267705409