15

 O    0.0361188579    1.3933940264   -0.1004356007
 C    0.0818964052   -0.0319775044   -0.1174050352
 C   -1.3452677097   -0.5506437564   -0.0242965185
 O   -2.1540224797    0.0076699213   -1.0282917219
 C   -1.6271299049   -2.0542002793    0.1319738064
 O   -0.9903652778   -2.4439441367    1.3419602516
 C   -2.3280083109   -1.8932632519    1.4327196536
 C   -2.0666728079   -0.3912904872    1.3771845104
 O   -2.3717884818    0.5625229998    2.0307994255
 H   -0.2932748235    1.6644843866    0.7658078211
 H    0.5261854030   -0.3101027030   -1.0789050815
 H    0.7000175435   -0.4404878407    0.6901247717
 H   -1.8554026419    0.9252117120   -1.1136267032
 H   -1.7997607702   -2.7934495384   -0.6399181652
 H   -3.0862018412   -2.4962833279    1.9171200758