18

 N    0.0658487796   -1.2404208659    0.4972518550
 C    0.0512416592   -0.1043229100    0.2824257640
 C    0.0446417706    1.3357708890    0.0198228826
 C   -0.6745669708    2.1160217489    1.1490391517
 C    0.4166450191    2.2758026240    2.2214031961
 C    1.6981701190    2.5739836684    1.4155655516
 C    1.4780380235    1.9186663098    0.0477460683
 C    2.5387344829    1.4279746930   -0.8344621416
 O    1.8635252495    2.6628479747   -1.1059560639
 H   -0.3985020814    1.5058403012   -0.9650436717
 H   -0.9677690652    3.0941357177    0.7530611954
 H   -1.5733036042    1.6114018636    1.5081710132
 H    0.1822340702    3.0581221604    2.9467511982
 H    0.5256430687    1.3371030088    2.7752064515
 H    1.8218274535    3.6495693033    1.2530517711
 H    2.6028373093    2.2103359263    1.9087094466
 H    3.5783083485    1.5223773659   -0.5244314553
 H    2.3344204580    0.6170090009   -1.5323479928