15

 C   -0.0327391804    1.4560349465    0.0655038797
 C    0.0587480126   -0.0329490228   -0.0757520849
 C   -0.5817370461   -0.8996145185   -1.1590487124
 C   -0.4158973260   -2.0351562889   -0.1316008427
 N   -0.3289911945   -0.9658052598    1.0165511011
 C    1.1451077936   -0.8273873115    0.6060136423
 C    1.0980911946   -2.2017218501    0.0240896428
 O    1.8652568168   -3.1153851038   -0.0720743250
 H    0.5977366508    1.9562661780   -0.6770541350
 H   -1.0650793834    1.7907290006   -0.0789949854
 H    0.2907380984    1.7725775690    1.0612926116
 H   -1.6316772466   -0.6209508208   -1.2885018330
 H   -0.1005928069   -1.0061504450   -2.1358660364
 H   -1.0995813282   -2.8758887334   -0.0506555496
 H    1.8839154152   -0.3711534696    1.2526374468