18

 O    0.5030726024    0.5798076326   -0.8283908179
 C   -0.0106531510    0.3438783321    0.4775678447
 C   -1.3991601858   -0.2793246550    0.4411041029
 C   -1.6125158984   -1.7070387529   -0.0595914309
 C   -1.4734359668   -2.6548857401    1.1458409973
 C   -1.1777077958   -1.8076827506    2.3807393403
 C   -2.1200410772   -0.7473443149    1.7440947463
 C   -2.7659485882   -1.9176123470    0.8899482557
 H   -0.1052259881    1.1756540934   -1.2775074862
 H    0.7089114480   -0.3298376686    0.9503620511
 H   -0.0315001145    1.2721451066    1.0739574055
 H   -2.0772023882    0.3925115183   -0.1044226070
 H   -1.5089462987   -2.0801980142   -1.0699805394
 H   -1.2744185838   -3.7081831359    0.9944799028
 H   -1.6357966883   -2.2479193916    3.2710913890
 H   -0.1457143858   -1.5212191327    2.6117672049
 H   -2.6520508502   -0.0311771645    2.3674724012
 H   -3.7807169196   -2.2547790648    0.7384458098