21

 C   -0.1371866977    1.6418878019   -0.2750579328
 C    0.0061617950    0.1892945557    0.1954813011
 C   -1.3284157465   -0.5322491713    0.2225943451
 C   -1.8997545256   -1.2146018085   -0.9991961934
 C   -1.5021419637   -2.0353042126    0.2051922833
 C   -0.3855127513   -3.0884116712    0.1840814100
 N   -0.8654777229   -4.4711245104    0.0279493341
 C    0.6146585951   -2.8537482584   -0.8714474661
 N    1.3816249418   -2.6754378246   -1.7170830546
 H    0.8300359271    2.1532615959   -0.2733751585
 H   -0.5406374413    1.6865975612   -1.2918332892
 H   -0.8148296983    2.2055165508    0.3761077807
 H    0.7120352503   -0.3332899114   -0.4555573346
 H    0.4442660078    0.1757484815    1.2025112183
 H   -2.0646354336   -0.0272735399    0.8458378446
 H   -2.9530918755   -1.1030227437   -1.2315834302
 H   -1.2545525458   -1.2772661352   -1.8705795258
 H   -2.3213770980   -2.3984301014    0.8220614331
 H    0.1534812395   -3.0513709625    1.1400097527
 H   -1.4734255461   -4.6949570731    0.8107019175
 H   -1.4383787305   -4.5331657628   -0.8099776652