13

 N    0.0025044487    1.2713272690    0.0567306442
 C   -0.0240449165   -0.0735081214    0.0164207146
 N   -1.1342699521   -0.7593409325    0.0162076792
 C   -0.7252963176   -2.0870747449   -0.0012829394
 N   -1.3079693421   -3.2486617504   -0.0111655553
 O   -0.2383300519   -4.1491104561   -0.0327789860
 N    0.9948244740   -3.5039238269   -0.0356656175
 C    0.6889854460   -2.2506546177   -0.0159360030
 C    1.2939857951   -0.8845604747   -0.0039629989
 H    0.8586772127    1.7807944206   -0.0652008267
 H   -0.8686718481    1.7734014767    0.0007579834
 H    1.8944028474   -0.6563419302   -0.8906311739
 H    1.9059874746   -0.6761436016    0.8793090595