19

 C   -0.4039450475    1.3893358320    0.1940643489
 O    0.9433237497    0.9643659375   -0.0593915640
 C   -0.0637142357   -0.0265956178    0.0542699059
 C   -0.0224076921   -1.1399194646    1.1026774458
 C   -0.4298596378   -2.1593298032   -0.0042768092
 C   -1.8989782625   -2.5954351540   -0.0135618708
 O   -2.6318191446   -1.4988732658   -0.5508092878
 C   -1.8339524559   -0.9646504568   -1.6012721174
 C   -0.3972955077   -1.0081889744   -1.0782267931
 H   -0.5857025240    1.8041279960    1.1850058925
 H   -0.8866471341    1.9212661031   -0.6252081441
 H    0.9823004993   -1.2991411559    1.5022667224
 H   -0.7258755022   -1.0397274077    1.9343408080
 H    0.2581258266   -2.9933419545   -0.1430912118
 H   -2.0251860551   -3.4895706014   -0.6463602069
 H   -2.3064505468   -2.8129372423    0.9779659718
 H   -1.9285374472   -1.5771948792   -2.5135354454
 H   -2.2020038004    0.0414701407   -1.8202986194
 H    0.3613258479   -1.0614025917   -1.8607431955