15

 O   -0.0584596690   -0.0188410028    0.0074049250
 C   -0.0156933300    1.1718845283    0.0043387972
 O    1.1443713598    1.8580992490   -0.1040552095
 C    1.0948754458    3.2740911389   -0.1341663211
 C    2.1730554072    4.0031480034    0.6598033801
 C    3.5125356316    3.6757327047    0.1054812225
 C    2.6769356137    4.7170064778   -0.6312851145
 C    1.6237209899    4.0039342524   -1.4177665116
 O    1.2049521434    4.0706335983   -2.5354196978
 H   -0.8972649156    1.8359852517    0.0934123588
 H    0.0811735301    3.6328468190    0.0858819126
 H    2.0267726596    4.4562195637    1.6308434196
 H    4.3614745092    4.0934148289    0.6356511426
 H    3.6959984198    2.7053886138   -0.3428375711
 H    3.0249903643    5.7311212428   -0.7745417630