10

 O    0.0321430386   -0.0145451585    0.0027463286
 C    0.0496305716    1.1847806396    0.0089201826
 N   -1.2087390250    1.9049503045    0.0290408490
 N   -1.2975101674    3.1180240315    0.0367583204
 O   -0.0375719316    3.9204819111    0.0249064491
 N    1.1666423520    3.3446220544    0.0061869501
 C    1.2399332253    2.0394332525   -0.0019336787
 C    2.5273688082    1.4462431299   -0.0213721693
 C    3.6028236835    0.9091310508   -0.0378484364
 H    4.5558120849    0.4381434443   -0.0524333453