23

 C    0.0795428805    1.5606361949   -0.0637910497
 C    0.0669793381    0.0443616424    0.0536267627
 O    0.7512496447   -0.5062036873   -1.0746182844
 C    1.1965384389   -1.8209035658   -0.7423588177
 C    2.3469693932   -2.1925448022   -1.6649809479
 C    1.5065331700   -1.7765618439    0.7558305152
 C    1.5853353878   -3.0774671814    1.5151739933
 C    2.2882482595   -0.5618058465    1.1965856889
 C    0.7791735005   -0.5538298768    1.2589212069
 H    1.1031814249    1.9436034538   -0.0243734484
 H   -0.3709589442    1.8731247166   -1.0102259730
 H   -0.4920697794    2.0101947213    0.7542212138
 H   -0.9797386502   -0.3089911461    0.0598323526
 H    0.3699182838   -2.5406038371   -0.8897429631
 H    3.1984692885   -1.5231654306   -1.5133078308
 H    2.6725884238   -3.2201532867   -1.4751550088
 H    2.0337801405   -2.1215274907   -2.7103523748
 H    2.4405594748   -3.6820913173    1.1906638917
 H    1.6990848902   -2.9009483046    2.5891693806
 H    0.6800269892   -3.6790174545    1.3695879193
 H    2.8231302715   -0.6354086490    2.1375334119
 H    2.7774205217    0.0509341261    0.4461986611
 H    0.2771201117   -0.5453857845    2.2202000208