17

 C   -0.2025791536    1.5183350180   -0.0069751015
 C    0.0438079886    0.0049212734    0.0771902877
 C    0.7775087630   -0.5130238078   -1.1276126520
 C    0.1048300026   -0.9497221637   -2.4382233124
 C    0.9882418718   -1.9060197217   -1.6981517543
 N    2.4069082875   -1.6037348373   -1.9185754819
 C    2.2458449304   -0.2753409917   -1.4723215931
 O    3.0116377422    0.6451339262   -1.4081225818
 H    0.7437639287    2.0541622704   -0.1218734752
 H   -0.8345378619    1.7657238187   -0.8661626944
 H   -0.6992328195    1.8844244083    0.8964271375
 H    0.6262105975   -0.2224232162    0.9784843476
 H   -0.9095128583   -0.5278180665    0.1809109647
 H   -0.9674488796   -1.1086870114   -2.3524520564
 H    0.4264817299   -0.5434281974   -3.3932099468
 H    0.6831940907   -2.8579415613   -1.2839370462
 H    2.9022994199   -1.8362979500   -2.7728968716