15

 O    0.1357970651    1.5072425987   -0.3656145897
 C    0.0578198153    0.1541883928   -0.1664525289
 C   -1.1447181729   -0.7877235076    0.1859190255
 C   -0.3776549018   -1.8434667435   -0.5286358939
 C    0.5916609367   -0.8134313573   -1.2458249305
 C    2.1265802172   -0.8315975835   -0.8906400066
 N    2.0533474297   -1.1218394801    0.5863258676
 C    0.8712328250   -0.7247335566    0.8380398091
 N   -0.2610970662   -1.6362677797    1.0188488553
 H    0.0867807608    1.9583510870    0.4848543823
 H   -2.2001561594   -0.6485251240    0.3730837158
 H   -0.6613596553   -2.8367284535   -0.8496492901
 H    0.3016252835   -0.6383740213   -2.2854075139
 H    2.7042758087   -1.6461421777   -1.3364076546
 H    2.5909924136    0.1203255163   -1.1829444072