17

 O   -0.0969029934    1.3627137313   -0.1442716712
 N    0.0269508240   -0.0303931022   -0.1041883929
 C   -1.0890554617   -0.6347441289    0.0515887246
 C   -1.0620059737   -2.1324385591    0.0940875716
 C   -1.7567220653   -2.7705828715   -1.1237804076
 N   -3.1753127744   -2.5338807910   -1.3179483834
 C   -3.7663424511   -1.4265259322   -1.2202753632
 O   -3.3532126604   -0.1773512039   -0.8563006326
 C   -2.4280765577    0.0348692084    0.2195834776
 H    0.8171180598    1.6430357294   -0.2592570135
 H   -0.0234703118   -2.4731227532    0.1261008708
 H   -1.5615822603   -2.4794225311    1.0085000800
 H   -1.2337461624   -2.4425534659   -2.0331752064
 H   -1.6165606612   -3.8548170163   -1.0615218756
 H   -4.8133157477   -1.3637321152   -1.5218154272
 H   -2.8869640661   -0.3322756145    1.1482829400
 H   -2.3148853666    1.1145376559    0.2814823692