13

 C    0.0498590298    1.4254915682   -0.0103054901
 N    0.0153197441   -0.0187472362    0.0555372607
 N   -0.1186667113   -0.7766659876   -1.0970380230
 N   -0.1292006418   -2.0316827783   -0.8286540939
 C   -0.0000811707   -2.1572948292    0.5415150302
 C    0.0801080897   -2.9866142452    1.6243970172
 O    0.2091346844   -2.2319707264    2.7264103531
 N    0.2204171694   -0.8487380943    2.4216143646
 C    0.0930318107   -0.8668868584    1.1128079471
 H    0.9951193388    1.8062021647    0.3870484301
 H   -0.0446559629    1.7042749603   -1.0599442521
 H   -0.7779867074    1.8564661236    0.5600403364
 H    0.0642470771   -4.0525776710    1.7829946797