18

 C   -0.3580413412    1.4142305831   -0.1988767735
 C    0.1847748769    0.0388019609    0.1760770896
 N    0.7012133087   -0.6308981853   -1.0252423385
 C    1.0277918979   -2.0171850081   -1.1065986994
 C   -0.1397921782   -1.4160624383   -1.9187067690
 C   -1.0528422856   -2.3427961911   -1.1620255684
 O   -2.1462152828   -2.7930098065   -1.3708107843
 C    0.0922037686   -2.8891511984   -0.2499175671
 O    0.2719934081   -4.2670948825   -0.4767483667
 H    0.4143039833    2.0114846213   -0.6908754505
 H   -1.2072590981    1.3246625666   -0.8838097382
 H   -0.6994136391    1.9467962612    0.6935593440
 H    1.0320135858    0.1405702443    0.8634366051
 H   -0.5918195921   -0.5336928331    0.7015976511
 H    1.9873394475   -2.3375306695   -1.4962926848
 H   -0.2162296108   -1.1351830749   -2.9634072324
 H    0.0719637316   -2.6540792945    0.8211404502
 H   -0.6057374005   -4.6673909055   -0.5115260571