17

 C    0.0012282428    1.5376591747    0.0713670807
 N    0.1140010084    0.0884764720   -0.0168134124
 C    0.7769919894   -0.5286941318   -1.1578235861
 C    2.2990416131   -0.6497873632   -0.8660685178
 C    1.2972422783   -1.6611024294   -0.3400540022
 C    1.0670800445   -0.6442593824    0.8421055372
 C    2.5056758256   -0.0522016254    0.5300638322
 C    3.5425340122   -0.7294148061    1.2908467771
 N    4.3595662945   -1.2616339461    1.9131844019
 H    0.9319539998    2.0880314923   -0.1368730532
 H   -0.7531471939    1.8750483977   -0.6464495716
 H   -0.3460122091    1.8082833005    1.0735819710
 H    0.3790413848   -0.5132165080   -2.1648452667
 H    3.0433667203   -0.7810878168   -1.6399826232
 H    1.2118325814   -2.7331343279   -0.4237614432
 H    0.7779257598   -0.8508274162    1.8703200412
 H    2.6357955082    1.0300839461    0.6294331350