18

 O   -0.0161552556    1.3221833442    0.5690042371
 C    0.0565209675    0.0537122135   -0.0487484827
 C   -1.3178491632   -0.6023566153   -0.0162110665
 C   -1.4637186621   -2.1559575542   -0.0866296688
 C   -1.1426065630   -2.0887506735    1.4348670260
 N   -1.8403731089   -0.7386311339    1.4151806458
 C   -3.2359543440   -1.1791865593    1.1359498144
 C   -2.9873514106   -2.2297694409    0.0176961617
 O   -3.7756206737   -2.8981554816   -0.5894608005
 H   -0.5109011126    1.1833649067    1.3883828156
 H    0.3591136010    0.2138733857   -1.0890024497
 H    0.8251043659   -0.5807528928    0.4170787467
 H   -1.9929440631   -0.0161680601   -0.6488345524
 H   -0.9771129004   -2.8064072018   -0.8107588588
 H   -1.5975847009   -2.8280962840    2.0992892203
 H   -0.0853418477   -1.9850264262    1.6727525563
 H   -3.7015463045   -1.6187532250    2.0222058139
 H   -3.8553073742   -0.3478118318    0.7893447317