25

 C   -0.0093572881    1.4035877443    0.0338034661
 O    0.0106963737   -0.0013128180    0.0045686932
 C   -1.2811844775   -0.5731847965   -0.0100825885
 C   -1.1568371894   -2.0932669485    0.0148215574
 C   -0.4504911881   -2.5867973045    1.2887993217
 C   -0.3372425764   -4.1169776780    1.3209725273
 C   -1.7104495706   -4.7851148328    1.1638548124
 C   -2.4254830612   -4.2960841473   -0.1035865688
 C   -2.5324574264   -2.7639927837   -0.1370866925
 H    1.0280288893    1.7478462172    0.0391521446
 H   -0.5182536080    1.8256584631   -0.8480181200
 H   -0.5155240353    1.7881115639    0.9341431991
 H   -1.8621158142   -0.2252724544    0.8636323142
 H   -1.8301575362   -0.2476264414   -0.9113851756
 H   -0.5387906158   -2.3781004287   -0.8495507901
 H    0.5360049015   -2.1209497369    1.3631075393
 H   -1.0248979972   -2.2475256869    2.1641091248
 H    0.3210600731   -4.4479316134    0.5054944346
 H    0.1391724314   -4.4406478114    2.2534345187
 H   -1.6055473645   -5.8758683498    1.1423891816
 H   -2.3291658474   -4.5487634973    2.0410827839
 H   -1.8675345166   -4.6364058022   -0.9870316808
 H   -3.4233917577   -4.7435428065   -0.1758417902
 H   -3.1876089951   -2.4298714181    0.6810054436
 H   -3.0107741831   -2.4394087423   -1.0694115960