17

 C   -0.1538286608    1.4242321609    0.0110179307
 C   -0.0723955064   -0.0828874973    0.0022205804
 O    0.6115992944   -0.4864808160   -1.1759543045
 C    0.9340042500   -1.8174659183   -1.2626786711
 N    1.4587168343   -2.3261334894   -2.2900442251
 C    0.6319226862   -2.6148084568   -0.0172817695
 C    0.9547485931   -1.8309058316    1.2314386037
 N    1.4964248522   -2.3505691461    2.2443959961
 O    0.6310750526   -0.4990898340    1.1644322557
 H    0.8540902220    1.8452865984    0.0048684740
 H   -0.6933594263    1.7705325282   -0.8730238486
 H   -0.6784888080    1.7609387272    0.9076268676
 H   -1.0722352782   -0.5409881592    0.0080720593
 H    1.5686222622   -1.6215314923   -3.0220718724
 H   -0.4402854003   -2.8591962939   -0.0096801669
 H    1.1833671036   -3.5515003416   -0.0269159613
 H    1.6185556695   -1.6538859882    2.9820438717