16

 C   -0.3048688357    1.3746704043   -0.7560734441
 C   -0.0510992311    0.0523534817   -0.0679734208
 C    1.1410131786   -0.7419365321   -0.4293446663
 O    1.1095967492    0.0114355192    0.7821173138
 C   -1.2318387418   -0.6412289221    0.4997161016
 C   -2.5528031012   -0.5105701175    0.2009906240
 O   -3.2953696001   -1.3321430954    0.9575433641
 N   -2.4557115469   -2.0417810552    1.8106925552
 C   -1.2473788104   -1.6264729755    1.5319444123
 H    0.6379653913    1.8140291113   -1.0886892977
 H   -0.9518900162    1.2414970154   -1.6298047838
 H   -0.7929680244    2.0767508818   -0.0731679056
 H    1.1216483074   -1.8243581140   -0.3115396959
 H    1.8186271499   -0.3689675886   -1.1968007062
 H   -3.0982049962    0.1006815408   -0.5006606099
 H   -0.4057326525   -2.0203081441    2.0827901191