17

 O    0.2869349066    1.3448659871    0.1456657871
 C    0.0262127232   -0.0013495183   -0.0072255065
 C   -1.3466686287   -0.6528275282    0.0451080860
 C   -2.5589258363    0.1895870232   -0.2721532970
 O   -2.2828372695    1.5673685365   -0.6358273553
 C   -2.5271920628    0.6138568446   -1.6783470395
 C   -1.2547840106    0.0653700787   -2.3361008384
 O   -0.4212081742    1.0633883779   -2.9032372338
 C   -0.5046261239   -0.6963766257   -1.2397070658
 H   -0.4525627644    1.8257652595   -0.2527659039
 H    0.7994161881   -0.5747941931    0.4976541626
 H   -1.5088556915   -1.5260335887    0.6670501960
 H   -3.4797865643    0.0546356224    0.2868406699
 H   -3.4125238663    0.8155135083   -2.2783559185
 H   -1.5692078979   -0.6598280063   -3.1045650506
 H   -0.9045833358    1.4949815408   -3.6157331744
 H   -0.0009550517   -1.6056907187   -1.5494455778