21

 C    0.3658024507    0.3428114407    0.6853254377
 O   -0.7317407233    0.1732949680   -0.2025943950
 C   -1.3496636603   -1.0240765229   -0.1361843354
 N   -2.3337329570   -1.2615075795   -0.8878773274
 C   -2.9874362267   -2.5537680794   -0.8039899440
 C   -2.0722349838   -3.8140152747   -0.8493564336
 N   -2.1645434575   -3.9043200469    0.6205530608
 C   -2.2241976871   -5.2090459964    1.2381216069
 C   -3.3746634538   -3.0599798785    0.6178684900
 H    0.7506708305    1.3482461496    0.5101936552
 H    0.0537193049    0.2561677163    1.7333481017
 H    1.1617634438   -0.3852210667    0.4861558610
 H   -0.9262389147   -1.7227430287    0.5991369741
 H   -3.8044351965   -2.5610462902   -1.5254858259
 H   -2.5558471408   -4.6579023628   -1.3689877743
 H   -1.0602007612   -3.6778972764   -1.2465686719
 H   -1.2786324034   -5.7394687637    1.0820204980
 H   -2.3756808495   -5.1043337397    2.3178890512
 H   -3.0408344534   -5.8398383599    0.8373896362
 H   -3.4229748371   -2.3099798968    1.4151673582
 H   -4.3116368937   -3.6413968212    0.6089664665