16

 O    0.1045765898    1.4568882830   -0.0369981016
 C    0.0701695722    0.0430192630    0.0278991083
 C   -1.3596172610   -0.5133821568   -0.1026665900
 C   -1.4052658451   -2.0076876072   -0.0547146096
 C   -1.6323197696   -2.9183750260   -1.0364577737
 O   -1.5657347710   -4.1758832141   -0.5723570381
 N   -1.2763022931   -4.1324249833    0.7940346327
 C   -1.1865383745   -2.8565711299    1.0743102661
 O   -0.9179598907   -2.4119498740    2.3140556612
 H   -0.3141462365    1.8005545739    0.7585942545
 H    0.6792361111   -0.3135293350   -0.8090218895
 H    0.5299680230   -0.3350411391    0.9527245040
 H   -1.9701507966   -0.1018694408    0.7120506005
 H   -1.7933289683   -0.1498287045   -1.0392971341
 H   -1.8564726341   -2.8184054036   -2.0879643265
 H   -0.8200115656   -3.1824208157    2.8896370757