19

 C   -0.0019522156    1.5220788830    0.0131684339
 C   -0.0152664816   -0.0138886756   -0.0113481384
 C   -1.4706083975   -0.5101569823    0.0563317917
 C    0.7019377694   -0.5268285184   -1.2788473062
 C    1.0899802938   -1.9896095033   -1.1151359189
 O    1.8586028792   -2.1900449085    0.0794253658
 C    1.5044198281   -1.4206010653    1.1372336940
 N    0.6804813944   -0.4648044397    1.2059311347
 H    1.0254974004    1.8981761268    0.0171828150
 H   -0.5173030196    1.9312518900   -0.8625301236
 H   -0.4982422460    1.8885166529    0.9158621091
 H   -2.0604909591   -0.0869312576   -0.7639492983
 H   -1.5311742055   -1.6010049609   -0.0025380562
 H   -1.9234396355   -0.2060046813    1.0038008166
 H    0.0720322393   -0.4086894227   -2.1673670780
 H    1.6111810348    0.0631570670   -1.4427064668
 H    0.2032096763   -2.6337974428   -1.0639648258
 H    1.7176946337   -2.3427156636   -1.9367740965
 H    2.0637696908   -1.7351468279    2.0173417179