14

 C    0.0186946511    1.4640647435    0.0261408957
 N   -0.0337564667    0.0175235030    0.0113821234
 C   -0.0161918827   -0.7958227997   -1.1017519655
 C    0.0269051026   -2.1246253480   -0.8164554190
 C    0.0511547439   -2.2445861571    0.6323588836
 O    0.0828164675   -3.2019021506    1.3769181408
 C    0.0258384431   -0.7864758792    1.1455629158
 N    0.0573770065   -0.3579217960    2.3369180044
 H    1.0500110909    1.8360786408    0.0509644294
 H   -0.4813749838    1.8585632007   -0.8619219881
 H   -0.4963614546    1.8219971358    0.9193499897
 H   -0.0447161735   -0.3279749232   -2.0781170528
 H    0.0279031509   -2.9348667262   -1.5269559532
 H    0.0916529848   -1.1706199637    2.9604142957