19

 C   -0.1738863866    1.3652280534   -0.0534893341
 C   -0.3625029742   -0.1028128693   -0.3901288323
 O   -1.2499293926   -0.6664611237    0.5748214658
 C   -1.4774319041   -2.0136227525    0.3914775775
 C   -2.7899841610   -2.5437948247    0.8712251534
 C   -2.5236642324   -2.4588091658   -0.6326502295
 O   -3.1246718087   -1.4099419495   -1.3385570188
 C   -2.3049878700   -3.6725081145   -1.3716618458
 C   -2.1387634370   -4.6886006743   -1.9950036333
 H    0.5072753343    1.8337532886   -0.7700759431
 H   -1.1320951233    1.8908644395   -0.0901000165
 H    0.2441095419    1.4812607702    0.9506242825
 H   -0.7864607718   -0.2267799751   -1.3946324729
 H    0.6012141096   -0.6364467054   -0.3624716207
 H   -0.5975825376   -2.6537389750    0.4733451487
 H   -2.8317652169   -3.5183469781    1.3426579289
 H   -3.4797081455   -1.7964006530    1.2471986964
 H   -4.0237853095   -1.6789638441   -1.5575820654
 H   -1.9820800846   -5.5804032565   -2.5496677107