23

 C   -0.7295543482    1.5859310636   -0.3297621773
 O   -0.5269406737    0.1868590290   -0.3065848917
 C   -1.6737240991   -0.5499486371   -0.1065838894
 C   -2.6161654371   -0.5690902707    1.1391595352
 C   -3.1639637100   -1.6499697303    0.1554226578
 C   -4.3578263916   -2.5402777740    0.3668652395
 C   -2.9646671219   -0.6025147647   -0.9865920835
 C   -1.6702494680   -2.0974203181   -0.0505244085
 C   -1.2315942656   -2.9440044810   -1.2353645942
 H    0.2456195012    2.0481717580   -0.4980654555
 H   -1.4102380929    1.8840433716   -1.1398308588
 H   -1.1386235308    1.9530091077    0.6222607146
 H   -2.1841751570   -0.9327608810    2.0760178241
 H   -3.2551563963    0.3042967689    1.2966764863
 H   -5.2740517335   -1.9514147786    0.4849309265
 H   -4.5034141428   -3.2158809925   -0.4833282197
 H   -4.2367194737   -3.1552023862    1.2654930376
 H   -3.6231516590    0.2700083611   -0.9475138657
 H   -2.8722857632   -0.9752469084   -2.0075478821
 H   -1.2158346786   -2.4856661492    0.8695369148
 H   -1.6585655195   -2.6185113004   -2.1870553034
 H   -0.1416187084   -2.9139413560   -1.3369744562
 H   -1.5177072003   -3.9910188116   -1.0846520803