14

 C    0.1171732880    1.5041840930    0.0836464883
 C   -0.0041321659   -0.0289430724    0.0037275985
 O    0.6481580517   -0.5393008515    1.1532040645
 C   -1.4412353761   -0.4186345258    0.0168348784
 N   -2.5531615417   -0.7295835471    0.0511396167
 C    0.5977963851   -0.5363357526   -1.2392713340
 C    1.1256945233   -0.9712092917   -2.2334528349
 C    1.7295057208   -1.4803153275   -3.4447146269
 O    2.7013025664   -2.1968080419   -3.4628194512
 H    1.1754770340    1.7701364586    0.0638283466
 H   -0.3975066548    1.9758556455   -0.7546854536
 H   -0.3245919962    1.8417265911    1.0231223951
 H    0.6717683105   -1.5021758499    1.0947917479
 H    1.2210791749   -1.1569566278   -4.3741722252