21

 C    0.1821805400   -0.4150362896   -0.7513422732
 C   -0.1336563879   -0.1679055969    0.7346898243
 C    1.0904922976   -0.2856104425    1.6151437099
 N    1.4812988847   -1.5763843133    2.0344318388
 C    0.9489876092   -2.8233914448    1.7866947486
 C    1.7065689992   -3.9418537719    2.4890831220
 O   -0.0199483694   -3.0349607990    1.0834002064
 N    1.8567795091    0.6362749026    2.0446714789
 C    1.6555336867    2.0301128284    1.7258812655
 H    0.5160241359   -1.4430768715   -0.9059821502
 H   -0.7161372384   -0.2597574126   -1.3558902131
 H    0.9579689763    0.2669448429   -1.1130824892
 H   -0.5554661481    0.8312937267    0.8633749572
 H   -0.8788079993   -0.8930629007    1.0615258476
 H    2.3043477952   -1.5290787198    2.6199281652
 H    1.2372275651   -4.8912352247    2.2347283046
 H    2.7559693936   -3.9607461401    2.1767670278
 H    1.6851802422   -3.8059952481    3.5754611421
 H    0.8137596088    2.2571520610    1.0592401057
 H    1.5164083092    2.5965419843    2.6550128221
 H    2.5670551202    2.4217446698    1.2582544789