21

 C   -0.1363484477    1.5490889637    0.0252461958
 C    0.0319552373    0.0272877104    0.0013772177
 C    0.7735321771   -0.4815912460   -1.2661142410
 C    1.9835736524   -1.3900435572   -0.8328864990
 C    2.8615965874   -0.4999223656    0.0310331696
 C    2.2514659986   -0.0409395057    1.1224042371
 C    0.8155784344   -0.5148418113    1.2660935287
 C    0.7837503162   -2.0284263957    1.1333151927
 C    1.3889609244   -2.4847488586    0.0388448904
 H    0.8352005547    2.0531786737    0.0020049343
 H   -0.7108402319    1.8919750351   -0.8421035268
 H   -0.6677493416    1.8763507351    0.9261113751
 H   -0.9635833825   -0.4271986090    0.0364950047
 H    0.0995017815   -1.0525691661   -1.9111695245
 H    1.1540994886    0.3599404272   -1.8536821260
 H    2.5077325002   -1.7815726315   -1.7059444695
 H    3.8732772464   -0.2495347358   -0.2668183831
 H    2.6982461048    0.6344538174    1.8425296682
 H    0.3439286203   -0.1616356650    2.1850101567
 H    0.2671426060   -2.6444327118    1.8602014212
 H    1.4400996634   -3.5268608533   -0.2544569924