23

 C   -0.0665184162    1.5925036112   -0.1177849827
 C    0.0535303615    0.0609653946   -0.0694704993
 C    0.8116670685   -0.4628385671   -1.2967970544
 C    0.7152453598   -0.4551914767    1.2288488364
 O    2.0501703462    0.0249945561    1.3827221967
 C   -0.1146311235   -0.1914497798    2.4953984758
 C    0.4880450592   -0.8744658453    3.7347603113
 C   -0.1742469793   -0.4226538519    5.0124439246
 O   -0.6864914869   -1.1469002402    5.8265648733
 H    0.9203477521    2.0714809528   -0.1188827288
 H   -0.5679058999    1.9062015068   -1.0382254926
 H   -0.6416957235    1.9962207674    0.7210258440
 H   -0.9623023781   -0.3576079056   -0.0870167723
 H    1.8518806009   -0.1242389823   -1.2766785585
 H    0.8187921579   -1.5575994098   -1.3213093628
 H    0.3523258533   -0.1088919805   -2.2250488565
 H    0.8363817589   -1.5412637840    1.1255395892
 H    2.0104958589    0.9837266747    1.4708163289
 H   -0.1787094913    0.8916301332    2.6705212781
 H   -1.1416521138   -0.5418031572    2.3374094010
 H    0.4190840144   -1.9642601086    3.6683844977
 H    1.5507271399   -0.6003490569    3.7862266671
 H   -0.1623739791    0.6844958190    5.1627326039