19

 C   -0.0752587981    1.5898248434   -0.0866313569
 C   -0.0022601626    0.0875179623    0.0191091709
 O   -1.1492525192   -0.5948863225   -0.4198577180
 C    1.3078966666   -0.6511230353   -0.1688309791
 O    2.4689070748    0.1076557772   -0.3445786470
 C    3.3667460789    0.1046701789    0.7620502803
 C    2.6858171487    0.3916759821    2.0769939931
 C    1.4039524329    0.0786382953    2.2612942793
 C    0.6507041400   -0.6216972696    1.1940085218
 H    0.8320961881    2.0605535662    0.2924526104
 H   -0.1943001640    1.8917511079   -1.1346145974
 H   -0.9353549289    1.9672922420    0.4752219424
 H   -1.2467786966   -0.4256135528   -1.3643130970
 H    1.2798185105   -1.5766655946   -0.7424625447
 H    3.9073511899   -0.8559331303    0.8152718915
 H    4.1094504084    0.8764260603    0.5353316706
 H    3.2790012924    0.8600446868    2.8567124632
 H    0.8963452657    0.2999937131    3.1959547843
 H    0.1237826924   -1.5238706803    1.4921456922