20

 C   -0.2691390913    1.4404448765    0.1213345301
 C    0.1342745069   -0.0202114573   -0.1272925608
 C    1.0265219246   -0.1523292210   -1.3696436860
 C    0.8217262663   -0.6011971045    1.0948050505
 C    0.0363296996   -1.1193144401    2.2624577679
 C    0.8054847435   -2.0998813805    1.3847075479
 C    0.1024077847   -3.0150583106    0.5341563818
 C   -0.4738651919   -3.7946587204   -0.1794974249
 H    0.6128339804    2.0664840022    0.3025713544
 H   -0.7956932451    1.8543206248   -0.7449168965
 H   -0.9256895951    1.5302631277    0.9925298152
 H   -0.7780476490   -0.6039155205   -0.3039349957
 H    1.9666217712    0.3968973242   -1.2369127096
 H    1.2700277026   -1.2000166194   -1.5673838450
 H    0.5284617342    0.2544372137   -2.2559363718
 H    1.7669570869   -0.1193194841    1.3383200843
 H    0.4050194536   -0.9545262490    3.2687471112
 H   -1.0445699228   -1.1382447244    2.1737557985
 H    1.7167702953   -2.5036457730    1.8166700680
 H   -0.9857130146   -4.4829475543   -0.8048551597