29

 C   -0.0639812183    1.6703855218   -0.1104041660
 C    0.0211428344    0.1590661247    0.1249589323
 C   -1.3515081665   -0.5239357731    0.0888565843
 C   -1.3322025850   -2.0601308676    0.2200742674
 C   -0.8304879176   -2.5105209654    1.6000841863
 C   -2.7341255864   -2.6209709148   -0.0940808007
 C   -2.8959019817   -4.1533044175   -0.1242753967
 C   -4.3681130661   -4.5202133664   -0.3609860939
 C   -2.0009078332   -4.8176147421   -1.1801537327
 H    0.9260081546    2.1366092246   -0.0824298936
 H   -0.5110371653    1.8952510768   -1.0852642406
 H   -0.6815312367    2.1555899841    0.6538632146
 H    0.6689438789   -0.2936343384   -0.6378832426
 H    0.5117320266   -0.0250829938    1.0880555582
 H   -1.9880246406   -0.1032637989    0.8814034781
 H   -1.8421919909   -0.2614674598   -0.8586639529
 H   -0.6314694823   -2.4404404492   -0.5368290161
 H   -0.7623505353   -3.5999258430    1.6706463803
 H    0.1632828533   -2.1100805582    1.8190476151
 H   -1.5093846648   -2.1682580976    2.3911374459
 H   -3.4415164537   -2.2114632112    0.6417154432
 H   -3.0551662563   -2.2267659258   -1.0692200798
 H   -2.6132778637   -4.5527316751    0.8588909866
 H   -4.5149289854   -5.6054092518   -0.3456605842
 H   -5.0172449739   -4.0824862643    0.4049206084
 H   -4.7115018150   -4.1531029453   -1.3358825409
 H   -0.9373236275   -4.6523490920   -0.9841610565
 H   -2.1662933021   -5.8998714103   -1.2081009117
 H   -2.2199258393   -4.4235964605   -2.1803369013