19

 O   -0.0715521286    1.3645986494    0.0234443384
 C    0.0095854453   -0.0375109929    0.0437631639
 C    0.6694085033   -0.7288794247   -1.2176940870
 C   -0.3172946295   -1.8971779085   -1.3390903546
 C   -1.6518038899   -1.1191764150   -1.4858161299
 C   -1.3795207613   -0.7435727974   -0.0158821900
 C   -0.7557588155   -2.1551788844    0.1918968557
 C    0.2703145919   -1.9775245026    1.2712871986
 C    0.6738732170   -0.7027524016    1.2404098986
 H    0.8175274975    1.7189603990   -0.0795417496
 H    0.6195495095   -0.0736501867   -2.0931878672
 H    1.7080018179   -1.0178516410   -1.0403063059
 H   -0.0516671287   -2.7273702230   -1.9930692768
 H   -1.6999413701   -0.3236443462   -2.2344406781
 H   -2.5212811690   -1.7751465990   -1.5786047166
 H   -2.1355376468   -0.3466942118    0.6627824868
 H   -1.4575276524   -2.9840114623    0.2844436725
 H    0.6353994424   -2.7629258421    1.9218616628
 H    1.4459081771   -0.2336139792    1.8399230083