20

 C   -0.1957518717    1.5677477284    0.1789370628
 C   -0.0120816298    0.0544903292    0.1222040664
 N   -1.3004903086   -0.6056204293   -0.1027494445
 C   -1.2678637473   -2.0561194361   -0.1428976789
 C   -1.0270065208   -2.8120825674    1.2197973860
 N   -2.4955651809   -2.8710036096    1.3901500233
 C   -2.7044076401   -2.6584634647   -0.0586958674
 C   -0.4468431773   -2.5199951604   -1.2617276058
 N    0.2038022081   -2.9187533515   -2.1297988450
 H    0.7682065801    2.0672049215    0.3106205746
 H   -0.6575469134    1.9342616318   -0.7419031185
 H   -0.8371999049    1.8576011548    1.0193814196
 H    0.6475420627   -0.2087276215   -0.7124098567
 H    0.4899726475   -0.2930427847    1.0423165549
 H   -1.9604051333   -0.3304406930    0.6193414761
 H   -0.5373583456   -3.7831623610    1.0709401443
 H   -0.4948698566   -2.2526766642    1.9955295097
 H   -2.8555784633   -3.7436317963    1.7588873451
 H   -3.5103461358   -1.9651189937   -0.3190575965
 H   -2.8014597990   -3.5731223724   -0.6566207395