20

 C    0.1010255459    1.5467543820    0.1352821964
 C    0.0064618191    0.0252341328   -0.0114036725
 C    0.5261514940   -0.4969175091   -1.3203193655
 C    0.7959141347   -1.9846321692   -1.6298797832
 C    1.0079535905   -2.0043601955   -3.1372328370
 C    0.3665061419   -0.7923657783   -3.7800350118
 C    0.5723180987    0.1834144598   -2.6431395776
 N    1.8523442256   -0.0895871632   -1.9015359297
 C    2.1085563590   -1.5453795055   -2.2169621830
 H    1.1247082027    1.8854090243   -0.0484850826
 H   -0.5585855117    2.0603832780   -0.5714483382
 H   -0.1879674759    1.8563491432    1.1436212982
 H    0.5721461290   -0.4560109286    0.7977519226
 H   -1.0353000204   -0.3035615734    0.1082556769
 H    0.5357518400   -2.8403386207   -1.0225624803
 H    1.1005294806   -2.9565878596   -3.6443496428
 H    0.8812382461   -0.4807007376   -4.6953980550
 H   -0.6955807861   -0.9366170255   -4.0067590777
 H    0.3332476922    1.2354105008   -2.7458533486
 H    3.1110494541   -1.9470836448   -2.1591930786