17

 C   -0.1700124920    1.3325435048   -0.1673199339
 O    0.0099110267   -0.0603790980   -0.0583617586
 C    0.5333069995   -0.6392741394   -1.2270409059
 C    0.6076713188   -2.1364719007   -1.0357900079
 O   -0.7382355630   -2.6550192240   -1.0592312947
 C   -0.8707276042   -3.9406714481   -0.7500079194
 O    0.0178783561   -4.7041639210   -0.4611905078
 C   -2.3301163055   -4.4090111082   -0.7984309363
 O   -3.2567823067   -3.7256864688   -1.1295300579
 H    0.7808119861    1.8531636010   -0.3636254653
 H   -0.8761613118    1.5901913858   -0.9717426663
 H   -0.5748907330    1.6832010022    0.7845126366
 H   -0.0946359176   -0.4068669836   -2.1026855877
 H    1.5491900416   -0.2616357081   -1.4374734330
 H    1.1845408060   -2.6063460288   -1.8386510333
 H    1.0741252586   -2.3866276974   -0.0794205190
 H   -2.4193584495   -5.4716485377   -0.4956436597