19

 C   -0.1834579236    1.1731692972   -0.0807848437
 N   -0.2248344577   -0.2615779048    0.1550703965
 C    0.7103451009   -0.8365148631    0.9932473086
 C    1.2199949972   -2.1295879740    0.9605871606
 N    0.8667777339   -3.0802128034   -0.0335345365
 C   -0.0775617770   -4.1147437473    0.4027628252
 C    2.0896465642   -2.1890660445    2.0768856812
 N    2.1391194536   -1.0441627242    2.7446798073
 N    1.2772474398   -0.2314326722    2.0640174287
 H    0.8001153011    1.5402129030   -0.4134255100
 H   -0.9254949539    1.4274623791   -0.8405558368
 H   -0.4602740133    1.7159439573    0.8305311245
 H   -0.3079008562   -0.8221634679   -0.6845109854
 H    1.6943342707   -3.5165405994   -0.4240545907
 H    0.2795291411   -4.7156336745    1.2539899851
 H   -1.0167172493   -3.6399932449    0.7017621643
 H   -0.2881060841   -4.7887616067   -0.4340293255
 H    2.6941656449   -3.0235431055    2.4057900709
 H    1.1330449679    0.7056650958    2.3949396055