16

 C   -0.0159350226    1.5214648296   -0.0649242116
 C    1.5437188649    1.3296892277   -0.0166828094
 C    1.1438261202    0.1661408542    0.9620168639
 N   -0.0992424648   -0.0140863458    0.0652995776
 C    0.6053351825   -0.3598538068   -1.1867423455
 C    1.6592532507    0.4787921557   -1.2701331474
 O    2.3945674190    0.2720321361   -2.3736210001
 C    1.7560163419   -0.7676410481   -3.0247225795
 C    0.6480416862   -1.1949538402   -2.3373301628
 H   -0.4393427469    1.9989601999    0.8241403739
 H   -0.4602855525    1.9212825142   -0.9778337717
 H    2.2583870536    2.1172508649    0.2156212142
 H    1.7915922608   -0.7103138878    1.0161570821
 H    0.8437089412    0.4995581276    1.9602517809
 H    2.2146369212   -1.0752915488   -3.9487632461
 H   -0.0135013454   -1.9909342025   -2.6408086287