17

 C    0.0717882884    1.3072478928   -0.2438163197
 O   -0.0942884108   -0.0012789968    0.2676116717
 C   -1.3824954424   -0.5324747912    0.1811458359
 C   -2.3371214055    0.0455389957    1.2156601780
 C   -1.9102275794   -0.8293595933   -1.2744120034
 O   -0.8454966428   -1.8539535410   -1.4114972833
 C   -1.3191319200   -2.0777526662   -0.0211681711
 C   -2.7202103062   -2.0099239273   -0.6803176397
 O   -3.7288321295   -2.6199255279   -0.8160238716
 H    1.1269414254    1.5579185726   -0.1171656655
 H   -0.1767988318    1.3596909059   -1.3124291984
 H   -0.5313301204    2.0499931148    0.2962393780
 H   -2.5062098852    1.1124888826    1.0437759604
 H   -3.3110334906   -0.4514725642    1.1921964134
 H   -1.9097368689   -0.0729866366    2.2154291525
 H   -2.0955570680   -0.1728804877   -2.1218980713
 H   -0.8117156024   -2.8337021121    0.5739438439