17

 N    0.0382296162    0.5699926964    0.8104106396
 C    0.5267481961   -0.6863148527    0.2356620767
 C   -0.3248670118   -1.7914883192    0.7037341496
 N   -0.9893329596   -2.6709518659    1.0491443320
 C    0.6468369587   -0.6756140645   -1.3042665487
 C    1.8410917011    0.0850466384   -1.8521463236
 O    1.8163368561    1.4616349034   -1.4973025640
 C   -0.0162612783   -1.6708875997   -2.1596398811
 O   -0.5830429361   -0.3661506198   -1.9756337408
 H    0.6689596594    1.3078933699    0.5081841983
 H   -0.8701780697    0.7751308798    0.4010944668
 H    1.5289840286   -0.8678914260    0.6447276075
 H    2.7709686876   -0.3192926848   -1.4382991985
 H    1.8731672603   -0.0409974977   -2.9425857113
 H    1.0482756728    1.8478960647   -1.9342736812
 H    0.3819412447   -1.8674912879   -3.1541661027
 H   -0.5739246562   -2.4853342546   -1.7053331986