18

 C    0.2737347361    1.1319265735    0.4240410352
 O    0.1847697749   -0.2390691673    0.1055468488
 C    0.5089829834   -0.5467824702   -1.2385032272
 C    2.0041500688   -0.5507957341   -1.4949916435
 C    2.5040883274   -1.7847919629   -1.4792510709
 C    1.4449608251   -2.8376802933   -1.2714133089
 C    0.1357083285   -2.0331929527   -1.5145131941
 C   -1.0208145865   -2.5117413833   -0.7657815254
 N   -1.9404650053   -2.9259532264   -0.2022627236
 H    1.3064106451    1.5066580643    0.3749917059
 H   -0.3510064329    1.7430896174   -0.2458012032
 H   -0.0907889647    1.2451407434    1.4472570868
 H   -0.0440969480    0.1303191507   -1.9071712952
 H    2.5785047943    0.3606928694   -1.6078477762
 H    3.5539781425   -2.0375763050   -1.5784428408
 H    1.5305147765   -3.6837493562   -1.9599354875
 H    1.4859983790   -3.2474871994   -0.2554466297
 H   -0.1076629040   -2.1066814379   -2.5798741506