19

 C   -0.0027698310    1.5220000861   -0.0663492744
 C    0.0750760510    0.0139094345    0.0107340284
 C    1.3772681653   -0.7227477369   -0.1074105078
 C    0.6320738368   -0.7349603219    1.2268505556
 C    1.2345415636    0.0300442567    2.4066709041
 C    2.3797086960   -0.7300120676    3.0500017013
 O    3.4489655590   -0.2426026914    3.3135728053
 C   -0.0471360632   -1.9505908755    1.5936894422
 C   -0.6214330284   -2.9571198573    1.9191475807
 H    0.8974927804    2.0060692843    0.3208132649
 H   -0.1147547821    1.8357402920   -1.1098022634
 H   -0.8624100484    1.9091464342    0.4910350243
 H   -0.7774217522   -0.4917730919   -0.4334680491
 H    1.4158078547   -1.6452149585   -0.6741486891
 H    2.2883795289   -0.1328250870   -0.1379436624
 H    1.6107577744    1.0104819652    2.1099535235
 H    0.4594148785    0.1801433689    3.1709430612
 H    2.1615450749   -1.7980765190    3.2689846334
 H   -1.1252515183   -3.8487339049    2.1994522414