20

 C   -0.2486071944    1.7282006807   -0.4664650918
 C   -0.0102939158    0.2662270530   -0.0803392957
 N   -1.2460173561   -0.4904605777    0.1221239493
 C   -1.9728374988   -0.9732235517   -1.0406147777
 C   -1.7350524725   -0.5796123306    1.4015269389
 O   -1.1713200912   -0.1023971053    2.3733058513
 N   -2.9411076212   -1.2707307001    1.5256130642
 C   -3.5706138432   -1.4511645515    2.7424640752
 N   -4.6661078426   -2.0944572600    2.8049754897
 H    0.7066744107    2.2401484853   -0.6204287529
 H   -0.8275759238    1.8133036567   -1.3923386743
 H   -0.7909861109    2.2460226841    0.3292741739
 H    0.5747663379   -0.2450980078   -0.8533794604
 H    0.5485347298    0.2147302065    0.8544305308
 H   -2.1366508511   -2.0578445535   -1.0006200057
 H   -2.9431726797   -0.4763628517   -1.1706721771
 H   -1.3787345813   -0.7699465663   -1.9327238814
 H   -3.4083870698   -1.6787389568    0.7314846777
 H   -3.0173211983   -0.9892967262    3.5616577660
 H   -4.9937648677   -2.1334620473    3.7679755700