15

 O   -0.0997324836    1.4004020926   -0.1623390187
 C   -0.0747901400    0.0386934963    0.0341877993
 C   -0.3278796964   -0.9691775359   -1.0593689733
 C   -1.2647416118   -0.8984214242    0.1310132159
 N   -0.6568099669   -1.5319563347    1.2926624779
 C    0.5144949567   -0.6335102967    1.2914844889
 C   -0.7107036877   -2.8226341095    1.7141659054
 O    0.1048674133   -3.3427909946    2.4456440423
 H    0.6327995278    1.6404692454   -0.7403494275
 H   -0.7343656346   -0.5313633021   -1.9662400211
 H    0.3150148963   -1.8334472949   -1.2047189899
 H   -2.3284051713   -0.7079878510    0.0667951209
 H    1.4769200723   -1.1461069572    1.2027135460
 H    0.5219606773    0.0355110102    2.1568264600
 H   -1.6199824714   -3.3381296237    1.3415573238