19

 C    0.1095893677    1.6163745461    0.1080741277
 C    0.0913500753    0.1006349231    0.0264950634
 C    1.1696182855   -0.6310591574   -0.8872773975
 O    1.7053832191   -0.3236245847   -1.9062290022
 C    1.2191635773   -1.8282943823    0.1253924754
 C    2.0169332242   -2.0910658266    1.4510477483
 C    2.1645431376   -0.5595293337    1.5851495112
 C    0.6824144610   -0.7975308934    1.1374982064
 C    0.6245815098   -1.9463155953    2.1997977427
 H    1.0695646314    1.9776125116    0.4898063421
 H   -0.0384581215    2.0502127225   -0.8859749115
 H   -0.6816591761    1.9908096523    0.7650284339
 H   -0.8946280797   -0.2689246240   -0.2856214219
 H    0.5156969426   -2.6114799574   -0.1803021669
 H    2.7742787682   -2.8529939431    1.6480485305
 H    2.3053972058   -0.1575749867    2.5916193584
 H    2.8309641533   -0.0734926607    0.8673740917
 H   -0.1093490899   -2.7368018234    2.0243645289
 H    0.6735839384   -1.6666468472    3.2561244195