16

 C   -0.1483491970    1.3492350057    0.0656708763
 N   -0.0951047105   -0.0969760319   -0.0499307159
 C    0.5793354072   -0.6071620836   -1.0184765841
 C    1.3322122523    0.0315216298   -2.0652234238
 C    1.9945825063   -0.7426393130   -2.9491490183
 O    2.0162439730   -2.0723004275   -2.9384317712
 N    1.2977834717   -2.7916450430   -1.9655037720
 C    0.6228169052   -2.0897154096   -1.0994419931
 N   -0.1268012420   -2.7444428266   -0.1812761919
 H    0.8507444658    1.7978207705    0.1710474481
 H   -0.6271311701    1.8169421863   -0.8073957253
 H   -0.7313239119    1.6197738076    0.9493049814
 H    1.3816437954    1.1072148634   -2.1562179769
 H    2.5909390488   -0.3608003590   -3.7713904649
 H    0.0179360713   -3.7303002259   -0.0467886195
 H   -0.4622802057   -2.1658404729    0.5750743209