15

 N   -0.1063163079    1.3144477359   -0.0339033344
 C   -0.0444471224    0.0479487049    0.0090052437
 N    1.1073557213   -0.7486628616    0.0472611493
 C    1.0487956011   -2.1394653814    0.0613278501
 O    2.0290976865   -2.8431898889    0.0583750090
 C   -0.4037569505   -2.6214421296    0.0636097170
 C   -1.1856034362   -1.9175330558   -1.0695408035
 C   -1.2922740305   -0.8120982689    0.0094017759
 O   -1.1295266547   -1.8286607064    1.0425092309
 H    0.8212197819    1.7453504314   -0.0449477700
 H    2.0254987660   -0.3249026230    0.0768457226
 H   -0.4643072332   -3.6970801978    0.2249032320
 H   -0.6791570439   -1.6959095383   -2.0103088675
 H   -2.1490146192   -2.3961814091   -1.2457615583
 H   -2.1902000184   -0.2066750313    0.1182929531