23

 C    0.1987246760    1.6236764980    0.3773854427
 C   -0.0543422285    0.1393283740    0.2431785364
 C    0.9766112757   -0.7560510951   -0.4331934862
 C    0.7616959531   -0.8565327240    1.0410345518
 O    1.8050356699   -0.3485281610    1.8478373442
 C    1.5968887674   -0.7475217941    3.2075114501
 C    0.3028945415   -1.5748109618    3.2325691218
 C    0.1826963364   -2.0592064833    1.7749014218
 C   -1.2158089927   -2.5117008997    1.3673552011
 H    1.2355656230    1.8122272304    0.6664446493
 H    0.0007377473    2.1474196625   -0.5643096920
 H   -0.4449238590    2.0668260834    1.1459562823
 H   -1.0905957755   -0.1308138724    0.0571048071
 H    0.6320976886   -1.5644963303   -1.0709511724
 H    1.9040926441   -0.2918073041   -0.7530549730
 H    2.4640452797   -1.3396568356    3.5280546618
 H    1.5415583096    0.1418012248    3.8466129586
 H    0.3382739499   -2.3909132046    3.9587715694
 H   -0.5566123878   -0.9416219707    3.4804555998
 H    0.8812518099   -2.8955868884    1.6294962695
 H   -1.9592751866   -1.7312430500    1.5580397033
 H   -1.2624542125   -2.7722286272    0.3044502609
 H   -1.5123530092   -3.3993554507    1.9349465818