20

 C   -0.0117479371    0.9465872001   -0.3106081884
 O   -0.4261868106   -0.2442688682    0.3428588086
 C    0.4722232657   -0.6499064814    1.3307623505
 C    0.3637109302   -2.0747852448    1.7851598623
 C    1.5596754994   -1.6205762161    0.9483504153
 N    1.6826647338   -1.9789851412   -0.4374210071
 C    2.0635365426   -3.3625172788   -0.6785808302
 C    2.4488213277   -3.5679696833   -2.1333258523
 O    2.3104514497   -4.5999658392   -2.7359002067
 H    0.9572318497    0.8169496607   -0.8101720496
 H   -0.7759770817    1.1846715928   -1.0537605461
 H    0.0668872342    1.7822611886    0.3999913760
 H    0.7004791059    0.1199334863    2.0686945676
 H    0.4932340534   -2.2951345485    2.8391636748
 H   -0.3825542529   -2.6780927573    1.2785911916
 H    2.5161397510   -1.5290925398    1.4578118259
 H    0.8069042030   -1.7631942951   -0.9040327028
 H    2.9682314629   -3.5761791392   -0.0889234073
 H    1.3157743021   -4.1192817204   -0.3934904487
 H    2.8945246411   -2.6625320553   -2.6045312736