19

 C    0.0952541778    1.5260887602    0.0005279303
 O    1.2200589760    0.6384604959   -0.0111127046
 C   -0.0923379880    0.0708719625    0.0255396200
 C   -0.4887951486   -0.7413053777    1.2629890327
 C   -1.4883736956   -1.7622229960    0.7029664375
 C   -2.7161976282   -1.0418139725    0.0511097931
 C   -2.0002613609   -1.1308852134   -1.2963627157
 C   -0.9822942864   -2.1052684967   -0.7339496666
 C   -0.5314552989   -0.7388163192   -1.1685860499
 H   -0.0318959258    2.1064634928    0.9142225122
 H   -0.0724373498    2.0799385479   -0.9232822113
 H    0.4059406553   -1.2407403636    1.6524841783
 H   -0.9107340596   -0.1263626258    2.0639291614
 H   -1.7198848603   -2.5850655477    1.3779376394
 H   -3.6052518649   -1.6776594119    0.0650145403
 H   -2.9816736132   -0.0512966816    0.4392270716
 H   -2.4746567946   -1.1359517338   -2.2709414716
 H   -0.6134935419   -3.0488489792   -1.1123502151
 H    0.0155097676   -0.6151982502   -2.0959161720