16

 C   -0.0515740696    1.2043443097   -0.3312095019
 O   -0.2854738168    0.1581616565    0.6047394651
 C   -1.4088163455   -0.5849820217    0.3227381928
 C   -1.3836932226   -1.6284508497   -0.7867611515
 O   -0.1080456950   -1.9620385220   -1.2749544789
 C    0.6396392966   -2.5035864711   -0.2721088887
 N    1.8382427786   -2.8337504084   -0.4332469189
 O   -0.1101403562   -2.6215108285    0.8698029661
 C   -1.3801959585   -2.0574988870    0.6558605697
 H    0.8585124589    1.7129629559   -0.0086953264
 H    0.0918669723    0.8055968285   -1.3421811384
 H   -0.8828650255    1.9233975942   -0.3392198708
 H   -2.3721475170   -0.0899389384    0.4677456392
 H   -2.1768424542   -1.7729574418   -1.5088954133
 H    2.2185714339   -3.2150608730    0.4289694697
 H   -2.1742305394   -2.5643514333    1.1882903760