16

 C   -1.0884114839    0.8430448844    0.9848481348
 C   -0.0770827013   -0.0446610836    0.2877366851
 O    0.3494368143   -1.0439691142    1.2353781521
 C    1.2509113223   -1.9269860308    0.8039392182
 N    1.7289538829   -1.9503878707   -0.3703202151
 C    1.6258587277   -2.9374486057    1.8765865171
 O    2.2044169304   -3.9589750807    1.5905559022
 C    1.3684212723   -2.6677354088    3.3665643424
 O    1.3739522674   -1.5759104988    3.8634852218
 H   -0.6457447787    1.3228024212    1.8618146343
 H   -1.4297644303    1.6225246809    0.2974702561
 H   -1.9581408842    0.2652357496    1.3098319880
 H   -0.4972942665   -0.5496586913   -0.5884510546
 H    0.8034934423    0.5119585795   -0.0491960310
 H    2.3715173359   -2.7398800419   -0.4518403552
 H    1.2891520694   -3.6087008390    3.9510142337