23

 C    0.0542063778    1.5821227263   -0.0155361438
 C   -0.0190677598    0.0500320798    0.0051838549
 C    0.5850437769   -0.5543134379   -1.2792979979
 C    0.7159918929   -2.0739381069   -1.2138134818
 C    2.0659083610   -2.7041407232   -0.9623333232
 C    1.0165697689   -2.6826607936    0.1330307014
 C    1.1468669189   -1.7656940932    1.3007783475
 C    1.8155778003   -2.3199437458    2.5292066330
 C    0.6596424555   -0.5227590728    1.2318716583
 H    1.0954321774    1.9236078563   -0.0453347316
 H   -0.4576376728    1.9902474249   -0.8935115122
 H   -0.4125623038    2.0139712144    0.8761500762
 H   -1.0844100519   -0.2291942577    0.0415015154
 H   -0.0247415170   -0.2685267534   -2.1439565484
 H    1.5713329203   -0.0997783726   -1.4360581207
 H    0.0389195740   -2.6319509552   -1.8528036587
 H    2.2960767315   -3.6541233617   -1.4334079888
 H    2.9139227335   -2.0344756041   -0.8567241016
 H    0.5617971709   -3.6451681454    0.3585238642
 H    2.8384810277   -2.6496398110    2.3071276308
 H    1.8595245749   -1.5808272982    3.3339611006
 H    1.2816842959   -3.2019914499    2.9066352475
 H    0.7443184871    0.1322507310    2.0978248386