15

 N   -0.0707525795    1.4620005643    0.0776303686
 C   -0.1069608743    0.0314012378    0.0068534064
 C   -1.3676329170   -0.7748812804    0.0424150210
 O   -1.6643262647   -1.7649540470    0.9392909338
 C   -2.4325123046   -0.1556571977   -0.8502724424
 O   -1.4976058014   -0.0416844817   -1.9627681626
 C   -0.4943576079   -0.7652528043   -1.2457859964
 C    0.3055564190   -1.7334727865   -1.9068051138
 N    0.9829681616   -2.5269880458   -2.4106172841
 H    0.8670969247    1.7900727835   -0.1352052260
 H   -0.6750699123    1.8494490284   -0.6429056074
 H    0.6957883680   -0.4531727590    0.5594958349
 H   -1.2338635307   -1.5730650174    1.7788643955
 H   -3.2310771375   -0.8635061139   -1.0925651204
 H   -2.8542344134    0.8102361597   -0.5532816570