16

 C   -0.0173700465    1.5255998592   -0.0041352105
 C    0.0633799642    0.0217783822    0.0144861720
 C   -0.8224153658   -0.8042738162    0.9274842168
 C    0.6625240294   -0.8653890368    1.1400478976
 N    1.3246667346   -1.9218500374    0.4194738785
 C    1.1457785866   -1.6460147795   -0.9266450182
 N    0.4466796326   -0.6066180471   -1.2239831476
 C    1.7133356682   -2.5280823226   -1.9055740609
 N    2.2037872150   -3.2507844758   -2.6627890861
 H    0.9231296995    1.9652725542   -0.3493949737
 H   -0.8125674001    1.8544223400   -0.6808151237
 H   -0.2363991626    1.9166100874    0.9937128643
 H   -1.3907727770   -0.2458536777    1.6632499564
 H   -1.3234049740   -1.6769150566    0.5214418574
 H    1.1343652057   -0.5093822755    2.0475419824
 H    2.1952027302   -2.3120884477    0.7469900152