15

 O   -0.5415562408    0.5547284227    0.6170611554
 C    0.2173316671    0.8756505959   -0.2580066232
 C    1.3413919631    1.8941510302   -0.0695129807
 C    1.3115430160    2.9576404148   -1.1206192218
 C    0.9979470707    4.2529562406   -1.0537510321
 C    1.1318380903    4.8650136124   -2.4160179654
 O    1.5457593325    3.7965585424   -3.2669374453
 C    1.6612708738    2.6472155079   -2.5349230184
 O    1.9914079928    1.5955370235   -3.0105700491
 H    0.1608977641    0.4405069017   -1.2769958629
 H    1.2693879655    2.3083619697    0.9380347091
 H    2.2842117888    1.3367315832   -0.1622098978
 H    0.6962888440    4.8171207404   -0.1805681146
 H    0.1868120350    5.2765777392   -2.7923923391
 H    1.8847289271    5.6623453653   -2.4525432740