20

 C   -0.2585534947    1.1498085510   -0.6983757271
 C   -0.2099880489    0.1188560038    0.4319218059
 N   -1.4252291831   -0.6694038776    0.5448031271
 C   -1.5179831840   -1.9343244499    0.0562902029
 O   -0.6161352889   -2.5795771141   -0.4292638139
 O   -2.7921782793   -2.3958899983    0.2077678909
 C   -3.0187390459   -3.7358281002   -0.2633518627
 C   -4.4934486985   -4.0175938783   -0.0415238379
 O   -5.3221406168   -3.1411533802   -0.7802970383
 H    0.6739744441    1.7221115742   -0.7331604034
 H   -0.3957344771    0.6560606663   -1.6646663185
 H   -1.0818371099    1.8583011769   -0.5560286081
 H    0.6012122368   -0.5927096802    0.2640709694
 H   -0.0221827685    0.6154500840    1.3911346026
 H   -2.2751444552   -0.2338970933    0.8631325034
 H   -2.7602861098   -3.7961109804   -1.3245476385
 H   -2.3858377982   -4.4375565065    0.2896448259
 H   -4.7180142074   -5.0329675577   -0.3839430142
 H   -4.7150141955   -3.9706341764    1.0366362193
 H   -5.0386915690   -2.2479042030   -0.5569242747