16

 C   -0.2526489276    1.3126702052    0.2785036796
 N   -0.0152016791   -0.1026650821    0.0824863463
 C   -1.0176968704   -0.8713280634    0.1227457948
 N   -0.9002040410   -2.2595645312   -0.0546567336
 C    0.3566301902   -2.8339104434   -0.2851737653
 N    0.4988276883   -4.0849346137   -0.4496533906
 C   -2.0413795162   -3.0701320083   -0.0009646743
 N   -3.1957365828   -2.5831317966    0.2060784141
 H    0.1044769605    1.8677399026   -0.5964580216
 H   -1.3109313125    1.5657195311    0.4454740092
 H    0.3296613611    1.6653797675    1.1374007169
 H   -2.0533517501   -0.5692115028    0.2923931893
 H    1.1364298697   -2.0724203847   -0.2977899141
 H    1.4799747074   -4.3071381696   -0.6033010660
 H   -1.7843651117   -4.1177146289   -0.1568588414
 H   -3.8914875860   -3.3259523917    0.2096808769