20

 O    0.4978083874    0.4556141105    0.9056264524
 C   -0.0783737680    0.3088096051   -0.3873806248
 C   -1.4200681267   -0.4095825927   -0.3347970299
 C   -2.0799197913   -0.8759829334   -1.6363416053
 C   -1.3593383994   -2.0039926244   -2.2622180443
 N   -2.2524903519   -2.3007724299   -1.1244719789
 C   -1.4872083926   -1.8846651752    0.0857747134
 C   -0.4595826009   -2.7441784760    0.7542887231
 C   -1.7911610729   -2.4563741955    1.4261118695
 H   -0.0933347795    1.0041215587    1.4315547812
 H   -0.1909678233    1.2826372067   -0.8906329728
 H    0.6470804493   -0.2721441875   -0.9639196408
 H   -2.1260458269    0.1877071203    0.2562707508
 H   -2.8923032769   -0.3613005038   -2.1389940021
 H   -1.7452115602   -2.3706370876   -3.2087219903
 H   -0.2873314580   -2.1251501343   -2.1302270976
 H   -0.3020591825   -3.7411507713    0.3557850009
 H    0.4235416025   -2.2559033331    1.1500805836
 H   -1.8016712499   -1.7895715528    2.2824612947
 H   -2.5207524581   -3.2583607036    1.4602784873