15

 N   -0.0387904380    1.3718016787    0.1438735333
 C    0.0214426266   -0.0045967545    0.0507046094
 N   -1.1502019263   -0.6436412047    0.0409506216
 C   -1.1399016024   -1.9879373581    0.0091443248
 C    0.0347985670   -2.7440387533   -0.0246041328
 C    1.2492028293   -2.0606293380   -0.0224636735
 C    1.2582490769   -0.6786331493    0.0178409658
 C   -2.4112778786   -2.6464368286    0.0048556807
 C   -3.4642780596   -3.2291196324    0.0000205676
 H    0.7404658373    1.8915686528   -0.2270566489
 H   -0.9448306205    1.7555671510   -0.0800961169
 H   -0.0136208281   -3.8245430857   -0.0550334564
 H    2.1846493325   -2.6099968986   -0.0504921274
 H    2.1879436852   -0.1202311799    0.0300164474
 H   -4.4000967314   -3.7308726093   -0.0024383345