14

 N   -0.0056259725    1.3929552115    0.1204845317
 C   -0.0072335842    0.0031672687    0.0464298036
 C   -1.1921826629   -0.7459647509    0.0480952063
 N   -1.1923378240   -2.0742963273    0.0312450040
 C   -0.0066046551   -2.6920151723    0.0322741326
 N   -0.0074183527   -4.0824985932    0.0917302206
 C    1.1783268243   -1.9428668828    0.0276271034
 N    1.1783617040   -0.6144319783    0.0247272088
 H    0.8776462376    1.7933923683   -0.1634708807
 H   -0.7951114948    1.8503666780   -0.3112937190
 H   -2.1625578884   -0.2534585903    0.0561319802
 H   -0.8940262339   -4.4800048761   -0.1858706196
 H    0.7768644859   -4.5353089290   -0.3541449021
 H    2.1486982367   -2.4353682161    0.0188709201