13

 N   -0.0968053648    1.3888852955    0.1511825336
 C    0.0440401829    0.0068676371    0.0464327323
 N   -1.0286726555   -0.7855335146    0.0132368294
 N   -0.5234033812   -2.0363166557   -0.0067654698
 C    0.8375466578   -2.0641228000   -0.0040615649
 C    1.2451121631   -0.7374522372    0.0341377463
 C    1.5692722498   -3.2691685799   -0.0284181792
 C    2.1808304833   -4.3064510086   -0.0510865718
 H    0.5885128675    1.9049798439   -0.3830843263
 H   -1.0339864945    1.6875931811   -0.0863012156
 H   -1.1459642551   -2.8250530529   -0.0337358337
 H    2.2597768996   -0.3770613572    0.0621453660
 H    2.7268581572   -5.2170730015   -0.0693346063