15

 O   -0.1724340079   -0.0802083811   -0.4377152225
 C    0.2335657440    0.9808835875   -0.0468006138
 C    1.3894718821    1.7344035758   -0.6898539619
 N    1.2287726750    3.1704040696   -0.4916108821
 C    2.4184441022    3.9586725138   -0.8267911331
 C    2.8297662854    3.8969943922   -2.2399168335
 C    3.1279775552    3.7987547065   -3.3990385992
 C    2.1970109104    5.3602907402   -0.4182528527
 N    2.0205433582    6.4556467511   -0.0999921331
 H   -0.1987932760    1.4953554043    0.8398154387
 H    2.2989251202    1.4168643987   -0.1577215531
 H    1.4972659551    1.4111544251   -1.7346032456
 H    0.4436257959    3.5165846574   -1.0353520386
 H    3.2409760951    3.5735498110   -0.2074198336
 H    3.3998689951    3.7238087280   -4.4237903959