23

 C   -0.0999991819    1.4502768874   -0.0174663628
 O   -0.0011831545    0.0478325507    0.0014019016
 C   -1.2565837609   -0.5886478377    0.0207471740
 C   -1.0969185714   -2.0729871833    0.0495886101
 C    0.0411888707   -2.7664971548    0.0474113333
 C   -0.1872146156   -4.2624888982    0.0365763493
 C    0.7182894865   -5.0504083422    0.9898367430
 C   -1.6992782435   -4.3687078444    0.3741405791
 C   -2.3051342647   -2.9873258056    0.0285622737
 H    0.9168400760    1.8501215353   -0.0279503211
 H   -0.6331290670    1.8120756349   -0.9115190053
 H   -0.6245560224    1.8365217859    0.8714175169
 H   -1.8438946899   -0.2583305186    0.8994837044
 H   -1.8547016178   -0.2931393105   -0.8633039638
 H    1.0281651263   -2.3203224160    0.0207590802
 H   -0.0077292083   -4.6423956672   -0.9821410092
 H    0.5958033364   -4.7010644282    2.0211373568
 H    0.4822847506   -6.1199464109    0.9650702156
 H    1.7739147625   -4.9364482265    0.7208795414
 H   -2.1941364078   -5.1941981140   -0.1449127284
 H   -1.8071008142   -4.5523934688    1.4493518587
 H   -3.0883590861   -2.6808712245    0.7330631861
 H   -2.7726271428   -2.9828106128   -0.9672022339