19

 O    0.0489638609    1.3473694337    0.3276122634
 C   -0.0612133453   -0.0658467435    0.3921605399
 C   -1.3400313838   -0.4667005820   -0.3363671426
 C   -1.5265751142   -1.9662780284   -0.3511603220
 N   -2.0821609936   -2.5952175609    0.8643256965
 C   -2.8352925222   -2.6725430353   -0.4056613403
 C   -4.1906969553   -2.0044571439   -0.3743215410
 O   -5.0818245972   -2.7201047493    0.4656498382
 H    0.8226173289    1.6126060255    0.8330736026
 H    0.8071222135   -0.5551493061   -0.0810594295
 H   -0.1127509284   -0.4212714980    1.4326090032
 H   -2.1830290089    0.0236979946    0.1564366937
 H   -1.2952247077   -0.0869974327   -1.3644157396
 H   -0.7061937882   -2.5010245891   -0.8319873232
 H   -1.6166253439   -3.4774239528    1.0566611032
 H   -2.8374255844   -3.6375774825   -0.9105882312
 H   -4.0969019596   -0.9586755025   -0.0522186025
 H   -4.6380669770   -2.0065707536   -1.3739885085
 H   -4.6437737938   -2.7732662530    1.3235931397