23

 C   -0.8388595468    0.9403423776   -0.4716284702
 C    0.2905572713   -0.0954115384   -0.3664847338
 C    1.6058340722    0.4688148301   -0.9245638158
 C    0.4620433618   -0.5492098550    1.0745935521
 C   -0.4470239301   -1.5885879604    1.6847956712
 C    1.0091456135   -1.9097825270    1.4560496658
 C    1.4128851288   -2.9338728459    0.4403640568
 C    0.8600276081   -4.2970572692    0.4457032723
 O    0.4429466901   -3.3385207044   -0.5296151565
 H   -0.6065974840    1.8357408744    0.1179278639
 H   -0.9884974205    1.2569290856   -1.5093107539
 H   -1.7853491850    0.5343545465   -0.1013807339
 H    0.0093529923   -0.9675686603   -0.9666487733
 H    1.9323295795    1.3436846232   -0.3490327805
 H    2.4095013881   -0.2732225852   -0.8854018570
 H    1.4894106809    0.7835058053   -1.9669453541
 H    0.7607445605    0.2567635221    1.7439721522
 H   -0.7997061663   -1.4568060453    2.7016963991
 H   -1.1518762282   -2.0711124206    1.0152661675
 H    1.6508311997   -1.9277933541    2.3344318953
 H    2.4141534782   -2.8093926735    0.0231754989
 H    1.4491707865   -5.1269409436    0.0584872075
 H    0.1082643193   -4.5589251819    1.1883625763