22

 C   -0.2127425586    1.6739687908    0.1686925619
 C   -0.1188120969    0.1642991512    0.0949880103
 C    1.1106276565   -0.5439761131   -0.4394361642
 N    2.2477222255    0.2341793317   -0.8354015084
 C    3.5260507844   -0.2226374502   -0.7153906788
 O    3.8509006434   -1.2515728581   -0.1645736323
 C    0.7364455651   -0.6766082041    1.0261614491
 C    1.6029998806   -0.0205627840    2.0829950189
 C    0.1827771385   -2.0250387353    1.4482500595
 H    0.7408622592    2.1421256617    0.4226784486
 H   -0.5453603093    2.0924655343   -0.7887950705
 H   -0.9406900530    1.9802699174    0.9273764539
 H   -1.0543439827   -0.3036363482   -0.2035852473
 H    0.9495140697   -1.4283328874   -1.0531116527
 H    2.0994324501    1.0487628160   -1.4118761720
 H    4.2543494542    0.4742482390   -1.1791048827
 H    2.0385505472    0.9216089619    1.7464239264
 H    1.0197444437    0.1815217318    2.9887453209
 H    2.4303461506   -0.6847961160    2.3505594947
 H    0.9965970971   -2.7195364267    1.6844072087
 H   -0.4490504740   -1.9293195975    2.3391285586
 H   -0.4245481913   -2.4772469254    0.6576024574