18

 O   -0.2941539867    1.3227010733    0.5759993401
 C   -0.1121426310   -0.0246351571    0.2446250840
 C    0.8464639005   -0.2596901712   -0.8874717599
 C    1.2332424823   -0.6526686758    0.5223841548
 C   -1.3399882878   -0.8839002849    0.3471005437
 C   -2.3941264794   -0.6427799392    1.3949080403
 N   -2.6512497983   -0.3662838438    0.0014972316
 C   -2.9540120359    0.8991653687   -0.4835893760
 O   -3.7109554430    1.6693990259    0.0528079005
 H   -0.3598202304    1.3999829623    1.5343352921
 H    0.6214916640   -1.0438195687   -1.6018145590
 H    1.3137281905    0.6237741278   -1.3056752684
 H    1.9602951355   -0.0297432332    1.0308072644
 H    1.2758217368   -1.7060705193    0.7780297251
 H   -1.1724693755   -1.9143254401    0.0353483083
 H   -2.9251988935   -1.4845017164    1.8307549908
 H   -2.2930173979    0.2226415171    2.0454996838
 H   -2.4902637402    1.0829736445   -1.4694906861