23

 C   -0.0193058912    1.5425841447    0.0975581926
 C   -0.0201140100    0.0135764602    0.0225672425
 C    0.7235336531   -0.5214596548   -1.2055505095
 C    0.7390220567   -2.0439555711   -1.3095648536
 C    1.4094379096   -2.5586278720   -2.5788317409
 O    1.4674921257   -2.5290405343   -0.1481886104
 C    1.1697738302   -3.7674412266    0.2960010049
 C    2.0023133523   -4.1079552504    1.5103097524
 O    0.3491061884   -4.4916757719   -0.2104178405
 H    1.0023400430    1.9359101119    0.1448501551
 H   -0.5016318780    1.9846281511   -0.7816184718
 H   -0.5537661414    1.8986150484    0.9836847622
 H    0.4395530386   -0.4023057543    0.9258185813
 H   -1.0548678032   -0.3534988040    0.0065214381
 H    0.2584556488   -0.1289507537   -2.1190144107
 H    1.7594985015   -0.1573806840   -1.2028497801
 H   -0.2781377479   -2.4432054520   -1.2462122717
 H    1.3925253806   -3.6503814184   -2.6028305879
 H    0.8782040303   -2.1889880493   -3.4614447110
 H    2.4479599201   -2.2167957354   -2.6337372661
 H    1.8015755230   -3.3940239345    2.3143254678
 H    1.7640454844   -5.1176243913    1.8425051059
 H    3.0663928153   -4.0337589283    1.2691633715