19

 C   -0.0291863788    1.5065957764   -0.0397533473
 C   -0.0102687338   -0.0039656541    0.0076373838
 C   -1.3684731296   -0.7750843765   -0.0235604377
 C   -0.9357579315   -1.5721989698    1.2507803105
 C    0.4183898581   -0.8159034656    1.2570721087
 N    1.6311594526   -1.4039642156    0.5505716114
 C    1.1851818777   -2.1452349379   -0.6442900681
 C    1.1793338551   -0.6746789305   -0.7122765890
 H    0.9587747277    1.9226285423    0.1878040549
 H   -0.3196129906    1.8658553825   -1.0350166937
 H   -0.7425496666    1.9180811506    0.6823693192
 H   -2.2310518295   -0.1248191250    0.1443650622
 H   -1.5571257991   -1.3663247255   -0.9237700542
 H   -1.5407551880   -1.3382476187    2.1303348826
 H   -0.8845250050   -2.6602548946    1.1614141591
 H    0.7340069158   -0.3458433001    2.1894421503
 H    2.0100462951   -2.6585928369   -1.1307281411
 H    0.2628819540   -2.7165707693   -0.6323383922
 H    1.8910613664   -0.1244916417   -1.3232271493