21

 C   -0.2016100031    1.5203900604   -0.1596934902
 C   -0.2811441601    0.0673621390    0.2733433134
 O   -1.1914674846   -0.6014731373   -0.5902708417
 C   -1.3649500419   -1.9411508067   -0.2904903726
 C   -2.2320283345   -2.3725638676    0.8501783527
 C   -2.7296184838   -2.5471980145   -0.5730677669
 C   -3.8253514185   -1.6356510441   -1.0483864060
 C   -4.3978085346   -1.9602165380   -2.4154787942
 O   -4.2190864898   -0.6983039028   -0.3920085055
 H    0.4875371843    2.0722181938    0.4865176823
 H    0.1532565533    1.5960826862   -1.1914401425
 H   -1.1879594447    1.9884134248   -0.1005465978
 H    0.7098483055   -0.4124489520    0.2179400251
 H   -0.6258813293   -0.0138724490    1.3147084161
 H   -0.5057918087   -2.5703796076   -0.5330477468
 H   -1.9607896969   -3.2544931865    1.4190221438
 H   -2.7457568519   -1.5868139899    1.3937842098
 H   -2.7169702295   -3.5359909971   -1.0198623660
 H   -4.8339968305   -2.9660102182   -2.4161377926
 H   -5.1613871213   -1.2291267574   -2.6828152293
 H   -3.6002867793   -1.9580184654   -3.1671666812