21

 C    0.0079434885    1.3118173583   -0.3885147217
 C    1.4456229067    1.5287060410    0.1134121487
 C    1.2840216723    0.1452153532    0.8002188967
 C    2.1354926989   -0.9755468100    0.2050058752
 C    1.8863323553   -2.2977864858    0.9363449968
 C    2.2815332223   -2.1735230949    2.4139190368
 C    1.7764646430   -0.8907795442    3.0191045855
 C    1.3248002919    0.1374478435    2.3003870298
 O   -0.1063489629    0.0655985489    0.3244111147
 H   -0.7343880006    2.0453940018   -0.0515339872
 H   -0.1005084217    1.1785937635   -1.4726464129
 H    2.2208757681    1.5743105072   -0.6539837889
 H    1.5747789435    2.3650900051    0.8030346214
 H    1.9078484651   -1.0647529206   -0.8622799553
 H    3.1940064992   -0.6927345924    0.2915990727
 H    0.8193011051   -2.5391868216    0.8630115069
 H    2.4363466790   -3.1158095628    0.4601083549
 H    1.8994842437   -3.0258159967    2.9892308670
 H    3.3767767748   -2.2176976394    2.5197715641
 H    1.7836165750   -0.8213949180    4.1050031503
 H    0.9366957627    1.0243027841    2.7961817947