18

 C   -0.0779926243    1.4092154090    0.0121244040
 N    0.0154177065   -0.0400530842    0.0447763275
 C   -1.2190519685   -0.7628214228   -0.0339983409
 C   -1.6190507363   -1.5003609288   -1.2846867073
 C   -1.1727083679   -2.2722079322   -0.0440496755
 C    0.1717144057   -2.8746578106    0.0031261500
 C    1.2746919239   -2.1209505994   -0.0047235978
 C    1.2581932664   -0.6381141237    0.0020067783
 O    2.2972267709    0.0075184327   -0.0073447703
 H    0.9290756919    1.8122879202    0.1058684746
 H   -0.5225061647    1.7559302474   -0.9297170181
 H   -0.7001128036    1.7710948889    0.8397509295
 H   -2.0114927338   -0.2885743829    0.5386366267
 H   -2.6704736874   -1.5401959052   -1.5462507535
 H   -0.9288426395   -1.4778726120   -2.1203566351
 H   -1.9522848123   -2.8017084627    0.4939337803
 H    0.2431478705   -3.9582045501    0.0535099846
 H    2.2707538826   -2.5467991838    0.0104232230