15

 N   -0.0188947226    1.4993920163   -0.0262658622
 C   -0.0027113716    0.0373602422   -0.0073387130
 C    0.1222242093   -0.5302212446    1.4381683863
 O   -1.2498484868   -0.9506784881    1.4477840169
 C   -1.4369184005   -0.5651252993    0.0781732526
 C    0.8794378339   -0.5534403590   -1.0035191047
 C    1.6248370369   -0.9986318600   -1.8466249424
 C    2.4640732186   -1.5059303712   -2.7956231916
 N    3.1790920398   -1.9360701584   -3.6042725968
 H    0.9219879226    1.8562560466    0.1236451870
 H   -0.3033992360    1.8288701803   -0.9458230805
 H    0.8164082150   -1.3709578144    1.5466195063
 H    0.3327777491    0.2392451984    2.1883697796
 H   -2.2280373872    0.1819197155   -0.0453591385
 H   -1.6170111307   -1.4254430643   -0.5759754291