19

 O   -0.4174598368    0.1714305554   -0.6317486082
 C   -0.2720181265    1.2516030745   -0.1394484728
 C   -1.3147112171    2.1479642044    0.5213376365
 C   -0.6260315335    3.5136090253    0.5598634117
 C    0.8638528944    3.1342512219    0.6020566180
 C    1.8755001336    4.1952745964    0.1213365976
 C    2.1827317576    4.5208139401    1.6102998375
 C    1.5419053193    3.1601514977    1.9994635297
 O    0.9385422978    1.8755899036   -0.0882851650
 H   -2.2526353659    2.1151928911   -0.0339709705
 H   -1.5112004521    1.7521911335    1.5244325743
 H   -0.8369874635    4.0699649799   -0.3596444062
 H   -0.9196774377    4.1386281539    1.4057079580
 H    2.7221767561    3.7139495838   -0.3738993010
 H    1.4932846756    4.9943157843   -0.5188703928
 H    3.2288781713    4.6710141937    1.8800992273
 H    1.6038134898    5.3725787428    1.9758924746
 H    0.8946383544    3.1219864208    2.8796352495
 H    2.2877259831    2.3647034969    2.0689366721