21

 C   -0.1438364635    1.2676368837    0.0933995226
 O    0.2630634677   -0.0844076095    0.1686740156
 C    0.6967397516   -0.6396915376   -1.0644904556
 C    1.3711767058   -1.9917947579   -0.8885092263
 C    0.3977771736   -2.9929999672   -0.3538780460
 O   -0.5668177107   -2.7113191422    0.6183706820
 C    0.2974323509   -2.6444493427   -1.8109017989
 C   -0.3670030607   -1.2812266665   -2.0442976029
 C   -1.8660180604   -1.1421278734   -1.7936475744
 H    0.6711833699    1.9027934259   -0.2840811291
 H   -1.0202123045    1.4023747748   -0.5534504687
 H   -0.3996181139    1.5855371397    1.1067283476
 H    1.3285540421    0.0921989737   -1.5836616049
 H    2.4442423790   -2.1373841070   -0.8491842377
 H    0.8389741365   -3.9741282045   -0.1881549679
 H   -0.4577085285   -1.7821550635    0.8633534523
 H    0.4496972456   -3.3901615528   -2.5831314344
 H   -0.1352992009   -0.9291697763   -3.0551809352
 H   -2.1316383806   -1.4328365478   -0.7769197717
 H   -2.2104408332   -0.1180389167   -1.9752745007
 H   -2.4171959458   -1.7963312722   -2.4784956357