15

 O   -0.1492181137    0.0393881255   -0.3685203643
 C   -0.0277185517    1.1389323445    0.1143368957
 C    1.2381200698    1.9204376316    0.0930418926
 C    1.6594966609    2.9512708797    1.1883354512
 C    2.6431378936    3.4995884912    0.1111831747
 C    3.4577486130    2.2551954761   -0.2162274815
 C    2.5569646350    1.2566739298   -0.2406372949
 C    1.4654770521    3.2056766321   -0.8931755914
 O    0.9587639350    3.6725006526   -1.8503128971
 H   -0.8889438084    1.6554667759    0.5938939044
 H    0.8637223829    3.6542192451    1.4559247385
 H    2.1310524197    2.5165046324    2.0732677984
 H    3.1309727883    4.4687439728    0.1824095737
 H    4.5015747051    2.2433362598   -0.4946858426
 H    2.6606578685    0.2242308910   -0.5386605572