17

 O   -0.1487607618    1.3336965421   -0.0133646109
 N    0.0153804640   -0.0691394695   -0.0428239253
 C   -1.1027474697   -0.6525750375   -0.1072807658
 C   -2.5781573594   -0.3219303468    0.0336898897
 C   -3.2801462846   -0.5482037421   -1.3081108523
 O   -2.5994359207   -1.5377852882   -2.0709748113
 C   -2.0392390605   -2.6079956843   -1.3202211366
 C   -1.5019947574   -2.1054484769    0.0244661864
 N   -2.7236248719   -1.6300614559    0.7944911062
 H    0.7624855067    1.6401731215    0.0435600277
 H   -2.8957624522    0.5874046318    0.5442606140
 H   -4.3211558658   -0.8416120059   -1.1082536951
 H   -3.2713736428    0.3602237363   -1.9177986472
 H   -2.7833091209   -3.3937501439   -1.1235285815
 H   -1.2350050794   -3.0194424387   -1.9378497197
 H   -0.8499541566   -2.8232912437    0.5243435444
 H   -2.4308642771   -1.4581211281    1.7558347171