12

 C   -0.0451404646    1.4021548153    0.0641896694
 O    0.0105919808   -0.0299956183   -0.0110556039
 C    0.6526677650   -0.5494993940   -1.1382317601
 C   -0.0235494531   -0.1454736989   -2.4052019659
 N   -0.5741838921    0.2001551049   -3.3586716188
 C    2.0810413143   -0.1258141989   -1.2154238349
 N    3.1768261112    0.2354359508   -1.2381164464
 C    0.5995392892   -2.0254152399   -1.0198439773
 N    0.5632669575   -3.1748665898   -0.9371941279
 H    0.9611919824    1.8331223093    0.1018564226
 H   -0.6003759234    1.8189084106   -0.7831001866
 H   -0.5733178273    1.6158040587    0.9926397899