19

 C    0.3624225174    0.8726389509    0.3642570249
 O   -0.4557372220    0.3062010984   -0.6480312232
 C    0.2351502043   -0.4615645373   -1.6020500050
 C    0.5232322786   -1.8992753789   -1.1685161230
 C   -0.6938387842   -2.6197794603   -0.6235925595
 C    1.4206926592   -2.6826122410   -2.1520561667
 C    2.4466579327   -2.6307417074   -1.0222050647
 O    3.5577554041   -3.0030838451   -0.8228784291
 O    1.6310742733   -1.9345658798   -0.1710668559
 H    0.8155722978    0.1120690674    1.0094493984
 H    1.1672096500    1.4817446784   -0.0736586777
 H   -0.2846692817    1.5187699459    0.9619147216
 H   -0.4084664303   -0.5040525891   -2.4898193729
 H    1.1814768782    0.0226543936   -1.8918319445
 H   -1.4544073813   -2.7154275419   -1.4054093902
 H   -0.4270072282   -3.6198929981   -0.2722128660
 H   -1.1298366998   -2.0547528544    0.2028416451
 H    1.0841733384   -3.6871986185   -2.4135487644
 H    1.7274873535   -2.1518977829   -3.0562752373