18

 O   -0.0336235369    0.0316251313   -0.5814472313
 C    0.1208911561    0.9384756462    0.2008087507
 C    1.2162687195    1.9319326625    0.1086745262
 C    2.0439916961    2.0586355821   -1.1218600154
 N    2.6935875608    1.4602111696    0.0377220065
 C    3.0457640055    2.6002988308    0.9653245414
 C    1.5793992760    3.0193528414    1.0954243516
 C    0.9856646658    4.3895021549    1.2426036949
 C    0.8660318821    3.3799964419    2.3636226362
 H   -0.5704214284    1.0799610279    1.0602260615
 H    1.8329534137    1.3383940286   -1.9056290212
 H    2.3399785508    3.0537558058   -1.4495739300
 H    3.4831873250    2.2051855130    1.8849104463
 H    3.7344468846    3.3225582557    0.5128301556
 H    1.6654717092    5.2246560070    1.3767264490
 H    0.0933490114    4.6271309669    0.6722022911
 H   -0.1110544333    2.9508528145    2.5580339275
 H    1.4681682118    3.5252957499    3.2549719393