19

 C   -0.1394652780    1.5480065506    0.0028580514
 C    0.0502555796    0.0391960061   -0.0413381480
 C    0.7205084463   -0.6190549923   -1.2510885435
 C    2.1510166443   -0.1868512371   -1.3787840046
 C    1.8061261741   -1.2358925572   -0.3606820203
 C    1.2013919401   -0.5759350957    0.8872440699
 O    2.0072197436    0.3228747022    1.5821935045
 C    0.6065489771   -1.5807714127    1.8388881661
 O    0.8028919604   -1.5322891977    3.0305419938
 H    0.7954281990    2.0813408054   -0.1813848482
 H   -0.8700749001    1.8609425151   -0.7509267078
 H   -0.5079134694    1.8633373023    0.9839414057
 H   -0.9036711033   -0.4547825796    0.1766924842
 H    0.1881605475   -1.0868361949   -2.0698496738
 H    2.6704761485   -0.5656478302   -2.2530325171
 H    2.4779582169    0.7970492459   -1.0590496675
 H    2.2423867087   -2.2274908314   -0.3892104288
 H    1.9261503638    0.0820025874    2.5194723131
 H   -0.0342290491   -2.3632233064    1.3838919609