20

 O   -0.0852295534    1.4647052488    0.0880792321
 C   -0.0823168218    0.0553613545    0.2027686632
 C   -1.5059551079   -0.5125817126    0.1504281211
 C   -2.3682215672    0.0417498041    1.2922781281
 C   -3.5166158828   -0.8305193749    1.7372670838
 O   -3.7839428054   -1.9245306738    1.3047874472
 N   -2.0685864125   -0.0979204801   -1.1419761178
 C   -1.8294871642   -0.9883558817   -2.2773834706
 C   -3.1892454651   -0.8655995972   -1.6879889402
 H   -0.6762396871    1.6549928397   -0.6530875975
 H    0.5184536441   -0.4123910715   -0.5943014242
 H    0.3903786618   -0.1917511391    1.1595683050
 H   -1.4618977866   -1.6102822679    0.2415222880
 H   -1.7581558955    0.2225095699    2.1893175119
 H   -2.7677810873    1.0289707121    1.0287712773
 H   -4.1278289036   -0.3848854688    2.5550748643
 H   -1.5876720001   -0.5016978371   -3.2176566912
 H   -1.2879474964   -1.9138777611   -2.0909744145
 H   -3.5580735298   -1.6991498544   -1.0987493527
 H   -3.9508434591   -0.2790927988   -2.1943436432