20

 C    0.2083917122    1.6022209493   -0.1445359812
 C   -0.0157748956    0.0897383729    0.0476771426
 C    0.6399288286   -0.4580098331    1.2769939410
 C    0.0921407769   -0.9287286877    2.4079253747
 C   -1.3365164376   -1.0685922853    2.8170394492
 C    1.1781152051   -1.3486297192    3.3109110229
 N    1.0388817595   -1.8437646914    4.4690595496
 O    2.3810413577   -1.1165935216    2.6913042457
 C    2.1390516284   -0.5559575755    1.4012909091
 H    1.2716200227    1.8437381126   -0.2390128191
 H   -0.2934277576    1.9516779365   -1.0515114196
 H   -0.1888184102    2.1664464464    0.7044541798
 H   -1.0900352829   -0.1159019372    0.0829179285
 H    0.3716683254   -0.4405745307   -0.8332474589
 H   -1.5605554180   -2.1105694271    3.0676093823
 H   -1.5313372128   -0.4874635614    3.7245369312
 H   -2.0244089030   -0.7377355717    2.0356312859
 H    1.9481569348   -2.0510837664    4.8841829716
 H    2.5811676471   -1.2086749154    0.6350593958
 H    2.6423718094    0.4181310460    1.3366981789