19

 C   -1.3516284157    0.4297222871   -0.3026350493
 O    0.0320448555    0.2075802520   -0.0788899548
 C    0.6565722034   -0.6844972500   -0.9676004119
 C    0.6020982009   -0.2091951936   -2.4289525003
 C    1.0652358697    1.2254311655   -2.5620352531
 O    0.3884503378    2.1173264229   -3.0052720771
 C    2.0599002457   -1.0841406014   -0.4614221632
 O    1.7448087353   -2.4848043747   -0.5882974579
 C    0.3469428812   -2.1971313693   -0.7909603949
 H   -1.5345008619    1.0038495591   -1.2191373359
 H   -1.9121006210   -0.5148846886   -0.3520874969
 H   -1.7144215646    1.0062814216    0.5506965685
 H    1.2611770519   -0.8566875719   -3.0215926036
 H   -0.4079914552   -0.2885984303   -2.8404535648
 H    2.1031977594    1.4188344227   -2.2081785646
 H    2.9269401512   -0.8005480195   -1.0677836492
 H    2.2184250103   -0.7815096636    0.5806076577
 H   -0.2540371764   -2.4044869974    0.1043602168
 H   -0.0642305174   -2.7392871005   -1.6495296457