19

 C   -0.1860326872    1.5206033947   -0.0099645431
 N   -0.1956398610    0.0764630322    0.1711684699
 C    1.0230152635   -0.6353253747   -0.1789340749
 C    0.6146358583   -0.4993296788    1.2530360090
 C    1.3487409510    0.3642617078    2.2455877088
 C    2.1162228928   -0.2643654301    3.3689707057
 C    2.8720535402    0.5198755642    2.3099984059
 C    3.7416770819   -0.1778011238    1.4063203002
 N    4.4577623120   -0.7285336221    0.6830041555
 H    0.7954170282    1.9943987811    0.1541180655
 H   -0.4990864422    1.7431457364   -1.0344470436
 H   -0.9108949952    1.9808933041    0.6700384568
 H    0.8969151448   -1.5846000303   -0.6923706641
 H    1.8788592356   -0.0519235611   -0.5096850252
 H    0.1280382490   -1.3562841252    1.7163362792
 H    0.8306087248    1.2825035625    2.5093850466
 H    2.0582817817    0.1677703187    4.3610730563
 H    2.2380000054   -1.3418053863    3.3475796044
 H    3.2412952065    1.5004035408    2.5928525172