17

 C   -0.7886048198    0.0047628108   -0.8996282288
 C   -0.0390569146    0.4079105639   -0.0489281425
 C    0.9052182179    0.8804824294    0.9684700425
 N    1.7911390393    2.0030189933    0.6242416415
 C    1.9671600735    2.4338256037   -0.7559731701
 C    1.2805380677    3.3118333129    0.2352208463
 C   -0.2051325717    3.6241421288    0.0869363656
 C   -0.8533261865    3.8525728541    1.3799102864
 N   -1.3509620943    4.0237956372    2.4088289953
 H   -1.4597852151   -0.3619369128   -1.6371873168
 H    0.3617903356    1.1544871988    1.8800422994
 H    1.5580435963    0.0419747542    1.2397290198
 H    2.9896595570    2.6365867132   -1.0631526780
 H    1.3403556442    1.9709271084   -1.5159851539
 H    1.8411274257    4.1305956689    0.6830065232
 H   -0.3211812035    4.5282359476   -0.5223854081
 H   -0.7290419117    2.8151244575   -0.4284399819