19

 C    1.2681435151    0.8772116701   -0.5250841718
 C    0.0956045671    0.2226377747    0.1655320676
 N    0.1202758822   -1.2320037241    0.3505946908
 C    0.1045097810   -0.3593146880    1.5416840064
 C    1.2929737023   -0.4027523862    2.4789652807
 C    2.5725895786   -1.1689763972    2.0856388629
 C    3.2390087796    0.1824179460    2.2155783954
 N    4.4129081447    0.6086005515    2.1034726402
 O    2.0704601691    0.8526287979    2.5231108554
 H    2.2153047247    0.3926652715   -0.2853768582
 H    1.1330451694    0.8277213067   -1.6110370366
 H    1.3427462288    1.9301425692   -0.2381433381
 H   -0.8648740498    0.6559383873   -0.1148540228
 H   -0.7948323647   -1.6453800605    0.1970782727
 H   -0.8444561794   -0.2795140762    2.0687256520
 H    0.9482270549   -0.6242747797    3.4931671042
 H    2.9157827158   -1.9242124952    2.7939393493
 H    2.5552989772   -1.5878036687    1.0798351472
 H    4.4587991635    1.6139161510    2.2797018926