18

 O   -0.0879256777    1.4718807529   -0.0358769487
 C   -0.0440711101    0.0597014135    0.0881444802
 C   -1.4285323622   -0.4862615546   -0.2815436590
 C   -1.3893823429   -1.9830795246   -0.0600845308
 C   -1.5918212985   -2.9811344498   -1.1597600763
 N   -0.2558027896   -2.6601267482   -0.6824041118
 C    0.6325833463   -1.9082927286   -1.4606019460
 O    1.0650386354   -2.2948876400   -2.5201586141
 C    1.0319104431   -0.5695623598   -0.8335004881
 H    0.7696209435    1.8258617685    0.2211148960
 H    0.1618122643   -0.2212686891    1.1333432392
 H   -2.1975311971   -0.0084800650    0.3304484369
 H   -1.6385062881   -0.2440825612   -1.3303460863
 H   -1.5918362318   -2.3119089397    0.9582000115
 H   -1.9527852278   -3.9777657204   -0.9230727333
 H   -1.8623679641   -2.6143940151   -2.1465085116
 H    1.2222215228    0.1108194105   -1.6682709044
 H    1.9815380446   -0.7021781993   -0.3019508733