20

 C    0.0582409950    1.4722122542    0.0280827417
 C    0.0165276883    0.0166037399   -0.0018209867
 C   -0.0161705840   -1.1875594504   -0.0117409277
 C   -0.0687768703   -2.6490874942   -0.0463150605
 C   -1.5227045031   -3.1603358212   -0.0045024107
 C    0.6907896289   -3.1866255228   -1.2770737686
 C    0.9481023455   -4.6909654895   -1.1930069266
 N    1.1954250738   -5.2950850193   -2.3920419611
 O    0.9502238887   -5.3071821785   -0.1438797097
 H    0.6334551468    1.8378845832    0.8861195226
 H    0.5233503498    1.8781820320   -0.8773589404
 H   -0.9485366961    1.8988055659    0.1003122333
 H    0.4484952725   -3.0492853236    0.8338830062
 H   -1.5347369963   -4.2524204779    0.0279043919
 H   -2.0362217838   -2.7818891705    0.8829238175
 H   -2.0788245314   -2.8215050058   -0.8848980382
 H    0.1498129791   -2.9387563391   -2.1979063952
 H    1.6667444371   -2.6910807527   -1.3471704343
 H    1.2645569192   -4.7759780552   -3.2494633288
 H    1.4700760806   -6.2638644043   -2.3887811047