15

 O    0.0051980056    1.4648307798    0.1056707907
 C   -0.0317400974    0.0521055011    0.0538523801
 C   -1.4828832097   -0.4610297647   -0.0977400672
 C   -1.4202691465   -1.3962492026   -1.2787231075
 C   -0.2397709042   -1.3920423656   -1.9125181567
 C    0.6635602265   -0.4286141966   -1.2647898348
 O    1.7160236359    0.0228528926   -1.6469145200
 C    0.6514082035   -0.5639241275    1.1952003475
 C    1.2313848659   -1.0710010153    2.1181171638
 H    0.8954782495    1.7138809949   -0.1827683598
 H   -1.8570458550   -0.9553507245    0.8026902118
 H   -2.1412886340    0.3907135958   -0.3031432273
 H   -2.2790253859   -1.9891710305   -1.5752062553
 H    0.0271429658   -1.9451194979   -2.8032882534
 H    1.7460010601   -1.5098779190    2.9372346082