13

 O    0.1119796897    1.3502708186    0.1766048597
 C    0.0751724550   -0.0028487726    0.0509160698
 C    0.0676494656   -0.7689075422   -1.0896078087
 N    0.0247908526   -2.0946608385   -0.6794851773
 C    0.0059877544   -2.1742551216    0.6690603610
 C    0.0361723652   -0.8825391327    1.1808238680
 C    0.0287436394   -0.5258986395    2.5913737738
 O   -0.0056025251   -1.3275781778    3.5044754725
 H    0.1342162371    1.7509163385   -0.6979237352
 H    0.0882223096   -0.5016890929   -2.1331135123
 H    0.0100962476   -2.8821748496   -1.3039239401
 H   -0.0271493790   -3.1144414399    1.1939794517
 H    0.0569216379    0.5659572503    2.7918579372