19

 C   -0.0252499812    1.5690102053    0.0592130455
 C   -0.0572959782    0.0422673798   -0.0282923710
 C    0.7486293172   -0.4845613974   -1.2327069074
 O    2.0835047248   -0.0551902273   -1.1735738725
 C    0.7417079660   -2.0226052963   -1.2773580319
 O    1.7720041035   -2.6381568355   -1.0357329747
 N   -0.4375300962   -2.6158162793   -1.5779485475
 C   -0.6088084469   -4.0560384987   -1.6381699460
 H    1.0075284488    1.9214914948    0.1100239223
 H   -0.4939836932    2.0259123881   -0.8199010836
 H   -0.5583360255    1.9239674439    0.9462567321
 H    0.3693783269   -0.3966249631    0.8818659879
 H   -1.0942166852   -0.3123299938   -0.0959954585
 H    0.2888038668   -0.1025635889   -2.1596057142
 H    2.5908721075   -0.8696047594   -1.0102245161
 H   -1.2260967139   -2.0261870843   -1.7882067466
 H   -0.9261975400   -4.3752560341   -2.6366130670
 H    0.3555487969   -4.5098223818   -1.4090127914
 H   -1.3489166180   -4.3991727421   -0.9071676597