16

 C   -0.0252260159    1.4768018585    0.0409614434
 N    0.0000705303    0.0305487658    0.0121540659
 C   -1.1156362722   -0.8127823097    0.0288303939
 C   -0.8203899093   -2.1317013471   -0.0030297163
 C   -1.7453374029   -3.3036844295    0.0019309478
 C    0.6439725852   -2.2212769657   -0.0460287393
 O    1.3649861674   -3.1882673819   -0.0838052200
 C    1.1556431287   -0.7336170961   -0.0336501551
 O    2.2886029225   -0.3272827965   -0.0577339128
 H    1.0115076247    1.8171058992    0.0178534090
 H   -0.5538630654    1.8837711272   -0.8279609815
 H   -0.5028303163    1.8492649213    0.9538156208
 H   -2.0986204365   -0.3579743808    0.0646845403
 H   -1.6047286391   -3.9205820061   -0.8924456324
 H   -1.5540385434   -3.9530795686    0.8632769636
 H   -2.7913641879   -2.9866519799    0.0379752728