21

 C   -0.4441591947    1.5914211712   -0.0277822195
 C   -0.0534178175    0.1214480493    0.0731976785
 C   -1.2002925013   -0.7868855965   -0.3923661633
 O    1.1096975709   -0.0726128671   -0.7550108180
 C    1.7573312469   -1.2210868983   -0.2829241164
 O    1.4301540611   -1.3692089474    1.0943752553
 C    0.4914513933   -0.3384424957    1.4448147212
 C    1.2307601904    0.7097258928    2.2782739760
 O    1.8709807482    0.0955572010    3.3780889313
 H    0.3969026956    2.2441003719    0.2131415302
 H   -0.7677705724    1.8181913392   -1.0474489773
 H   -1.2734871910    1.8177782185    0.6488963085
 H   -1.4254034281   -0.5946905614   -1.4451557502
 H   -0.9436956581   -1.8438807659   -0.2780688921
 H   -2.1034235579   -0.5964625155    0.1956369005
 H    1.4290638551   -2.1278374019   -0.8164344818
 H    2.8384476105   -1.0892823908   -0.4141511655
 H   -0.2854097551   -0.8047004861    2.0605834644
 H    1.9511978892    1.2448225532    1.6394973248
 H    0.5283384933    1.4443089766    2.6859139262
 H    2.3327872213   -0.6695814171    3.0124236772