16

 C    0.3089276688    1.3939126809    0.0270713596
 C   -0.1225486466   -0.0615223965    0.1924236470
 C    0.6017711915   -0.7852718298    1.3123135518
 O    1.3019320034   -0.2316769087    2.1242595863
 C    0.4205285049   -2.3082773470    1.3491297943
 O    0.7433099194   -2.8627102677    2.6085792467
 C    2.0559630749   -2.9052277749    2.9446013868
 O    2.4234911726   -3.2818273641    4.0136015486
 H    1.3683361768    1.4607314342   -0.2344305063
 H   -0.2719153109    1.8802768679   -0.7607639024
 H    0.1669791233    1.9467251852    0.9583160828
 H   -1.1978259514   -0.1308366991    0.4134685836
 H    0.0121874582   -0.6330656168   -0.7365167094
 H   -0.6172525210   -2.5824514903    1.1428806899
 H    1.0361646746   -2.7408639819    0.5449783907
 H    2.7227275316   -2.5930755212    2.1205850601