12

 O   -0.9963676290    1.4060784557    0.0063193056
 C    0.1119230300    1.0335307866   -0.2633720250
 C    1.3493708284    1.8956082841   -0.1197010860
 N    2.4626195968    1.3119445968   -0.4643863315
 C    3.6479562388    2.0296430218   -0.3645796268
 O    4.7471385009    1.6256811881   -0.6435728679
 N    3.4719795093    3.3573805567    0.1189657464
 C    2.2642256486    3.8539815579    0.4459410416
 N    1.1640364174    3.1713306552    0.3483033276
 H    0.3463477182    0.0206992024   -0.6454677571
 H    4.3125054710    3.9137874860    0.2063007738
 H    2.2388893897    4.8803196087    0.8064513193