18

 C   -0.4535279107   -1.1008141500   -0.2586274324
 C   -0.2055931584    0.0522202446   -0.0332430305
 C    0.0645284893    1.4542104035    0.2574020750
 O    1.3140311914    1.8312716119   -0.2913833762
 C    1.6220106911    3.1835317375   -0.0659241733
 C    2.1030404782    3.6317736420    1.3454830999
 C    3.1806549957    4.4955926284    0.6320992550
 C    2.9780890761    3.6293697159   -0.6422966200
 H   -0.6663830330   -2.1209592903   -0.4626870281
 H   -0.7426480134    2.0813041752   -0.1593965016
 H    0.0543627939    1.6122017069    1.3484129568
 H    0.7991696766    3.8256369137   -0.4200781932
 H    1.3926044991    4.1328187530    2.0070532932
 H    2.5528975816    2.7843410479    1.8714577939
 H    2.8450017427    5.5255550311    0.4845446813
 H    4.1791085354    4.5166322064    1.0721029193
 H    3.6634372558    2.7777056129   -0.6629617578
 H    2.9841434587    4.1187269896   -1.6182252713