16

 C   -0.1349376137    1.3685206462   -0.0559002627
 O   -0.1529616029   -0.0345981978    0.0924173895
 C    0.7608993556   -0.4959766154    1.0673690108
 C    0.7052783787   -1.9846525842    1.0734526062
 C    1.0556257428   -2.9583267780    1.9825507890
 O    1.5655317068   -2.7779337793    3.2183007108
 N    0.8180630527   -4.1813856488    1.4567779158
 N    0.3249882676   -4.0337692854    0.2495026035
 N    0.2695633563   -2.7200605729    0.0167108613
 H    0.8579019950    1.7314072552   -0.3628109941
 H   -0.8620766630    1.6217186697   -0.8302396113
 H   -0.4161119542    1.8768738421    0.8784729484
 H    1.7786896252   -0.1383395155    0.8301618382
 H    0.5140992074   -0.1077080796    2.0685033107
 H    1.6800285891   -3.6570145435    3.6011105693
 H   -0.1249448034   -2.3631513627   -0.8393967756