18

 C    0.5686764930    1.4051519712    0.1083513440
 O    1.0777460891    0.1573754740   -0.3805353730
 C   -0.2883557181    0.2120419872    0.0358338309
 C   -0.6381969631   -0.5834317415    1.2500299158
 N    0.4380118660   -0.9567540252    2.2072282121
 C   -0.2591047331   -2.0140811932    1.4393193878
 C   -1.3804716731   -2.7062008874    2.2065947197
 C   -2.3642818587   -1.5806422121    2.4612451193
 C   -1.9700551278   -0.4280074223    1.9163898881
 H    0.9621659217    1.7186693484    1.0734208482
 H    0.4714086134    2.1891149295   -0.6402752880
 H   -1.0086187563    0.1541727603   -0.7816644069
 H    1.3241805601   -0.7877438741    1.7272671619
 H    0.3052274012   -2.5518806939    0.6852416816
 H   -1.8321044498   -3.5169840135    1.6200861106
 H   -1.0176625973   -3.1505397709    3.1412731787
 H   -3.2613833064   -1.7167521135    3.0547904018
 H   -2.4993182509    0.5160556672    1.9707555575