13

 N    0.0402333264    1.4107032079    0.3356934745
 C   -0.0159588553    0.0545635592    0.0521889339
 C   -1.1245007264   -0.6912535299   -0.0548065105
 O   -1.0962073650   -2.0533458318   -0.2761821902
 C    0.0642409758   -2.7320351786   -0.3733191060
 O    0.1000156898   -3.9079225435   -0.5395096640
 O    1.2130808225   -1.9987987171   -0.2764464878
 C    1.2685392848   -0.6270455352   -0.0970692760
 N    2.3702817928   -0.0102108995   -0.0720653309
 H    0.9424801084    1.8061727560    0.1043749323
 H   -0.7358665719    1.9622973918    0.0018560385
 H   -2.1402455717   -0.3307498887    0.0203069545
 H    3.1613417197   -0.6406966505   -0.1986788783