18

 C   -0.0205490718    1.6385125662    0.0297136100
 C   -0.0520059950    0.1125575308   -0.0149565158
 C    0.7174263525   -0.5157037946   -1.2143072590
 C    1.9109892974   -0.8905781327   -0.2852272476
 C    1.0087738189   -0.5595994049    0.9098538114
 O    1.0325331808   -0.8108383590    2.0797890039
 O   -1.3811496594   -0.3851787646    0.0749125683
 C   -2.0004849313   -0.3256077608    1.2807248086
 N   -3.2185832882   -0.6458687566    1.3574223805
 H    0.9968794142    2.0162678037   -0.1109020489
 H   -0.6543534907    2.0370479039   -0.7682883964
 H   -0.3900355904    2.0109200013    0.9895261647
 H    0.1870609882   -1.3914028049   -1.5900243454
 H    0.9347748196    0.1627393698   -2.0397087182
 H    2.2815900415   -1.9172825552   -0.3196650498
 H    2.7665837323   -0.2117015865   -0.3565896705
 H   -1.3460286581   -0.0204330047    2.1021714205
 H   -3.5304216205   -0.5753443914    2.3241346036