23

 C    0.3281802968    1.3280044343   -0.0548572373
 O    0.2009185178   -0.0598212065    0.1773726809
 C   -1.1131537686   -0.5521430756   -0.0086291141
 C   -1.3970317964   -0.6532103040   -1.5068507133
 O   -2.4922207055   -0.6489671931   -2.0064537068
 C   -1.2377163735   -1.9299485393    0.7103057584
 C   -0.8663022857   -1.7293225883    2.1913992291
 C   -2.6890371189   -2.4309510107    0.6144781490
 C   -0.2782604724   -2.9523738245    0.0709420402
 H    1.3757251745    1.5881479088    0.1128103811
 H    0.0568738195    1.6069042420   -1.0842711336
 H   -0.3014279148    1.9105229024    0.6343649607
 H   -1.8542622590    0.1342335179    0.4313654039
 H   -0.4702022831   -0.7411822412   -2.1200487719
 H   -1.5360363278   -1.0068652180    2.6714421734
 H   -0.9566457971   -2.6775051339    2.7317998413
 H    0.1577190379   -1.3661314070    2.2968471634
 H   -3.0126801089   -2.5678271964   -0.4198604370
 H   -2.7811406572   -3.3921787718    1.1306848036
 H   -3.3834564795   -1.7294801248    1.0893766334
 H    0.7481565949   -2.5764702541    0.0652885166
 H   -0.2961174045   -3.8898046521    0.6360125313
 H   -0.5642050488   -3.1867918142   -0.9602975023