16

 O   -0.3739807147    0.1682880478    0.3686037535
 C   -0.0666043408    1.3306529366    0.3972610578
 C    1.2568965970    1.9121372976   -0.0311671202
 O    2.2771080756    1.0016189249   -0.4817622956
 C    2.5850984038    1.8527087200   -1.6191755020
 C    1.9125030933    1.4684313378   -2.9447428033
 C    0.5944782855    0.8668648175   -2.7136902084
 N    0.6929653207    2.3453668419   -2.6170556196
 C    1.3847113006    2.7523644653   -1.3309379116
 H   -0.7614314101    2.1127284164    0.7840816947
 H    1.6163255396    2.5100568186    0.8257592183
 H    3.6270811555    2.1739382095   -1.6413193807
 H    2.3951200066    1.5164156020   -3.9153899080
 H    0.0283948202    0.5763981514   -3.5932890636
 H    0.4324989915    0.2510208785   -1.8385332751
 H    1.4200157956    3.8361981643   -1.2447492461