20

 C    0.1433149832    1.4507950201   -0.1772192751
 C    0.1463485923   -0.0325188549    0.0931847736
 O    1.4138984179   -0.6675919543    0.3017578116
 C    0.4746338594   -0.6597086816    1.3851987967
 C    0.8666189976    0.0844908905    2.6422256041
 C    1.8195956900   -0.7172721623    3.5086770216
 C    3.2863835942   -0.7615608715    3.1656436696
 C    2.8199692349   -0.0175325727    4.3933096997
 H    0.8007408975    1.9935198678    0.5043348764
 H    0.4820489064    1.6469445744   -1.2000472140
 H   -0.8709856103    1.8533127749   -0.0793176132
 H   -0.5158592277   -0.6021228821   -0.5636750538
 H    0.0295896178   -1.6405555454    1.5746628584
 H    1.3339598752    1.0374198376    2.3756157375
 H   -0.0439973796    0.3221125983    3.2099697624
 H    1.3958761567   -1.6369173397    3.9055601423
 H    3.8217272169   -1.6946144824    3.3013379054
 H    3.6127003799   -0.1838458635    2.3081696433
 H    2.8439359059    1.0674074781    4.3716312601
 H    3.0341613116   -0.4436682111    5.3673053034