19

 C   -0.0591764309    1.5847400447   -0.0720176710
 C   -0.0701500571    0.0848328948    0.0482652759
 O    1.2099736001   -0.5936256337   -0.1597672958
 C    0.6164180028   -0.6295551935    1.1076278487
 C    1.1688214758   -0.2782870736    2.5030713850
 O   -0.1203090090   -0.7822582215    3.0347394329
 C    0.2934198518   -1.8074295946    2.0453447904
 C    1.7359362133   -1.7255549063    2.6322447637
 C    2.9618231810   -2.1990847443    1.8691688312
 H    0.8012113108    2.0109100990    0.4499563881
 H   -0.0118986371    1.8891769837   -1.1225485965
 H   -0.9735643341    2.0037462988    0.3612309903
 H   -0.8989739538   -0.4222094735   -0.4472403436
 H    1.5484714275    0.6614190412    2.9045169814
 H   -0.3597607306   -2.6687669437    1.9051767035
 H    1.7404532606   -2.0409119962    3.6794851560
 H    2.9524872963   -1.8816033088    0.8251980138
 H    3.8728026585   -1.8104128635    2.3368425122
 H    3.0245299441   -3.2922928090    1.8937255739