17

 C   -0.3057830210    1.4259201038    0.2810952795
 N   -0.0016155297    0.0013375740    0.2005168977
 C    1.3302471540   -0.4103278485   -0.1667601490
 C    0.8203027760   -0.6317209171    1.2363316780
 C    1.4588589215    0.1286575362    2.3957087038
 C    0.4734480903    0.6287595880    3.3564810902
 N   -0.3101943964    1.0397884445    4.0991232826
 C    0.3673108203   -2.0195351411    1.5787077348
 O    0.6621071150   -2.5898460380    2.5977645963
 H    0.5506164512    2.0556992322    0.5651149264
 H   -0.6539619180    1.7528873656   -0.7026201625
 H   -1.1093266226    1.5832781296    1.0041643101
 H    1.4103146206   -1.2403049235   -0.8647988602
 H    2.1061345158    0.3489600198   -0.2688936519
 H    2.1270205363   -0.5631279523    2.9186413304
 H    2.0605368143    0.9692132459    2.0421774692
 H   -0.2618828176   -2.4835478693    0.7900829344