19

 O   -0.0622782240    1.5297390129    0.1155490007
 C    0.0189986644    0.0904966248    0.0085269106
 C    0.8861873390   -0.5309822414    1.0811253709
 C    0.5881620007   -0.7035553392    2.3756929176
 C   -0.6381669881   -0.3468184244    3.1094500847
 C   -1.3929199119    0.9437177068    2.9058647992
 C   -2.0333451006   -0.3342496986    2.4274712017
 C   -2.2148638236   -0.6571241795    1.0005324315
 C   -1.3806667940   -0.4733218845   -0.0293100756
 H    0.8383598314    1.8502595344    0.2452810912
 H    0.4853303283   -0.1477276930   -0.9581210116
 H    1.8582317125   -0.8833359333    0.7435893943
 H    1.3407023542   -1.1978774735    2.9877521516
 H   -0.6592700569   -0.7321667950    4.1236792907
 H   -1.8157841490    1.4120152047    3.7879953578
 H   -1.0238738760    1.6134096573    2.1391125723
 H   -2.8255297321   -0.7189610923    3.0614992483
 H   -3.1750256317   -1.1164341251    0.7725428795
 H   -1.7293532725   -0.7732234412   -1.0133752755