18

 C    0.2252574065    1.5550088661   -0.0708919468
 C    0.0824759422    0.0583738838    0.0832981246
 O    0.9021541068   -0.6975241591   -0.8516096203
 C    1.3922002442   -1.5636356431    0.1956733520
 C    2.8900477764   -1.4564523917    0.4189030244
 C    3.0381076844   -0.2739528344    1.3569227942
 N    4.1161571880    0.3107420933    1.6451188134
 O    1.8118954180    0.0600582272    1.8869572099
 C    0.7516058763   -0.6654128007    1.2743451692
 H    1.2575506867    1.8711665491    0.0916754100
 H   -0.0770486109    1.8507072224   -1.0799912565
 H   -0.4178717010    2.0752191005    0.6464567432
 H   -0.9701476867   -0.2445143301   -0.0143582773
 H    1.0157638270   -2.5853118712    0.0908430314
 H    3.2915274179   -2.3546508848    0.8999604278
 H    3.4389350101   -1.2944475135   -0.5098843011
 H    3.9506636423    1.0670351015    2.3113058026
 H    0.1108295715   -1.0817020455    2.0523019993