17

 O   -0.0251861496    1.3115592108   -0.2215413263
 N    0.0299165169   -0.0905706009   -0.1778600120
 C   -1.1162908553   -0.6143420104    0.0430340265
 C   -2.3995690533    0.1501960178    0.2678234206
 C   -3.3731601574   -0.5642150355    1.1707552758
 C   -3.3096534734   -1.8645609328    1.4528518014
 C   -2.2684614491   -2.7390067444    0.8595251921
 N   -2.2237071293   -2.7736797487   -0.6245618480
 C   -1.1412367707   -2.0937431917    0.1221768036
 H    0.9001975943    1.5445727150   -0.3493004243
 H   -2.1554050096    1.1391088314    0.6660655723
 H   -2.8729778268    0.3378528270   -0.7076529497
 H   -4.1688878331    0.0444603884    1.5913744773
 H   -4.0397943885   -2.3243001707    2.1121690812
 H   -2.0512912857   -3.6658213545    1.3834784397
 H   -1.8826172831   -3.6807689298   -0.9359625614
 H   -0.1606816862   -2.5582780609    0.1497814910