18

 O    0.3337235775    0.1587097487   -1.1817581494
 C    0.3815035738    1.3317718650   -0.8731085348
 N    1.2093524813    1.8647140745    0.0707909227
 C    2.1576895979    0.9893059105    0.7574647116
 C    3.4481846367    1.6836113738    1.0921098075
 C    3.5657179748    3.0090545812    1.1385724713
 C    2.4049133474    3.9005709245    0.9028366104
 C    1.9306439265    4.2399879739   -0.4976092270
 C    1.1501940542    3.2711203711    0.3675621505
 H   -0.2584058918    2.1065329068   -1.3390660880
 H    1.7092771632    0.5709078835    1.6729941105
 H    2.3281005895    0.1374323724    0.0934184480
 H    4.2950387466    1.0397239862    1.3096989984
 H    4.5172057844    3.4745503930    1.3793623180
 H    2.2664716791    4.6825757923    1.6443624419
 H    1.5094060317    5.2239508948   -0.6729183081
 H    2.4837789538    3.8146705677   -1.3269331494
 H    0.2036173834    3.6134001900    0.7777284657