22

 C   -0.8821172779    0.1575693784    3.4065163789
 O   -0.8189870696   -1.0378264447    2.6697792095
 C   -1.6471217874   -1.0156061278    1.5202789240
 C   -1.4565930496   -2.3072355725    0.7707262903
 C   -2.1130153756   -3.5977904120    1.2181009439
 C   -2.9868513913   -3.6800906169    2.4519815054
 C   -2.5501945033   -2.9368042560   -0.0734189712
 C   -3.9193737882   -2.3188893950   -0.2741293974
 H   -0.2147407415    0.0508243000    4.2654987503
 H   -0.5569456738    1.0261484706    2.8107448738
 H   -1.9013824260    0.3620315836    3.7737905662
 H   -2.6957007100   -0.8614236969    1.8176427543
 H   -1.3741822321   -0.1601898699    0.8773848999
 H   -0.4465686969   -2.4078575259    0.3821556096
 H   -1.4920402705   -4.4806597062    1.0861668485
 H   -3.6478188789   -2.8172912876    2.5628287015
 H   -3.6205240742   -4.5734569272    2.4216202641
 H   -2.3695440201   -3.7331608669    3.3544331280
 H   -2.1821148037   -3.4221148424   -0.9745177628
 H   -4.3215303124   -1.8642411872    0.6339708629
 H   -3.8898670975   -1.5406609467   -1.0451820447
 H   -4.6381285796   -3.0784408009   -0.6016542552