23

 C    0.0329956002    1.4209652546   -0.5081306898
 C   -0.1134582037    0.0338643953    0.1233633759
 C   -1.5182357019   -0.5933556702    0.0155112429
 C   -1.4965674220   -1.9934080948    0.6496311250
 C   -2.5829690680    0.2836049126    0.6904763371
 O   -1.7258443960   -0.7067583741   -1.4094272268
 C   -2.9925641528   -1.1178292452   -1.8847816593
 C   -3.9090400104   -0.0095701631   -2.1740628626
 C   -4.6595549602    0.8907270317   -2.4405999440
 H    1.0798720578    1.7393662566   -0.4897647898
 H   -0.3029990579    1.4053805316   -1.5475336733
 H   -0.5485126814    2.1790099557    0.0255638842
 H    0.5869821990   -0.6572808448   -0.3598559098
 H    0.1631321543    0.0703362953    1.1839456368
 H   -1.2372107467   -1.9286597554    1.7110208374
 H   -2.4710236763   -2.4877861318    0.5850977053
 H   -0.7563106551   -2.6250144749    0.1501945272
 H   -2.6707365321    1.2538604562    0.1989058411
 H   -3.5682032027   -0.1910608330    0.6712409396
 H   -2.3159804220    0.4461792598    1.7397719552
 H   -2.8025198010   -1.6667162208   -2.8154100038
 H   -3.4798407590   -1.8263304454   -1.2013322125
 H   -5.3237640323    1.6871135744   -2.6694469059