19

 C   -0.0008522752    1.4497344272   -0.2322268249
 C   -0.0190716205   -0.0590164023    0.0755101528
 C    0.7584998762   -0.3769699258    1.3578836547
 C   -1.4282847182   -0.5768448807    0.1228123863
 C   -2.1060161281   -1.1648370783    1.1532136557
 N   -3.3796931551   -1.4415544513    0.6570852534
 C   -3.3873437385   -1.0086249545   -0.6256211870
 O   -4.4976585754   -1.1468278944   -1.3715646511
 N   -2.2527043675   -0.4847441032   -0.9975186110
 H    1.0256602555    1.8069116814   -0.3677462342
 H   -0.5673963521    1.6625611905   -1.1418320347
 H   -0.4531366619    2.0170576416    0.5891471239
 H    0.4814533400   -0.5657768388   -0.7618919556
 H    0.7828648776   -1.4531146279    1.5566926864
 H    1.7913394978   -0.0243344544    1.2792850290
 H    0.3056991550    0.1180585720    2.2248591096
 H   -1.8299997227   -1.4157584254    2.1624214015
 H   -4.1452902516   -1.8785568914    1.1399556915
 H   -4.2843766052   -0.7779566044   -2.2377964864