22

 C   -0.0153249212    1.5825885396    0.2732855028
 C   -0.1416532439    0.0803781501    0.0085333368
 C    0.8213471031   -0.4153714578   -1.0775247818
 C    0.7041109923   -1.9095982268   -1.3448175258
 O   -0.6451303983   -2.2080959618   -1.8189262041
 C   -0.4828210763   -3.0134644869   -2.8918426747
 N    0.6779187333   -3.2943050876   -3.3116664065
 C    1.6188167347   -2.5497063058   -2.4445107260
 C    2.4574869929   -1.5925195668   -3.2943326830
 H    0.9969812245    1.8461120575    0.6002305518
 H   -0.2313816496    2.1637471927   -0.6300873038
 H   -0.7115740633    1.9086344195    1.0520146903
 H    0.0462999369   -0.4747423840    0.9373261672
 H   -1.1673314841   -0.1614199552   -0.2903482752
 H    0.6441328786    0.1358097937   -2.0085541802
 H    1.8551212517   -0.2000640186   -0.7771345530
 H    0.8184968715   -2.4554736470   -0.4000385582
 H   -1.4109108911   -3.3664170701   -3.3293415948
 H    2.2967244034   -3.2718892930   -1.9763849471
 H    1.8298404488   -0.8632807942   -3.8145334916
 H    3.1893338113   -1.0518578618   -2.6865271548
 H    2.9968683848   -2.1667739557   -4.0517837185