15

 O    0.1272131339    1.4516164551   -0.1002830466
 C    0.0293248788    0.0584292038   -0.0187772611
 C    0.2848707508   -0.6811390738    1.3220862268
 C   -0.8567550316   -0.2624862988    2.2709325725
 C   -2.0243151027   -0.2353833956    1.3330154805
 C   -1.3554876158   -0.6429734473    0.0043217941
 C   -0.7425111662   -1.7779077430    0.8888114512
 N   -1.6850815970   -1.4971193177    2.0703288995
 H   -0.4252001530    1.8215546694    0.5982028342
 H    0.6591680618   -0.3524341784   -0.8146904275
 H    1.2773757261   -0.8696831265    1.7238874040
 H   -0.8157149720    0.2448989180    3.2269961570
 H   -2.9521205056    0.2944776939    1.5107959413
 H   -1.9665675535   -0.7942067672   -0.8821137399
 H   -0.5216493438   -2.7971335720    0.5843627541