17

 O   -0.0533040228    1.3167219799    0.1812722856
 C    0.0145239831   -0.0712329446   -0.0094028516
 C   -0.5210343344   -0.9566377620    1.1055014902
 C   -1.3317458569   -0.7525217286   -0.1553751160
 C   -2.6053924389    0.0704392856   -0.1489908396
 C   -3.7669329487   -0.6929529964    0.4531094298
 O   -4.8544788534   -0.8009164825   -0.0509926016
 C    1.1263317083   -0.5311139550   -0.8004856118
 C    2.0757254058   -0.8971694931   -1.4419481651
 H    0.7371333390    1.5868054983    0.6619731913
 H   -0.0508203391   -1.9173999593    1.2779184678
 H   -0.8381212717   -0.4257284170    1.9971294630
 H   -1.3356662573   -1.5894182341   -0.8466119941
 H   -2.4438596669    0.9713399816    0.4559762111
 H   -2.8833223792    0.3919686984   -1.1566181876
 H   -3.5410613333   -1.1661153014    1.4371234297
 H    2.9053626963   -1.2205011299   -2.0207995010