20

 C   -0.2855218850    1.2463309342   -0.3540571842
 C    1.1041992057    1.2055849752    0.2238528642
 C    0.2801898734   -0.0623024866    0.1469425243
 C   -0.2047979563   -0.7357565717    1.3761166155
 C    0.4497816836   -1.8940162062    2.1193428876
 N   -0.8648036527   -2.1680076433    2.8219194634
 C   -0.9942352607   -0.9259316295    3.6835381222
 C   -1.1560210396   -0.1004010858    2.4193928498
 C   -1.5411651291   -1.3568613550    1.6915735780
 H   -1.0633814217    1.7330314647    0.2227939706
 H   -0.3940588988    1.3661041367   -1.4263727648
 H    1.9490819724    1.3130003860   -0.4471516797
 H    1.2519023826    1.6420951634    1.2056472893
 H    0.5786248573   -0.7586478767   -0.6339105395
 H    0.6863984826   -2.7298240581    1.4541265788
 H    1.2975661365   -1.7073921678    2.7899069554
 H   -1.9175524476   -0.9843129713    4.2663367726
 H   -0.1459018908   -0.7454117077    4.3540897715
 H   -1.5595356453    0.8962365215    2.2934019229
 H   -2.3956861366   -1.6662411520    1.1066684421