14

 C   -0.0502866522   -1.2165339243    0.0480053850
 C   -0.0442429656   -0.0156195672    0.0144641227
 C   -0.0167916021    1.4388439985   -0.0040519161
 C    1.4373095165    2.0184804954   -0.0616673808
 C    2.1206933065    1.6414395296   -1.3013929187
 C    2.6682369633    1.3276948886   -2.3225280388
 C    1.4058297010    3.4733419825    0.1138151347
 C    1.3450377701    4.6619259698    0.2733249251
 H   -0.0634003865   -2.2780940698    0.0672199475
 H   -0.5756251675    1.8244748281   -0.8629447321
 H   -0.4978224627    1.8378868593    0.8955131053
 H    1.9881005624    1.5798726303    0.7815185871
 H    3.1579659208    1.0497777906   -3.2229024240
 H    1.3082297561    5.7147098186    0.4085235830