18

 C    0.0298832256    1.5522262995   -0.0201412543
 C    0.0374725990    0.0230793240    0.0119699682
 O   -1.3163658544   -0.4656863311   -0.0192428154
 C    0.7599466955   -0.6342300328   -1.1845198049
 C    1.4900480606   -1.8813440428   -0.6251977111
 O    2.7590104447   -2.1323107197   -1.2153686693
 C    1.5415213046   -1.6011906300    0.8605711804
 C    0.7825502733   -0.5631578746    1.2013036509
 H    1.0474847913    1.9558257286   -0.0172137413
 H   -0.4884530444    1.9103334468   -0.9146366043
 H   -0.4914040917    1.9550300666    0.8568743197
 H   -1.7506903434   -0.1834870646    0.7931439496
 H    0.0537553275   -0.8645832541   -1.9842794626
 H    1.5148600038    0.0493198293   -1.5872062010
 H    0.9196414880   -2.7968299355   -0.8216440927
 H    3.3264117269   -1.3809239349   -1.0090166764
 H    2.1259280602   -2.2192742339    1.5340160831
 H    0.6385716729   -0.1844658508    2.2094681415