14

 O   -0.0621469436    0.1273622163   -0.5340466141
 C    0.0042066362    1.3261213277   -0.3245593473
 C    1.2660574919    2.0047270157   -0.1434867801
 C    2.3210648756    2.5841312911    0.0093987538
 C    3.5025778335    3.2295780274    0.1796115687
 C    4.5532275846    3.8053981511    0.3314848580
 C   -1.2183405551    2.1824883540   -0.2464791648
 C   -2.1978153820    2.0258585721   -1.3744289204
 N   -2.5006853934    1.4943385128   -0.0546972372
 H    5.4784401593    4.3103585156    0.4651027259
 H   -1.1105560400    3.1469395719    0.2387419666
 H   -2.7784283236    2.8919098593   -1.6778331367
 H   -1.9251990821    1.3350975974   -2.1673398915
 H   -2.3011267314    0.4929272777   -0.0515618911