17

 O    0.5705960983    1.2584697968   -0.0126819214
 C    0.2460211786   -0.0669758156   -0.0201673784
 C   -0.0018500174   -0.8772644049   -1.1153187045
 N   -0.3137707159   -2.1296203803   -0.6021191958
 C   -0.2434393229   -2.1124637130    0.7600082866
 C    0.1030671225   -0.8406959297    1.1600179473
 C   -0.0061936192   -0.5966022077   -2.5604111655
 C    1.0207753862    0.3083078143   -3.1535172031
 N    1.0713407956   -1.1303787282   -3.4404864152
 H    0.4567337021    1.6007878686   -0.9051542127
 H   -0.5301267586   -2.9331459522   -1.1652671202
 H   -0.4428959666   -2.9990837260    1.3400444529
 H    0.2326985265   -0.4911159432    2.1715710512
 H   -0.9729192501   -0.6270440989   -3.0626300865
 H    0.7556868061    0.9358254782   -3.9995812912
 H    1.7789221357    0.7259141589   -2.4963432538
 H    1.7846664991   -1.5505811572   -2.8475606297