16

 N   -0.2454482933    1.2596876069    0.2744148423
 C    0.0309952698   -0.0262999533   -0.0922041909
 O    1.0396857947   -0.3892996746   -0.6481341320
 O   -1.0314660437   -0.8225973982    0.2228067968
 C   -0.8698549223   -2.2334099050   -0.0306442177
 O   -0.4771468730   -2.8974116456    1.1416654806
 C   -1.5681724591   -3.6505225938    1.6699407178
 C   -2.6273411814   -3.5893682739    0.6071723757
 C   -2.2186374427   -2.7983262526   -0.3772603296
 H    0.5307409955    1.8988189149    0.2685086990
 H   -0.9919502619    1.4249499829    0.9278532891
 H   -0.0835694961   -2.3332696430   -0.7813985809
 H   -1.2193163332   -4.6721395239    1.8701872483
 H   -1.9128751477   -3.2250586054    2.6248899522
 H   -3.5709246553   -4.1147101341    0.6776068088
 H   -2.7476655504   -2.5295768211   -1.2809967893