17

 C    0.0062254279    1.5604985381    0.1582870923
 O    1.4501082508    1.5801451264    0.0721634646
 C    1.5020292834    0.1430017925   -0.0399947589
 C   -0.0363165230    0.0313960348   -0.0434327263
 C   -0.2734556315   -0.6037542706   -1.4595553321
 O    0.8622214299   -1.4883294372   -1.5144308523
 C    1.8666557012   -0.4628821068   -1.4447919495
 C    1.4046898541    0.5179820211   -2.5128245232
 C    0.0753147589    0.4189382684   -2.5329693305
 H   -0.3353251106    1.8959633459    1.1445891790
 H   -0.4601366439    2.1763285646   -0.6188022702
 H    2.0728808130   -0.3183737272    0.7707665411
 H   -0.5080218966   -0.5566027084    0.7425072306
 H   -1.1988628319   -1.1657522064   -1.5760020123
 H    2.8619115911   -0.8941477143   -1.5391039360
 H    2.0421839948    1.1986796507   -3.0583373658
 H   -0.6368852576    0.9960387984   -3.1062290904