23

 C   -0.2688399543    1.5492582943    0.0677930829
 C   -0.0165244971    0.0525109189    0.0595635084
 C   -1.1771644625   -0.7664953184   -0.4759763054
 C    1.3809601392   -0.4435652681   -0.2409997899
 C    0.8178806940   -0.5794675239    1.1583343431
 C    1.3990977519    0.1782104433    2.3250167345
 O    2.2413501655    1.2618732682    2.0110082571
 C    0.5687220930    0.4045822642    3.5538489962
 C    1.7269101977   -0.5735386253    3.5949552174
 H    0.5855996526    2.1006501773    0.4627788395
 H   -0.4757319657    1.9083920730   -0.9476556576
 H   -1.1418197962    1.7937091236    0.6849240478
 H   -1.4122073897   -0.4845723879   -1.5095022688
 H   -0.9531726843   -1.8381568137   -0.4667227824
 H   -2.0824233766   -0.6084768461    0.1225082181
 H    1.5059768552   -1.3408564126   -0.8387155462
 H    2.1452542437    0.3098160449   -0.4017287353
 H    0.5070152333   -1.5842178691    1.4343600640
 H    3.0559713415    0.8965298813    1.6477142879
 H    0.6993262291    1.3528430169    4.0620361771
 H   -0.4418731608    0.0116117611    3.5667782479
 H    1.5110160996   -1.6356101843    3.6452215938
 H    2.6162646810   -0.2610216478    4.1309365199