15

 N    0.1914431163   -1.1596769415   -0.1806964452
 C    0.0974754670   -0.0171565079   -0.0316433761
 C    0.0268947209    1.4162768494    0.1305034344
 C    0.2557216334    2.2774037554   -1.1155847108
 C    1.3033028431    2.2259341792   -0.0493117909
 C    1.4795953986    3.3517680519    0.9428010037
 O    0.2361911068    3.8700819521    1.4444475317
 C   -0.7776535330    2.9921761943    1.6185981865
 N   -0.9493518072    1.8567287127    1.0836791873
 H    0.4512312424    1.7639023786   -2.0493507065
 H   -0.3787561630    3.1536043499   -1.1915419517
 H    2.2142251291    1.6781403369   -0.2680985388
 H    2.0700568467    2.9963930747    1.7963938428
 H    1.9949960010    4.2086492814    0.5003617397
 H   -1.5211958020    3.3966862428    2.3010545639