19

 C   -0.1611339369   -1.2366764717   -0.0687016528
 C   -0.1143678320   -0.0351743777   -0.0291199095
 C   -0.0588090808    1.4196608024    0.0279007318
 C   -0.5232414167    1.9638206831    1.4394612069
 C    0.7817816904    2.1692830033    2.2008276786
 C    1.7860752605    2.2573950058    1.3377088470
 C    3.2419464186    1.9323512121    1.0923920294
 C    2.7309999407    1.1816901162   -0.1955955258
 C    1.3903663550    1.9896448580   -0.0869640111
 H   -0.2111678493   -2.2964006644   -0.1101548191
 H   -0.7021582654    1.8191150410   -0.7636678327
 H   -1.0902085183    2.8969650858    1.3176785468
 H   -1.1881649963    1.2524710280    1.9377041589
 H    0.8378405068    2.1534714824    3.2829146868
 H    3.8464473988    2.8075973679    0.8312025609
 H    3.7700900229    1.3540866526    1.8541225476
 H    3.3164213162    1.3129931200   -1.1083683358
 H    2.5735050752    0.1183695110   -0.0071655609
 H    1.4130870306    2.8708927742   -0.7384459772