17

 C    0.0474652058    1.5966277532    0.1360797716
 C    0.0370126805    0.0714305380    0.0061003580
 C   -1.3800580912   -0.5262555404   -0.0732082235
 C   -2.1090438585   -0.3046705680   -1.4012848659
 O   -2.2741498419    0.7448340715   -1.9775542097
 C   -2.5797118442   -1.6367520680   -1.8878565723
 C   -2.1885367034   -2.6135507802   -1.0568509877
 C   -1.4038173205   -2.0508906784    0.0813015078
 O   -0.8686460601   -2.6901943676    0.9546586820
 H    1.0743706459    1.9728907102    0.1701743932
 H   -0.4672785971    2.0665458414   -0.7049845527
 H   -0.4547058897    1.9129357657    1.0572029761
 H    0.6030772367   -0.2336004465   -0.8828374622
 H    0.5345482996   -0.3919182455    0.8648598083
 H   -1.9916369423   -0.0959551668    0.7321652731
 H   -3.1490682689   -1.7369007795   -2.8041796590
 H   -2.3726526308   -3.6768659392   -1.1532759771