18

 C    0.3397197907    1.2320620080    0.1320643725
 O   -0.0153064565   -0.1302408550   -0.1343074673
 C    0.5184116673   -0.6415160841   -1.2602585803
 O    1.2679134317   -0.0512715670   -2.0011851981
 N    0.0274519995   -1.9155630700   -1.5042273282
 C    0.0407432321   -3.0167065952   -0.5596149335
 C    0.9069129284   -3.0396705725   -1.7841009887
 C    0.5791843627   -3.8251828470   -3.0289300049
 O    1.0829936316   -3.1795352180   -4.1814605196
 H    1.4220138331    1.3362464195    0.2413572447
 H    0.0039092378    1.8830835073   -0.6788974527
 H   -0.1651374293    1.4910604273    1.0628172968
 H    0.5260462797   -2.8567220860    0.3990767056
 H   -0.8697774615   -3.6085757458   -0.5216996076
 H    1.9691969731   -2.8548127260   -1.6314201290
 H    1.0531273729   -4.8121286356   -2.9920493427
 H   -0.5110735093   -3.9742592398   -3.0820928901
 H    0.8222660560   -2.2520937200   -4.1263023169