24

 C   -0.4221368820    1.4981343838   -1.2444815939
 C   -0.1114418065    0.0427168401   -0.8783505588
 C   -1.3808288103   -0.7449054721   -0.5385685015
 C   -1.2249454193   -2.1996834859   -0.1097246840
 C   -0.1189914841   -3.0639468662   -0.6813212768
 C   -0.0942230560   -2.6376620550    0.7739144308
 N   -2.5430862003   -2.7364444562    0.1865080425
 C   -3.2889326544   -3.3824442369   -0.8889884733
 C   -2.7814546318   -4.1677019540    0.2707311229
 H    0.4897607631    2.0495847103   -1.4936071848
 H   -1.0929787087    1.5540058285   -2.1089631354
 H   -0.9116037763    2.0188216416   -0.4141394579
 H    0.4150194079   -0.4305989431   -1.7158066050
 H    0.5816392178    0.0290712812   -0.0285574064
 H   -1.9234974028   -0.2293467283    0.2642073856
 H   -2.0499339482   -0.7240592144   -1.4103766914
 H   -0.3156704350   -4.1074159980   -0.9018172134
 H    0.5949968747   -2.6095524009   -1.3586075804
 H    0.6463503308   -1.9112984277    1.0885209292
 H   -0.3168107530   -3.3941200875    1.5193620280
 H   -4.3403019912   -3.1197877131   -0.9670830185
 H   -2.7795078550   -3.5340520179   -1.8393020572
 H   -1.9663383732   -4.8622688817    0.0807755040
 H   -3.4537867064   -4.4770256465    1.0666257656