17

 C    0.1495386672   -1.2200808616    0.0573712889
 C    0.0024521226   -0.0225073916    0.0492583882
 C   -0.1029052081    1.3906839864    0.0211442672
 C   -1.2996868885    2.0087083017    0.1459787903
 C   -1.5654531174    3.4343057088    0.0770671203
 C   -0.7082408657    4.4683048548    0.1183114241
 C    0.7716706687    4.4585371746    0.3600324492
 O    1.3382395569    3.2333351243    0.7523654559
 C    1.1888037158    2.1694962759   -0.1721420143
 H    0.2595762572   -2.2759741453    0.0707201238
 H   -2.1740033072    1.3758854881    0.2681909428
 H   -2.6172346221    3.6830791742   -0.0460451024
 H   -1.1175102291    5.4699364085   -0.0050934640
 H    1.2855073773    4.8693797200   -0.5296372447
 H    0.9965760165    5.1510134594    1.1825614922
 H    2.0407298003    1.5023348404   -0.0199022210
 H    1.2391063557    2.5470370415   -1.2057424866