17

 C   -0.0448734619    1.3871054086    0.0956592803
 N    0.0438435578   -0.0512947103   -0.0154647525
 C    0.1661401423   -0.7894438792   -1.1616192309
 C    0.1180804408   -2.1086884421   -0.7677747200
 C    0.1749225974   -3.5102235832   -1.1612221040
 C    0.0555768702   -4.2753863278   -0.0568470181
 C   -0.0921351979   -3.4378873306    1.2085622720
 C   -0.0406188711   -2.0504120889    0.6361919840
 N   -0.0900891629   -0.8148971286    1.1024191673
 H    0.3868324952    1.8431000703   -0.7976685044
 H   -1.0846186657    1.7172867454    0.1986333462
 H    0.5151421881    1.7132468195    0.9740602014
 H    0.2764617458   -0.3056360816   -2.1191347677
 H    0.2916130274   -3.8787220178   -2.1724061409
 H    0.0593424644   -5.3577867859   -0.0384486079
 H   -1.0321036472   -3.6515622100    1.7332134323
 H    0.7146139074   -3.6355591679    1.9258009130