17

 O   -0.0001473217    1.5229665175   -0.3531603796
 C    0.0453235871    0.1588897577    0.0354826546
 C   -1.2720824950   -0.4724611245    0.1101762427
 C   -2.3682126618   -0.9744805886    0.1224866717
 C   -3.6949214224   -1.5253293338    0.1765818741
 O   -4.1676818359   -2.2691108776   -0.9633345156
 C   -3.9642065713   -2.9780845893    0.2628178808
 C   -2.8759325723   -4.0213790995    0.2292846664
 O   -3.2866520701   -5.1546509512   -0.5162342927
 H   -0.4942902389    1.5735123813   -1.1782422667
 H    0.6888005011   -0.4326463634   -0.6352702284
 H    0.5223770691    0.1451801850    1.0217938983
 H   -4.4471571408   -0.8603775079    0.6005792362
 H   -4.8889303182   -3.2862127946    0.7533377843
 H   -1.9546190061   -3.5770203230   -0.1704688462
 H   -2.6698378351   -4.3772636488    1.2444325049
 H   -3.4806363979   -4.8462476992   -1.4086494350