14

 N   -0.8159260015    1.1188292384    0.8765626070
 C   -0.2410652158    0.0439096310    0.2407018145
 N   -0.5955962153   -0.5336129185   -0.8575354419
 C    0.2715055803   -1.6285236825   -0.9708649003
 C    1.1122037976   -1.6227253926    0.0860991992
 N    2.1752073165   -2.3920924922    0.5363901569
 C    2.6742878248   -3.4762471263   -0.1337099955
 O    2.2512858073   -3.8816865336   -1.1924033036
 O    0.8013520636   -0.5492152590    0.8918031633
 H   -0.1640427950    1.7136534396    1.3688129059
 H   -1.4283198578    1.6356632027    0.2616623070
 H    0.2369862686   -2.3220442530   -1.7908699482
 H    2.5803499407   -2.1337286679    1.4230362050
 H    3.5154819162   -3.9384818259    0.4150699406