15

 C   -0.7920702749    0.3324236135    0.7636775978
 C    0.3297655162    0.1717756161   -0.2131420956
 O    1.3949556488    0.7439388682   -0.1452284724
 C    0.1535162158   -0.7955642865   -1.4232488485
 O    1.3097537132   -0.7920181180   -2.2007981159
 C   -0.1072102772   -2.2343834395   -0.9217175769
 O   -1.0299820473   -2.5776120314   -0.2390999837
 C   -1.0385290938   -0.3441437663   -2.2976540619
 O   -2.1754625968   -0.2523953893   -1.9312488039
 H   -0.4987927871    1.0351682942    1.5435350097
 H   -1.6904216609    0.6768066969    0.2432002829
 H   -1.0560491982   -0.6398579351    1.1895261236
 H    1.9138167722   -0.1706176324   -1.7541716994
 H    0.6814280122   -2.9227880908   -1.2898515632
 H   -0.6998652824   -0.1198853996   -3.3303265925