16

 C    0.2649903087    1.3914710738    0.2922938915
 C   -0.0331166512   -0.0440986967   -0.0765755934
 C    0.4549697364   -0.6044561269   -1.3512100250
 O    1.1133250991   -0.9179581738   -0.1257277555
 C   -1.2294824433   -0.6220581493    0.5631420279
 C   -2.1301761789   -0.1719484206    1.4743906360
 N   -3.0768702863   -1.1591650806    1.7210523253
 C   -2.7079044017   -2.1379290310    0.9632625365
 O   -1.6010281085   -1.8978665790    0.2250173444
 H    1.1884918637    1.7125904495   -0.1935673065
 H   -0.5476300845    2.0543600029   -0.0205810322
 H    0.3952679227    1.4935094994    1.3741580380
 H   -0.0817756591   -1.4284322596   -1.8164727138
 H    1.0072316701    0.0427257528   -2.0322265326
 H   -2.1706632986    0.7849748460    1.9688221138
 H   -3.1631987887   -3.1092410670    0.8503294956