21

 O    0.0448934983    1.4396605165    0.3430407408
 C    0.0281411794    0.0447885065    0.1208762120
 C   -1.3803940697   -0.4703698635   -0.0418622942
 C   -2.4302134145    0.3520474203   -0.0087352140
 C   -3.8827280498   -0.0427346429   -0.1277845119
 C   -4.2267933850   -0.9932739830   -1.2797700159
 O   -3.7399529602   -2.3116157752   -1.1127436063
 C   -2.3563805465   -2.4750778321   -1.3457027224
 C   -1.4623278661   -1.9747446804   -0.2055085746
 H    0.9609681215    1.7195059535    0.4193137733
 H    0.6070311643   -0.2217856125   -0.7827047627
 H    0.5053503959   -0.4993900111    0.9567810338
 H   -2.2260957718    1.4064738229    0.1458992428
 H   -4.2282434538   -0.5094046088    0.8064386483
 H   -4.4893259063    0.8616601693   -0.2557303354
 H   -5.3153937247   -1.0940211230   -1.3500598216
 H   -3.8623113129   -0.5720745165   -2.2309881190
 H   -2.2076705094   -3.5536989703   -1.4679973481
 H   -2.0659379211   -1.9837704309   -2.2888997874
 H   -0.4548132742   -2.3776555225   -0.3760382442
 H   -1.8182462233   -2.4340181764    0.7274926068