18

 O   -0.2127786525    1.5262186798   -0.3285177546
 C   -0.0066759119    0.2167621010    0.1833366056
 C   -1.3340580170   -0.5069739077    0.0569637260
 C   -1.7777335456   -0.9282913395   -1.3585555926
 O   -1.9192685271   -2.3110868110   -0.9542426581
 C   -1.4342496771   -2.0200164291    0.3837323458
 C   -0.1834629257   -2.8443900627    0.6556349743
 O   -0.4827919418   -4.2177582322    0.4990967630
 H    0.6275874550    1.9935623145   -0.3132330656
 H    0.7763195613   -0.3081968462   -0.3844682692
 H    0.3110159683    0.2434476895    1.2382919200
 H   -2.0925446274    0.0817597899    0.5778163613
 H   -2.7252546062   -0.5124951293   -1.7165162144
 H   -1.0161975338   -0.8022258175   -2.1386362413
 H   -2.1970760618   -2.2787001764    1.1288899520
 H    0.6307944609   -2.5373427195   -0.0190146925
 H    0.1590224335   -2.7026997410    1.6868982924
 H   -0.9124663012   -4.2921793225   -0.3627002521