16

 N   -0.0524202263    1.3066023531    0.0249041329
 C   -0.0631547146    0.0418804285    0.0091799262
 O    1.0647259102   -0.7632980762    0.0254610086
 C    0.6937600481   -2.1536609661   -0.0002026988
 C   -0.7986461769   -2.1183104901   -0.0343547405
 C   -1.2128084784   -0.8549472293   -0.0284518221
 C   -2.7027188105   -0.7882129410   -0.0623171629
 O   -3.1019560289   -2.1710986194   -0.0886790026
 C   -1.9681273174   -3.0462293881   -0.0730088937
 H    0.9059095787    1.6585932962    0.0513992108
 H    1.1435608829   -2.6259242651   -0.8832285763
 H    1.1024698132   -2.6476906689    0.8908518678
 H   -3.1308818924   -0.2949213900    0.8207673369
 H   -3.0895986398   -0.2730360647   -0.9519308316
 H   -1.9781054335   -3.6879170434   -0.9675654469
 H   -2.0194064045   -3.7096953657    0.8040765823