23

 C    0.0039772405    1.5460852881   -0.1215157440
 C    1.3988645822    2.1554702229    0.1751607960
 C    2.3328481578    1.1520191300    0.8955491969
 C    1.5338566879    0.4085008405    1.9862911865
 C    0.3953615777   -0.4514934352    1.3792076927
 C   -0.0112590315    0.0094433202   -0.0413412890
 C    0.8461896312   -0.6661743998   -1.1331137409
 C    2.3393543308   -0.5704593077   -0.9609309895
 C    2.9873085322    0.1926340595   -0.0811379696
 H   -0.7241918312    1.9264953794    0.6054386789
 H   -0.3528104850    1.8721123967   -1.1049365183
 H    1.8793301902    2.4841792248   -0.7511997906
 H    1.2819323192    3.0489126387    0.7996890481
 H    3.1295314708    1.7227349319    1.3846381237
 H    2.2013510536   -0.2177702991    2.5869566426
 H    1.1149014890    1.1577359438    2.6700694818
 H    0.6970024245   -1.5036143619    1.3412133841
 H   -0.4788053902   -0.4082353741    2.0384040424
 H   -1.0428533301   -0.3173131076   -0.2207829049
 H    0.5782604710   -1.7323433144   -1.1727870302
 H    0.5626779181   -0.2685129378   -2.1204107722
 H    2.9226731554   -1.2068014557   -1.6249324973
 H    4.0738407360    0.1444802269   -0.0567193472