21

 C   -0.0203203140    1.5702928010   -0.0250808158
 C    0.0340460631    0.0314835352   -0.0208824133
 C    0.6872636375   -0.4977058515   -1.3107525231
 C    0.7266564879   -0.4966457406    1.2082949053
 C    0.1907973334   -1.2816414251    2.2114786922
 N    1.1699833145   -1.5040951694    3.1251131306
 C    1.1105700543   -2.3320732617    4.3093085137
 N    2.3303541941   -0.9161955184    2.7776271375
 C    2.0660961390   -0.3055464857    1.6247236857
 H    0.9882549178    1.9971561111   -0.0529496679
 H   -0.5637996004    1.9396134817   -0.9014948574
 H   -0.5168663907    1.9502429695    0.8725658655
 H   -0.9999637645   -0.3370012064    0.0029360339
 H    1.7253703515   -0.1571107495   -1.3917692936
 H    0.6943446834   -1.5914436583   -1.3298137508
 H    0.1489808754   -0.1414344599   -2.1956867450
 H   -0.8012154198   -1.6871123387    2.3405958015
 H    1.4685981096   -3.3472792144    4.1055660108
 H    1.7396059994   -1.8852612569    5.0805556365
 H    0.0794407724   -2.3824385793    4.6655278672
 H    2.8465018062    0.2597563275    1.1353984666