19

 C   -0.0908952436    1.5371630793    0.0095376136
 C    0.0373136460    0.0187984306    0.0150729489
 C    1.0765188585   -0.5958128886   -0.9453120011
 O    2.3326868846   -0.0495885411   -0.4253568545
 C    2.2010024663   -0.0639672152    0.9949948636
 C    0.7605638391   -0.6310475102    1.2328338638
 O    0.1798995335   -0.3418735174    2.4738970584
 C    0.8304032098   -2.0789177343    0.7728384507
 C    1.0233423183   -2.0614027381   -0.5505564470
 H    0.8805479958    2.0268193497   -0.0908707201
 H   -0.7166527712    1.8633852030   -0.8273641003
 H   -0.5620846250    1.8824731971    0.9348936364
 H   -0.9403697992   -0.4522295842   -0.1092295045
 H    1.0258562114   -0.3469592098   -2.0038087360
 H    2.9772068925   -0.6947435810    1.4472663226
 H    2.2856304860    0.9527907335    1.3976327066
 H    0.7288474745   -0.7203927329    3.1684657610
 H    0.8314509396   -2.9303797103    1.4433914831
 H    1.2266450530   -2.8969572800   -1.2076874552