19

 C   -0.0795596164    1.5664280594    0.0075587719
 C   -0.0106673155    0.0290513059    0.0010876692
 C   -1.4257508303   -0.5621615765   -0.0076152280
 C    0.7504132412   -0.4621102660   -1.2365353077
 O    2.1273167040   -0.0570626007   -1.2225851840
 C    2.7329652609   -0.1019646417   -0.0104365584
 N    2.2280970783   -0.3001656335    1.1305469625
 C    0.7814065155   -0.4826821962    1.2238226898
 H    0.9157383871    2.0173941898    0.0325023698
 H   -0.5952068248    1.9389137379   -0.8844119542
 H   -0.6296952573    1.9210245825    0.8852810159
 H   -2.0017727833   -0.2038266627   -0.8683397727
 H   -1.4034710142   -1.6567481469   -0.0486911141
 H   -1.9703493314   -0.2733832365    0.8976502065
 H    0.7141725132   -1.5582492187   -1.2961931237
 H    0.3319227790   -0.0537956626   -2.1607776473
 H    3.8003218208    0.0792689370   -0.1254846941
 H    0.4376748153    0.0273090080    2.1319280553
 H    0.5795735579   -1.5508587686    1.3835415433