14

 O   -0.0776140090   -0.0857658590   -0.1297521204
 C   -0.0835108369    1.0846573659    0.0956814867
 C   -1.2820125205    2.0025982884    0.0784073494
 C   -1.1702879552    3.0784209112    1.1803116032
 N    0.1404637652    3.7390916635    1.1453614756
 C    1.1128200856    3.0431305506    0.7541340835
 O    1.1177765687    1.7207423995    0.3638942887
 C   -2.2549287671    4.0514095475    1.0710752119
 C   -3.1742381666    4.8153859146    0.9596588471
 H   -1.3078717430    2.5021219977   -0.8976840862
 H   -2.1869230454    1.4021073347    0.1733347196
 H   -1.2527382313    2.5870917121    2.1621124904
 H    2.1231701359    3.4401051753    0.7142401552
 H   -3.9783825505    5.5039670681    0.8725685554