15

 C    0.0582626997    1.4099293760    0.0593638329
 O   -0.1763271404    0.0297059149   -0.1112216633
 C    0.5949162159   -0.5515061560   -1.1364789621
 C    2.0459440883   -0.8440889659   -0.8181163746
 C    2.2578570964   -2.1522571343   -0.9844894270
 N    1.0923842559   -2.8253849861   -1.3832729030
 C    0.0118276984   -1.9630825296   -1.4380771923
 O   -1.1315295006   -2.2562738071   -1.6756507619
 H    1.0859071554    1.6219214940    0.3897119954
 H   -0.1301287009    1.9691097122   -0.8704174020
 H   -0.6347238235    1.7578435348    0.8286695652
 H    0.5075960503    0.0485743884   -2.0601611077
 H    2.7892794347   -0.1109669162   -0.5468485120
 H    3.1747878798   -2.7146842794   -0.8742834951
 H    0.9890893806   -3.8240363656   -1.4526311424