19

 O   -0.0711228984    1.3332445499   -0.2952826364
 C    0.0724280183   -0.0466829975   -0.0078139607
 C    0.7780247748   -0.2633044913    1.3517006350
 C   -0.0266512956   -0.0843347536    2.6205645485
 C   -1.3208020469   -0.3578394637    2.7984856651
 C   -2.2314903230   -0.8361074483    1.6987181172
 C   -1.6252341478   -1.9051410786    0.7550642961
 C   -1.3144468448   -0.6984301175   -0.1485690749
 O   -2.2767819192    0.1125859689    0.5820295285
 H   -0.8827641192    1.5987999149    0.1616139766
 H    0.7331683550   -0.4539659212   -0.7833152707
 H    1.2263200622   -1.2685277813    1.3674590945
 H    1.6236581914    0.4318496234    1.3643540968
 H    0.5424099468    0.2690867654    3.4779707753
 H   -1.7650598597   -0.2123674331    3.7793411765
 H   -3.2403633546   -1.0304328422    2.0714336034
 H   -0.7942727923   -2.5021073310    1.1312519000
 H   -2.3870796762   -2.5586974883    0.3272260926
 H   -1.5893204810   -0.7672980050   -1.2053304533