18

 C    0.3138928522    1.5189272288    0.1597522626
 C    0.0249675482    0.0514437729    0.0109526476
 C    0.2461462416   -0.6376685840   -1.1061908338
 C   -0.1369027264   -2.0826902135   -1.2560224839
 O    0.7299240234   -2.7550841695   -2.1358606772
 C   -0.1518817278   -2.8119198489    0.0901313309
 O    0.1152636568   -4.0033860927    0.1406709480
 N   -0.4899015583   -2.0728514389    1.1724493814
 C   -0.5750063157   -0.6200436132    1.2225158980
 H    1.0524103057    1.7023969386    0.9503951999
 H    0.6972874767    1.9425965354   -0.7711331461
 H   -0.5897063922    2.0765729135    0.4386037423
 H    0.6768719850   -0.1664682340   -1.9849705214
 H   -1.1756497730   -2.1341886253   -1.6401012288
 H    0.7996193220   -3.6509579335   -1.7677034262
 H   -0.5051575740   -2.5805491091    2.0450705581
 H   -0.0505782364   -0.2765949834    2.1242850629
 H   -1.6219671078   -0.2961159834    1.3420834759