21

 C    0.2683654758    1.6098527451   -0.2185657655
 C   -0.0534031620    0.1293706518    0.0525374868
 C    0.5477021557   -0.3870890757    1.3151236408
 C    0.0349186388   -0.8365339260    2.4968353246
 C   -1.4044513668   -0.9595594707    2.8917225448
 C    1.1689919503   -1.1843542469    3.3247719039
 C    1.1276269789   -1.7293967299    4.7178041850
 C    2.2666414299   -0.9140637631    2.5744462173
 O    1.9146123738   -0.4298381255    1.3524315373
 H    1.3493211655    1.7657420386   -0.2709173608
 H   -0.1706439665    1.9361240516   -1.1664821581
 H   -0.1247896672    2.2475911086    0.5791258931
 H   -1.1373328505   -0.0139502429    0.1014451452
 H    0.3011085498   -0.4758737872   -0.7922668410
 H   -1.6655301634   -1.9932265113    3.1493574985
 H   -1.6356674456   -0.3464964053    3.7713964257
 H   -2.0731220951   -0.6428503225    2.0870552506
 H    0.5825148330   -2.6798674061    4.7646648336
 H    2.1355778886   -1.9063389145    5.1034154949
 H    0.6240970698   -1.0411758864    5.4074004525
 H    3.3250790274   -1.0090036216    2.7567623609