19

 C   -0.0391115635    1.5370413210   -0.0250860175
 C   -0.0122384292    0.0076956003   -0.0227162130
 C    0.7241681180   -0.5593778235    1.2081986249
 C    0.7700889435   -2.0135221829    1.2450339556
 C    0.8032847870   -3.2206668341    1.2673184525
 C    0.8496456644   -4.6699693307    1.3055435659
 O    1.3843595084   -5.2884403861    2.1952799718
 C    0.1609298745   -5.3362684177    0.1186710934
 O    0.2541766354   -6.7289434587    0.2396086065
 H    0.9745768251    1.9526038755   -0.0359767993
 H   -0.5649955302    1.9194480686   -0.9046424130
 H   -0.5479240013    1.9272549470    0.8632945215
 H   -1.0336133739   -0.3884629575   -0.0376596011
 H    0.4772613926   -0.3633024322   -0.9299782278
 H    1.7511446445   -0.1704186189    1.2363967087
 H    0.2437710473   -0.1954920111    2.1266580679
 H   -0.8809172347   -4.9714285522    0.1004106314
 H    0.6413736985   -4.9473645560   -0.7961299202
 H   -0.1851664762   -7.1236775110   -0.5190711581