23

 C   -0.0415126899    1.5338177303   -0.0293353504
 C    0.0626181767    0.0164010403    0.0288490203
 C   -1.1650265925   -0.6494860056   -0.5813615439
 C    1.3449505473   -0.7388068513   -0.2291893891
 C    2.5664915683    0.0256530423    0.2813671315
 C    1.9509173190   -0.0464158690    1.7198519458
 O    1.7216629776    1.1349183447    2.4645762048
 C    0.6994975267   -0.7423108691    1.1814108467
 C    0.0158676348   -1.8120757100    1.9922918792
 H    0.7690167636    2.0386850839    0.4930005231
 H   -0.0617739635    1.8753860618   -1.0718334378
 H   -0.9764203977    1.8615756281    0.4401945710
 H   -1.3398910066   -0.2525663946   -1.5878047262
 H   -1.0556952957   -1.7335281262   -0.6722784896
 H   -2.0649651856   -0.4491041119    0.0115650670
 H    1.3799492244   -1.5492163254   -0.9492001297
 H    3.5048886915   -0.5283095516    0.1996373457
 H    2.7136346911    1.0284721770   -0.1301581421
 H    2.5219269009   -0.7655718992    2.3247434642
 H    2.5653267477    1.4351702712    2.8176496711
 H   -0.4611921369   -1.3712101241    2.8763781942
 H   -0.7589997446   -2.3403572340    1.4326548039
 H    0.7358558635   -2.5586204277    2.3483149101