19

 C   -0.1017759859    1.3083273635    0.0259174084
 N   -0.0233118280   -0.1363320066   -0.0270840701
 C    0.5410760732   -0.7204754986    0.9320501977
 O    0.6838246054   -2.0608097877    0.9363870050
 C    1.2118027520   -2.6712199906    2.1305253507
 C    0.0999954772   -2.8904851324    3.1509612864
 C    1.8514533025   -3.9734685671    1.6456313540
 O    0.9125392896   -4.8213292900    1.0176917598
 H    0.4029538131    1.7373038563   -0.8473325034
 H   -1.1505277227    1.6217807840   -0.0285327198
 H    0.3442283158    1.7496753024    0.9326625336
 H    0.9714140353   -0.2167363718    1.8126197909
 H    1.9969565649   -2.0237688936    2.5470274706
 H   -0.6400408590   -3.5859200150    2.7491478360
 H    0.5111453921   -3.3138205945    4.0729006672
 H   -0.3960541433   -1.9480497971    3.3999047249
 H    2.6871487562   -3.7272753446    0.9732041105
 H    2.2561329952   -4.5234369519    2.5015331173
 H    0.5219663863   -4.3098108449    0.2990307905