18

 C    0.0766998093    1.5416239135   -0.6367416940
 C    0.1054258364    0.0642971269   -1.0378897746
 C    1.4832941293   -0.5691904567   -0.8207333053
 O    1.9043957030   -0.4761220943    0.5385255072
 C    1.5891679571   -2.0296964897   -1.2536107676
 O    0.4011465329   -2.7962231468   -1.4698100485
 C    1.2643160217   -2.5839988040   -2.5868769919
 C    0.7688771104   -1.7764113392   -3.6809501599
 N    0.4068530150   -1.1599542077   -4.5894641041
 H    0.3866580928    1.6736582190    0.4030343337
 H    0.7543359782    2.1318682019   -1.2629571856
 H   -0.9291446429    1.9546343003   -0.7527650441
 H   -0.6324206274   -0.5076888046   -0.4603227507
 H   -0.1863381772   -0.0411442567   -2.0865968697
 H    2.2414309878   -0.0038271371   -1.3780925609
 H    1.2005427826   -0.8385183935    1.0893450033
 H    2.3659222162   -2.5647042666   -0.7050976222
 H    1.8076641148   -3.4669159047   -2.9211936952