21

 C   -0.1234909248    1.5232259125   -0.0044320134
 C   -0.0914421669   -0.0001881148   -0.1500026637
 C    0.9341758857   -0.4805400431   -1.1860956052
 C    0.9611392532   -1.9882402853   -1.3201640623
 C    0.0774027319   -2.7725847439   -2.2663221083
 O   -0.1130714598   -2.0568768809   -3.4945892081
 C    1.3078251875   -2.1168196034   -3.7878631129
 C    1.5885070758   -2.7766735780   -2.4388899179
 O    2.5870127669   -3.6915371839   -2.1823565544
 H    0.8521510487    1.9115836184    0.3088934499
 H   -0.3806849076    2.0055312440   -0.9540458530
 H   -0.8616092452    1.8386547462    0.7396524762
 H    0.1334059067   -0.4573476967    0.8228743831
 H   -1.0853783869   -0.3660238460   -0.4363261572
 H    0.6931864004   -0.0357003224   -2.1577683066
 H    1.9329831955   -0.1177269728   -0.9091498257
 H    1.0929577457   -2.5310839087   -0.3838141003
 H   -0.6646336417   -3.5124529639   -1.9893962169
 H    1.4951664075   -2.7862543558   -4.6382237922
 H    1.7444815726   -1.1325774361   -3.9906732392
 H    2.5082885849   -4.4157038055   -2.8144138018