14

 N   -0.0603120708    1.3254136032    0.0941780244
 C   -0.0028691437   -0.0140634717   -0.0033994837
 N    1.1710336882   -0.6489285521   -0.1279163623
 H    1.1203884936   -1.6581394377   -0.0924395840
 H    2.0457196897   -0.1946487244    0.0713877693
 C   -1.1887871404   -0.7726753197    0.0337705177
 N   -1.2111081078   -2.1381809676    0.0612592332
 C   -2.5169776910   -2.3314015130    0.0862470461
 O   -3.0827857242   -3.5476618008    0.1172495197
 N   -3.2774739743   -1.1944077132    0.0773041079
 N   -2.4084236495   -0.1910055851    0.0403020569
 H    0.7006128766    1.9011520563   -0.2246330469
 H   -0.9951516447    1.7113421003    0.0740981535
 H   -4.0367209116   -3.3983152244    0.1319062385