18

 O    0.0465039111    1.3895906325   -0.1260754717
 C    0.0744048379   -0.0176039785    0.0156172453
 C   -1.3323832045   -0.5971802643    0.0876220319
 O   -2.0013943827   -0.2042338367   -1.1194641979
 C   -3.0671755747   -1.1183204069   -1.3686505140
 C   -2.5979744199   -2.4489015205   -0.8075666349
 C   -1.1893208736   -2.8498972416   -1.1572472561
 C   -1.4622228382   -2.1101040835    0.1307986680
 H   -0.5500369830    1.5686421325   -0.8622519718
 H    0.6208251863   -0.4983673076   -0.8104155069
 H    0.6112497533   -0.2347369031    0.9452608254
 H   -1.8488471929   -0.1593247186    0.9583981247
 H   -3.9910242140   -0.7964481873   -0.8619579518
 H   -3.2478333979   -1.1192912339   -2.4488314030
 H   -3.3355114624   -3.2040304308   -0.5633057308
 H   -0.9358683993   -3.9009248270   -1.0778400536
 H   -0.6905073038   -2.3243044020   -1.9650844019
 H   -1.3387261516   -2.6154150228    1.0810718191