17

 O   -0.6932873895    0.2584859548   -0.3443705136
 C   -0.4068429185    1.3960816274   -0.1354197027
 O    0.8713319364    1.8151083907   -0.0031662519
 C    1.1177364658    3.1924695973    0.2466682846
 C    2.0935228956    3.5054393851    1.3973144595
 C    2.7504746839    4.5766034560    0.4851079768
 C    2.0597219993    3.9207207482   -0.7602528965
 C    2.9870095114    2.9873881300   -1.5034080651
 O    3.1262798571    2.9914126484   -2.6982880508
 H   -1.1379454069    2.2207380022   -0.0233818503
 H    0.1675631636    3.7293526333    0.3462507878
 H    1.6643334178    3.8254997797    2.3484957820
 H    2.7571528107    2.6557413785    1.5759983855
 H    2.3714460631    5.5839671370    0.6659763129
 H    3.8415646037    4.6121297625    0.4715301546
 H    1.5814856384    4.5820186277   -1.4842514743
 H    3.5692493581    2.2909415813   -0.8595542084