18

 O   -0.0072325585    1.4635892485    0.2072997680
 C    0.0302060126    0.0631010419    0.0487785711
 C    0.3475974404   -0.7318634335    1.3608430416
 C   -1.0989573159   -1.2594293709    1.3585400547
 C   -1.4089026824   -0.4828515727    0.1006288262
 N   -1.4596934940   -1.9237278913    0.1202589599
 C   -0.5556819664   -2.7762429060   -0.6314701314
 C   -0.8169360944   -4.2351403704   -0.2861339194
 O    0.0064258621   -5.1069294714   -0.3790232709
 H    0.8979704086    1.7851216831    0.2681887311
 H    0.6127386098   -0.2194971983   -0.8395978199
 H    1.1555655436   -1.4700316627    1.3486649313
 H    0.5139205932   -0.0259687807    2.1774551186
 H   -1.7141994552   -1.4397704123    2.2330571036
 H   -2.2882315541    0.0826311423   -0.1884375417
 H   -0.7852505350   -2.6576485190   -1.7003427657
 H    0.5175979616   -2.5806055263   -0.5070940416
 H   -1.8580426660   -4.4336617903    0.0517567145