19

 C   -0.0755463533    1.5113560317   -0.0630149287
 C   -0.0440114530    0.0120752199    0.0798052888
 O    1.2482480648   -0.6212443779   -0.0475255337
 C    0.5930238005   -0.6740918439    1.2067998289
 C    1.2593501875   -0.1343516619    2.4903026262
 C    0.8607281848   -1.4549072009    3.1785535948
 O    1.6776998820   -2.1458352402    4.0522435059
 C   -0.6197851022   -1.6805867307    3.0969583389
 C    0.2480472377   -1.9825817308    1.8851883941
 H    0.7232705986    1.9766871753    0.5201248570
 H    0.0518632860    1.8021821608   -1.1111418046
 H   -1.0371012177    1.9086999517    0.2804435896
 H   -0.8380669545   -0.5234689212   -0.4448346018
 H    2.3411157794   -0.0689250886    2.3504388827
 H    0.8835950274    0.7985330737    2.9244433894
 H    1.4647795715   -1.8698259880    4.9505257911
 H   -0.9639228004   -2.5668079134    3.6211943212
 H   -1.3262650865   -0.8532115640    3.0837657582
 H    0.2976489474   -2.9654890518    1.4345612619