19

 C   -0.2267035640    1.5016478664    0.0391434313
 C   -0.0981963851   -0.0081984450    0.1157316653
 O   -0.1932396877   -0.6103732750    1.1593430823
 C    0.1763841893   -0.7240573375   -1.2088059405
 C    0.0539294934   -2.2271739211   -1.0903653792
 C   -1.1607445232   -2.9575813035   -1.5471772269
 C    0.1541325243   -3.1622180414   -2.2966179293
 C    0.2712751802   -2.6284334334   -3.6701450595
 O    0.9423539817   -3.1228879638   -4.5427187196
 H    0.6077386940    1.9393535474   -0.5192369382
 H   -1.1435396540    1.7668102269   -0.5007634110
 H   -0.2670258577    1.9231283002    1.0440556477
 H   -0.4885888052   -0.3102844554   -1.9757897406
 H    1.1910586865   -0.4324229517   -1.5190029581
 H    0.5283117373   -2.6170369708   -0.1964203612
 H   -1.5346117313   -3.7916480284   -0.9653759163
 H   -1.9299287476   -2.3910531701   -2.0647184069
 H    0.6847446913   -4.0960286963   -2.1460154917
 H   -0.3331052623   -1.7114936575   -3.8675954975