18

 C   -0.1151849605    1.4732692519    0.1174788110
 C   -0.0400092094   -0.0101873682   -0.0236450361
 N    0.0237664818   -0.6770395717   -1.1553756494
 C    0.0805722868   -2.0073574498   -0.8034433083
 C    0.0420702433   -2.1596508769    0.5589209847
 N   -0.0296818392   -0.8649524331    1.0454499521
 C    0.0887265290   -3.3436814488    1.4399903373
 C   -1.1712548432   -3.9333360541    1.9846695102
 N   -0.4032835222   -4.6404702231    0.9499826032
 H    0.7374710506    1.8746583183    0.6774807691
 H   -0.1120652424    1.9163665048   -0.8790070770
 H   -1.0286686766    1.7902338864    0.6341477861
 H    0.1608653849   -2.7822958106   -1.5512354931
 H   -0.0930685105   -0.6082643082    2.0168064776
 H    0.9852085137   -3.4408871775    2.0521824830
 H   -1.1666782162   -4.4066317548    2.9625526838
 H   -2.1078604491   -3.4595431868    1.7043414756
 H   -0.8557198508   -4.5047998379    0.0488904603