19

 O   -0.1069916544    1.4439283661   -0.1292930801
 C    0.0025669085    0.0351798556   -0.0380743820
 C   -1.4130522263   -0.5831050369   -0.0641010838
 C   -1.1530550984   -1.9979735328   -0.6018613064
 O   -2.2207680032   -2.6671524174   -1.2510442967
 C   -1.7711666252   -3.0988351261   -2.5416632468
 C   -0.4836741785   -2.3451301717   -2.7904276776
 C   -0.1254152212   -1.7302242137   -1.6708322976
 C    0.7854565687   -0.6217703467   -1.2366042988
 H    0.7599051911    1.8258575016    0.0396874394
 H    0.5004515925   -0.2422532209    0.9032682685
 H   -1.9042163005   -0.5442680864    0.9105753522
 H   -2.0224548850   -0.0316149807   -0.7877506007
 H   -0.7570122571   -2.6346474431    0.2103492227
 H   -1.6364889026   -4.1939419254   -2.5519906859
 H   -2.5438124820   -2.8609403402   -3.2858642158
 H   -0.0077208098   -2.2942111123   -3.7617230594
 H    0.9370737073    0.1185319327   -2.0280144638
 H    1.7737397262   -0.9734063715   -0.9182594075