11

 O   -0.0715695843   -0.0080115266   -0.0023122803
 C    0.0139294201    1.1903983089    0.0068917791
 C    1.3032351573    1.9387964989   -0.0008383555
 N    2.4826505442    1.3600840568   -0.0184881322
 O    3.3631208955    2.4217839197   -0.0192366213
 C    2.6172341296    3.5513685378   -0.0014488596
 N    1.3369289141    3.3109947212    0.0101276328
 C    3.2873203997    4.7910978789    0.0014836111
 C    3.8692476009    5.8421804736    0.0038129883
 H   -0.8669184296    1.8626062726    0.0219468324
 H    4.3787713926    6.7753312582    0.0059610552