21

 C   -0.0572986525    1.5023969816   -0.0252852082
 C    0.0144062802   -0.0191540443    0.0368533662
 C    1.0926428963   -0.6498631038   -0.9102551115
 C    1.8573478490   -1.1560309388    0.3176701932
 C    0.8055175382   -0.5525797455    1.2436319055
 C    0.9955421015   -2.0633304570    1.1881481489
 C   -0.0431912068   -3.0313852921    0.6374188382
 C    1.7046864068   -2.5835940160    2.3333895948
 C    2.2803477817   -3.0395364786    3.2866143327
 H    0.9363756834    1.9484646107    0.0947627353
 H   -0.4630057316    1.8361171943   -0.9864917895
 H   -0.6996978059    1.9005868649    0.7678881105
 H   -0.9937872139   -0.4349675140   -0.0684384016
 H    0.7593644261   -1.4019975623   -1.6319334332
 H    1.6474777626    0.1216354800   -1.4505719478
 H    2.9345973006   -1.1711571953    0.4279990068
 H    0.9421736448   -0.0228368787    2.1794266303
 H   -0.5597950262   -2.6305282899   -0.2360885079
 H    0.4328576171   -3.9726386469    0.3459751984
 H   -0.7942677376   -3.2585112256    1.4002634025
 H    2.7899130863   -3.4393981126    4.1276733265