18

 C   -0.0234717436    1.4727122340    0.0349823277
 C    0.0373540731   -0.0299055476    0.0121815220
 C    0.6072922577   -0.9575226028   -1.1051004210
 C    0.0808000434   -1.9194566272   -0.0062363879
 C    0.7399174526   -0.9767582653    1.0374323412
 C   -1.1970883622   -1.0149074363    0.0601355306
 C   -2.0486693115   -1.0354299926    1.2308870672
 C   -2.7772577862   -1.0386810888    2.1888569448
 H    0.9827258049    1.9056176882    0.0194984989
 H   -0.5699053153    1.8597711388   -0.8320957453
 H   -0.5307217049    1.8259466716    0.9390082823
 H    0.0784583866   -0.9590976774   -2.0630974367
 H    1.6908507209   -0.9312166544   -1.2458636503
 H    0.0905195339   -3.0092910835   -0.0164623698
 H    1.8330528083   -0.9501437825    1.0423817891
 H    0.3317661016   -0.9961928288    2.0495434745
 H   -1.7982548877   -1.0188672729   -0.8558557538
 H   -3.4180291714   -1.0479258926    3.0353874765