19

 C    0.0928632176    1.5840457504   -0.0062453624
 C   -0.0415614358    0.0524744686    0.0327673266
 C    0.6558375347   -0.6129323182   -1.1348465337
 C    1.7938827067   -1.2534605277   -0.8152354784
 C    2.7846507037   -1.9387224438   -1.6986534350
 C    1.9937039865   -1.1079883307    0.6432476385
 O    3.0009073753   -1.2961580034    1.2933999850
 C    0.6837422371   -0.5896873336    1.2418824537
 O    0.9048274179    0.2547039027    2.3397949024
 H    1.1444251814    1.8845345124   -0.0034030070
 H   -0.3774020101    1.9889657335   -0.9078482150
 H   -0.3848656896    2.0281478554    0.8695557263
 H   -1.1093225099   -0.1979505643    0.0314660834
 H    0.2686189243   -0.5237294444   -2.1462852907
 H    3.7845842778   -1.5203984262   -1.5417996320
 H    2.8537430196   -3.0053118400   -1.4564288928
 H    2.5225753381   -1.8402134562   -2.7549426276
 H    0.1103236780   -1.4827565990    1.5492529144
 H    1.7839523767    0.0189112845    2.6721809745