20

 C    0.3343528265    1.3508211520   -0.4922684863
 N   -0.1666402934    0.0910549545    0.0486408403
 C    0.5160095594   -0.2854924210    1.2895821754
 C    1.9426959768   -0.5362145864    1.0993558307
 C    3.1188139408   -0.7412470369    0.9645206088
 C   -1.6126804891    0.1214682335    0.2160300767
 C   -2.3757617557    0.0604122470   -1.1148910643
 C   -1.8934568206   -0.9546049349   -2.1315349394
 O   -3.3425915182    0.7614335811   -1.2998681197
 H    1.4100782156    1.2750861894   -0.6643822113
 H   -0.1536736209    1.5645805454   -1.4476044087
 H    0.1459260455    2.2066509795    0.1822789377
 H    0.3915037915    0.4812274756    2.0800750803
 H    0.0438288845   -1.1993068905    1.6701425888
 H    4.1571707479   -0.9281611776    0.8430128702
 H   -1.9149565255   -0.7683774827    0.7855813892
 H   -1.9781943471    1.0053040740    0.7669814158
 H   -1.9748648416   -1.9637053689   -1.7099076667
 H   -2.4988547378   -0.8853168185   -3.0357179782
 H   -0.8348560785   -0.8043950748   -2.3576875290