15

 C   -0.6088151817    0.6059837917    0.2840247693
 O    0.5922355247    0.8138362175   -0.4396664452
 C    0.9368484857   -0.1914585742   -1.2738954146
 C    0.3600238194   -1.4071090179   -1.5804283401
 C    1.2246281503   -2.0137706786   -2.5474940661
 O    1.0607454503   -3.2309526846   -3.1467370711
 C    2.2747983124   -1.1700758602   -2.7937388477
 N    2.0784883603   -0.0455257420   -1.9946549116
 H   -1.4628386762    0.4894854289   -0.3950881748
 H   -0.5353630209   -0.2837284264    0.9221125321
 H   -0.7526441751    1.4910296073    0.9049160417
 H   -0.5523392099   -1.8148593437   -1.1754637541
 H    0.2534369860   -3.6273746820   -2.8093877430
 H    3.1233078097   -1.2631348465   -3.4478319274
 H    2.6763641551    0.7595549008   -1.9435651875