22

 O   -0.0448361100    1.4663798507    0.1254377417
 C    0.0431184145    0.0542635987   -0.0165572928
 C   -1.3729791969   -0.5046865642    0.0448098828
 C   -1.4272755127   -2.0272607028   -0.0419291133
 C   -2.8478496855   -2.6298241712    0.0911654877
 C   -2.7572685529   -3.9587879126   -0.6868302472
 C   -1.6650182699   -3.7001331681   -1.7155925626
 C   -1.7250305876   -2.4252547281   -2.4747090819
 N   -0.8412082386   -2.5483348706   -1.3023954697
 H    0.8387162780    1.8313307143    0.0236441169
 H    0.5111670022   -0.2285513412   -0.9695833174
 H    0.6509795503   -0.3890675987    0.7897339646
 H   -1.8367321112   -0.1796933527    0.9839167109
 H   -1.9636209751   -0.0613355244   -0.7661960601
 H   -0.7970257007   -2.4461985733    0.7547488972
 H   -3.1358494466   -2.7705849402    1.1358201480
 H   -3.5934079331   -1.9634772988   -0.3546315032
 H   -2.4453549538   -4.7758569148   -0.0264896041
 H   -3.7093368360   -4.2530425760   -1.1394101311
 H   -1.1332358382   -4.5513966099   -2.1318845268
 H   -1.2011650056   -2.3321874304   -3.4214690513
 H   -2.6261384008   -1.8211629259   -2.4041521984