16

 O   -0.8894524403    1.0885446270   -0.0441653092
 C    0.2516628261    0.7388001836    0.1008912744
 C    1.4394895372    1.6892557565    0.0291682943
 C    1.1890950332    2.9539312805    0.8600142486
 N    2.2118909371    3.9772575781    0.8530359113
 C    3.4553814507    3.7816490542    0.8778249755
 O    4.2092489799    2.6426776242    0.8313681847
 C    3.7821422385    1.5173278371    0.0771520093
 O    2.5739582260    0.9623620404    0.4722110906
 H    0.5368015749   -0.3165870957    0.3019187821
 H    1.5737196384    1.9769347164   -1.0285720886
 H    0.2499061435    3.3912207276    0.5093569345
 H    1.0246217927    2.6514455538    1.9037473457
 H    4.1225527412    4.6339208410    1.0062118298
 H    3.7395727606    1.8102901734   -0.9844968390
 H    4.5544473702    0.7647050819    0.2400967361