18

 C    0.4941044327    1.1170136694   -0.3116665949
 O   -0.1271879030    0.3166161322    0.6887847224
 C    0.6018762139   -0.7257773429    1.1279592711
 N    0.1254091940   -1.4860696499    2.0171307741
 C    0.9108107601   -2.6009452755    2.4645287522
 C    0.1927431807   -3.9788451574    2.6537029359
 C    1.4361679018   -4.7160850953    2.0782568478
 C    1.9134543286   -3.3532351941    1.5518041467
 O    2.6346627118   -3.0121065181    0.6558357586
 H    0.7323432271    0.5284690447   -1.2054649786
 H   -0.2262271914    1.8923648841   -0.5746754603
 H    1.4094461431    1.5894178559    0.0643289976
 H    1.5814382614   -0.8419561516    0.6519595429
 H    1.4261742092   -2.3435421588    3.4019163786
 H   -0.1062612455   -4.2293140227    3.6712744680
 H   -0.6715061607   -4.0518770491    1.9911172610
 H    2.1073430598   -5.1071951588    2.8495657058
 H    1.2801582565   -5.4901410921    1.3240882610