16

 C    0.0775007801    1.5322715818    0.0473971063
 C   -0.0442909502    0.0445383489   -0.0554649143
 C    0.0982496587   -0.6530996618   -1.1936304859
 N   -0.0354746475   -2.0459370672   -1.1811885655
 C   -0.3096863720   -2.7987761354   -0.0711286937
 O   -0.4194181193   -4.0103290488   -0.0956244203
 C   -0.4717691862   -2.0178043951    1.2170526075
 N   -0.7285706380   -2.5711037173    2.3351526565
 N   -0.3238223655   -0.6458856424    1.1154034851
 H    0.8815741823    1.8201392767    0.7357796804
 H    0.2961214754    1.9679719010   -0.9291154193
 H   -0.8498502487    1.9835703640    0.4210452659
 H    0.3157641311   -0.1943220886   -2.1452930684
 H    0.0721958733   -2.5683298266   -2.0385434478
 H   -0.7945763985   -3.5780451326    2.1768384645
 H   -0.4346421049   -0.1395676968    1.9820706788