20

 O    0.0883592566    1.4158533106   -0.1192754426
 C    0.0605188435    0.0132431974   -0.0487131130
 C   -1.3694124442   -0.5558695754    0.0472427935
 C   -1.4121907416   -2.0777164385   -0.1457352595
 C   -2.8097222778   -2.6221368143    0.1544991501
 C   -3.1821912169   -2.3320775782    1.6068643733
 N   -2.9131561856   -0.9391439164    1.9449558642
 C   -2.0240584346   -0.0977112463    1.3515732446
 O   -1.7893218917    1.0050009466    1.8395405515
 H   -0.4441623783    1.7102302632    0.6378010909
 H    0.5294612553   -0.3691814657   -0.9632510153
 H    0.6523109691   -0.3695916498    0.8017595917
 H   -1.9520093657   -0.0777996679   -0.7532003227
 H   -1.1101199097   -2.3250365454   -1.1686970340
 H   -0.6813593068   -2.5568192864    0.5206093934
 H   -3.5403880403   -2.1509882121   -0.5140137070
 H   -2.8612325878   -3.7017047924   -0.0170554565
 H   -4.2444679115   -2.5344893059    1.7813739215
 H   -2.6141950293   -2.9987971459    2.2732316957
 H   -3.2866049526   -0.5790224972    2.8124270102