21

 C    0.1698441248    1.5675107008    0.0006314007
 C    0.0008170299    0.0415390672   -0.0105260176
 C    0.8097679077   -0.6061400266   -1.1281783973
 C    1.5131536147   -1.6563793185   -0.6822203999
 C    3.0151519214   -1.7412527605   -0.7845733648
 C    3.2971526314   -0.8355319216    0.4789375139
 C    2.0840633842   -1.0590123379    1.4274560662
 C    0.5746050716   -0.6903618674    1.2103115853
 C    1.1327493516   -1.9960616150    0.7489241435
 H    1.2276244371    1.8469060164    0.0422833091
 H   -0.2673434624    2.0235750816   -0.8940483000
 H   -0.3263499037    2.0022828589    0.8746853689
 H   -1.0775009973   -0.1767122374   -0.0643127628
 H    1.0478838863   -0.0577511231   -2.0356651054
 H    3.4195249398   -2.7477931786   -0.6360248983
 H    3.4291802223   -1.3236907512   -1.7050930345
 H    4.2173952711   -1.1300742110    0.9964358822
 H    3.4162473556    0.2057172553    0.1640909022
 H    2.3213698945   -1.1920586637    2.4793265729
 H    0.0145275113   -0.6352342882    2.1412747962
 H    0.8501884881   -2.9909031494    1.0750340796