15

 N    0.2593268518   -1.1715161672   -0.0165166242
 C    0.1604074918   -0.0189946924   -0.0002236328
 C    0.0291628904    1.4077716474    0.0254271522
 C    0.4213124463    2.1950053761    1.2835460816
 C    1.0235828017    1.4807854883    2.4845315092
 N    2.3935030328    1.0166672354    2.3237958506
 C    2.9843730043    1.1521274776    1.2218528737
 O    2.5361133482    1.7064602432    0.0529244839
 C    1.2710355491    2.2929135494    0.0614812774
 H   -0.8091856768    1.7903114971   -0.5472203298
 H   -0.2218653283    3.0392989682    1.5067390822
 H    1.0082902616    2.1678075952    3.3377954918
 H    0.4109449302    0.6188509449    2.7757606010
 H    4.0038378008    0.8046983659    1.0783931341
 H    1.2588237460    3.1835299309   -0.5558421108