22

 C    0.1403431200   -1.7767935871    1.1375147011
 C   -0.6388742347   -1.5448786398   -0.1670629146
 C   -1.4950888226   -2.7666667140   -0.4976042078
 O   -1.5696002107   -0.4696570110    0.0327949584
 C    0.3660810670   -1.2038395161   -1.2883843802
 N    0.2749373019   -1.8724968870   -2.5986375410
 C    0.0619301729   -0.4174443257   -2.5203805796
 C   -1.3076690909    0.0552303075   -2.9526563498
 O   -1.4245706955   -0.0078601634   -4.3673097764
 H    0.8340060739   -2.6188078102    1.0421668064
 H    0.7284065441   -0.8894284332    1.4028543459
 H   -0.5522568769   -1.9841671399    1.9571460911
 H   -2.2082161850   -2.9388601702    0.3133617287
 H   -2.0457675025   -2.6239433268   -1.4279372706
 H   -0.8674859172   -3.6532388990   -0.6166857408
 H   -1.0631186158    0.3275672199    0.2223264907
 H    1.3779648710   -1.0525634089   -0.9123691854
 H    1.2024364614   -2.0904795850   -2.9513064143
 H    0.8693098756    0.2138858247   -2.8914745398
 H   -2.0921189209   -0.5194510344   -2.4504509365
 H   -1.4475977142    1.1066852320   -2.6808859306
 H   -1.2901776509   -0.9325537525   -4.6045046949