25

 C   -0.1721363207    1.5388167803    0.0222442466
 C   -0.0357333817    0.0149874598   -0.0257108861
 C    0.6649459298   -0.5625998390    1.2080945989
 C    0.7492046651   -2.0898518161    1.2152523420
 C    1.6323650069   -2.6165481003    2.3488328510
 O   -0.5859269626   -2.5818594608    1.3360234216
 C   -0.8043347666   -3.8960665066    0.8580831402
 C   -2.3022654580   -4.1495554310    0.9484963363
 O   -3.0365211031   -3.2018790203    0.2000459176
 H    0.8080683650    2.0241996890    0.0915321972
 H   -0.6704160442    1.9231233882   -0.8731757272
 H   -0.7583447733    1.8567203033    0.8916917043
 H   -1.0256128514   -0.4441936703   -0.1225073027
 H    0.5227258496   -0.2750249017   -0.9257964998
 H    1.6821260004   -0.1567784005    1.2781162693
 H    0.1392211830   -0.2474558556    2.1193234884
 H    1.1619421963   -2.4284661925    0.2496584722
 H    1.6646520726   -3.7098169369    2.3583170136
 H    2.6591934102   -2.2548955911    2.2347869835
 H    1.2508646061   -2.2772190073    3.3171516496
 H   -0.4706433773   -3.9792045704   -0.1885418997
 H   -0.2592213375   -4.6453775784    1.4531501632
 H   -2.5338958114   -5.1382540675    0.5386794453
 H   -2.6023686803   -4.1448458343    2.0087422195
 H   -2.7057318067   -2.3407569401    0.4810326553