17

 O    0.1564162006    1.4086530425   -0.2778077846
 C    0.0462849376    0.0306557912   -0.0084003176
 C    0.2934233608   -0.5020599193    1.4494282707
 C   -1.1220145828   -1.1456725682    1.4240356514
 C   -2.2986573811   -0.2907988789    1.9232665267
 C   -2.1610562006    1.1460927670    1.6254495337
 N   -2.5860577340    0.2587994642    0.5241573808
 C   -1.3991363043   -0.5438620048    0.0253095519
 H    1.0914112206    1.6306575425   -0.3312029292
 H    0.6389273612   -0.5523795501   -0.7282709515
 H    1.1163098328   -1.2175565444    1.5230398321
 H    0.4362651982    0.2755737942    2.2041351722
 H   -1.2032894936   -2.2130747256    1.6208769032
 H   -3.1035071148   -0.6733174382    2.5443641337
 H   -2.9773023461    1.7848489073    1.9525329237
 H   -1.1998830619    1.6409876197    1.5767153116
 H   -1.7056105626   -1.1353802190   -0.8373811886