16

 O    0.3126328464    1.2610558068    0.0143217487
 C    0.1174630985   -0.0703134490    0.0513302415
 N    0.1912287761   -0.8455623123   -1.0283315178
 N   -0.0648137415   -2.0666151899   -0.5415518419
 N   -0.2941310168   -2.1259842159    0.7565041499
 C   -0.1846470858   -0.8581513021    1.1700214589
 C   -0.0824531170   -3.2186403474   -1.3988811164
 C    0.4155078228   -4.5399345271   -0.8838259294
 C   -1.0589494248   -4.3303849618   -1.1351072700
 H    0.5024421619    1.5007565501   -0.9010317812
 H   -0.3207897643   -0.5807738833    2.2013923738
 H    0.1332678125   -2.9193382586   -2.4151657823
 H    0.9851795339   -5.1637584707   -1.5632763166
 H    0.7398566515   -4.5612416021    0.1497021455
 H   -1.6943773407   -4.2152996699   -0.2651512732
 H   -1.5234182928   -4.8072334069   -1.9908064195