26

 C    0.0498059918    1.5010361280    0.0900584891
 C   -0.0018058930   -0.0211699788   -0.0737935083
 C   -1.4116229023   -0.6321670910    0.0534321556
 C   -2.2842273558   -0.3374314131   -1.1830711570
 C   -3.7894815827   -0.5445633258   -0.9785914149
 C   -1.3169844413   -2.1450721621    0.3102327413
 N   -0.6679238481   -2.4371309584    1.5859728806
 C   -1.5454551771   -2.5583874349    2.7451640589
 C   -0.9046476330   -3.7611785111    2.1450328170
 H    1.0769090175    1.8690710491    0.0003198909
 H   -0.5492031796    2.0235404058   -0.6631744626
 H   -0.3238633970    1.8022819019    1.0753488867
 H    0.4187542076   -0.3025567543   -1.0498547815
 H    0.6376832159   -0.4853792732    0.6833736234
 H   -1.8986369575   -0.1798546277    0.9310155261
 H   -2.1187440934    0.6997163514   -1.4950706307
 H   -1.9353405550   -0.9591986194   -2.0196760077
 H   -4.3460936029   -0.2913015763   -1.8865762732
 H   -4.0366623648   -1.5801400973   -0.7242984463
 H   -4.1668041219    0.0924640601   -0.1706417218
 H   -2.3194477190   -2.6056060078    0.2598962321
 H   -0.7142465570   -2.6086518816   -0.4825515021
 H   -1.1715003785   -2.1360495427    3.6735369260
 H   -2.6168072358   -2.4378117171    2.5883342671
 H   -1.5505384812   -4.4410731872    1.5907957168
 H   -0.0527252361   -4.2342993465    2.6255037742