21

 C   -0.2196665809    1.4738794922   -0.2046235335
 C   -0.0729797289   -0.0054467883    0.0591313789
 N    1.2478454213   -0.6142531186   -0.1736654915
 C    0.6959244696   -0.5981965004    1.1926659937
 C    1.4403577543    0.1702120950    2.2248963991
 C    2.4352040571    1.3252583894    2.0073545339
 C    3.2716320311    0.8015797580    3.2208630076
 C    2.2498773290   -0.3280149164    3.3989236205
 N    0.8986976348    0.1901978408    3.5819876056
 H    0.6872493514    2.0184892153    0.0629738090
 H   -0.4174362083    1.6555920177   -1.2667889998
 H   -1.0565585776    1.8881452474    0.3681361895
 H   -0.9369277012   -0.5940024180   -0.2505053131
 H    1.1587274875   -1.5380008702   -0.5867312148
 H    0.2933268471   -1.5291412074    1.5895190931
 H    2.9713436760    1.2373323850    1.0613717152
 H    2.0152688655    2.3338405108    2.0885890647
 H    4.2601019931    0.4479018182    2.9187599673
 H    3.3877909846    1.4728555605    4.0789433575
 H    2.4518800891   -1.3408503339    3.7308771920
 H    0.8842449255    1.1233494428    3.9913117751