18

 N    0.0845301424    0.3228315786    0.9848181558
 C   -0.0463577835    0.0336919833   -0.3415651458
 O    0.6063344457    0.5753510673   -1.2122651356
 C   -1.1323810323   -1.0040107059   -0.6541105388
 C   -0.9728123831   -2.3223587747    0.0899255309
 O   -1.0577918989   -2.2046481556    1.5523269617
 C   -2.0357871417   -3.2510817973    1.5927844354
 C   -3.2851124652   -2.8428471558    0.8855941526
 C   -2.1008289924   -3.3562546360    0.0885488228
 H    0.8426599237    0.9292826415    1.2532260839
 H   -0.3421528310   -0.2751373741    1.6774620948
 H   -2.1113643665   -0.5678814291   -0.4276949664
 H   -1.0859341859   -1.1931119402   -1.7293271782
 H   -0.0110070292   -2.7867148234   -0.1591574012
 H   -1.9509802984   -3.9869098862    2.3830916588
 H   -4.1090982314   -3.5465444627    0.9516979168
 H   -3.5775476663   -1.7972770472    0.8653338362
 H   -2.1532006961   -4.2225547926   -0.5558573537