20

 C    0.0909468392    1.3690468269   -0.4155218949
 C    0.1354066460   -0.0684774089    0.0609263708
 C    1.4502870486   -0.7440351138    0.3866818508
 O    2.6271816979    0.0178957004    0.3941210585
 C    0.4714461702   -0.4527068638    1.4944507053
 C    0.7744567823    0.5787838797    2.5564219706
 O    1.3084323993   -0.0280987497    3.7387621730
 C    2.6211568554   -0.3419403967    3.7129679962
 N    3.1440600268   -0.9137746282    4.7113397370
 H    0.9435926026    1.9456713474   -0.0500484607
 H    0.1090161118    1.4097731457   -1.5103771338
 H   -0.8244400642    1.8711559055   -0.0858779002
 H   -0.6044951966   -0.7102596513   -0.4108239573
 H    1.5903181263   -1.7827226192    0.0906544978
 H    2.8972814131    0.1710361786   -0.5174118596
 H   -0.0622903024   -1.3110102182    1.8923918816
 H    1.4595167100    1.3461972699    2.1847204764
 H   -0.1444113799    1.0691693934    2.8886732547
 H    3.1258491063   -0.0533648773    2.7833829952
 H    4.1350657273   -1.0657577404    4.5335700488