20

 C    0.2189520572    1.0839956000   -0.5740735926
 C   -0.0760454564   -0.3789862860   -0.2841855342
 N   -1.4909253361   -0.5694642338    0.1835608185
 H   -1.6592676675    0.0325085471    0.9875562675
 C   -1.9258718498   -2.0199601663    0.4265964530
 C   -2.8644206957   -1.9695838818   -0.8002214483
 C   -2.5969407010   -0.4521210972   -0.8793184012
 C   -2.2307154413   -2.7382645763   -2.0328488448
 O   -2.9071634687   -3.6466262617   -2.5078495712
 O   -1.0881956466   -2.2956004377   -2.3312315806
 H    1.2589089179    1.1779018242   -0.8968108709
 H   -0.4101582224    1.4713209017   -1.3804624312
 H    0.0866271657    1.7205858994    0.3089541048
 H   -0.0039546647   -1.0277635478   -1.1663420942
 H    0.5612862796   -0.7650846706    0.5180009499
 H   -1.0702023714   -2.6896457936    0.3470529359
 H   -2.3956149635   -2.0963158156    1.4092509319
 H   -3.8948709307   -2.2641228523   -0.6124138757
 H   -3.3779029241    0.2177626493   -0.5147426100
 H   -2.1780681905   -0.1151981709   -1.8257876164