20

 C   -0.1044586188    1.4093673956   -0.0591355125
 O    0.1988372297    0.0454269499    0.1444640432
 C    0.6864340732   -0.5998464808   -1.0057717996
 C    1.2436459512   -1.9887696015   -0.8049431358
 C    0.1837005098   -3.0259483596   -0.7307840940
 C   -1.2372376445   -2.6535751666   -0.3296892318
 C   -1.6377639577   -1.6153934221   -1.4083386334
 C   -0.3011489880   -1.2321834049   -2.0353632076
 N    0.5508189555   -2.5015026127   -2.0651313799
 H    0.7782763179    1.9720474177   -0.4003920214
 H   -0.9080504763    1.5518602451   -0.7968956571
 H   -0.4333583713    1.8163906056    0.8999063878
 H    1.4200039230    0.0393020364   -1.5175222961
 H    2.2847646989   -2.2163955080   -0.5970022061
 H    0.5338260404   -4.0379422327   -0.5504621299
 H   -1.8877253820   -3.5324388439   -0.3463235392
 H   -1.2697718714   -2.2274696970    0.6755154002
 H   -2.2862953601   -2.0662254315   -2.1659826220
 H   -2.1588193662   -0.7517477782   -0.9875176902
 H   -0.3653315034   -0.7518050310   -3.0115688547