17

 C    0.0144881255    1.5671884319    0.1175124351
 O    1.4663652261    1.5535553700    0.0756350041
 C    1.4976774260    0.1234020314    0.0232477244
 C   -0.0542410162    0.0271429349    0.0033981683
 C    0.0099355325   -0.6881541468   -1.3909442273
 C    0.0039055163    0.0622083825   -2.7510213719
 O    0.6363087277    1.3297186562   -2.5964267527
 C    1.4821974846    0.1897695005   -2.7248088500
 C    1.5659660256   -0.5772924163   -1.3808298224
 H   -0.3367604440    1.9386173538    1.0884540337
 H   -0.4195981596    2.1609553793   -0.6872267195
 H    2.1394501378   -0.3115322901    0.7961427386
 H   -0.6296316682   -0.4961470880    0.7666267561
 H   -0.4549944031   -1.6737052154   -1.4299526995
 H   -0.6900415010   -0.0422228855   -3.5778463064
 H    2.2093406865    0.2142891396   -3.5285030267
 H    2.1724709837   -1.4829096680   -1.4324837538