18

 O    0.2266780344    1.0017190187   -0.5338013395
 C   -0.3086137078   -0.1958931799   -0.0064581205
 C   -1.7585815764   -0.0375123971    0.4253881873
 O   -2.5627296336    0.3454666303   -0.7159652472
 C   -3.1784707350   -0.6476580605   -1.3886759000
 O   -3.1176973107   -1.8190181474   -1.0951947612
 C   -3.9585415205   -0.1152903288   -2.5411785370
 C   -3.8389857139   -0.8745878565   -3.8261138694
 N   -5.0616563473   -0.9508355492   -3.0383761237
 H   -0.3593441027    1.2816566543   -1.2454693489
 H   -0.2341488800   -1.0291473359   -0.7219235076
 H    0.2966292803   -0.4553179119    0.8687264803
 H   -2.1517341630   -0.9619336623    0.8529220707
 H   -1.8608314580    0.7887525894    1.1323279713
 H   -4.1242493208    0.9557603301   -2.5541634034
 H   -3.9176320661   -0.3272543908   -4.7607026940
 H   -3.1681818663   -1.7287090599   -3.8322252018
 H   -5.0505800726   -1.8170960524   -2.5000731154