12

 C   -0.2654278726   -0.9413414195   -0.8139341323
 C   -0.0640052411    0.0642100321   -0.1904963048
 C    0.1562525635    1.2891468243    0.5633504748
 N    1.4099404173    1.9480362881    0.1992180377
 C    2.1543446650    1.9014983873   -0.9196535093
 N    3.1721219883    2.7242029796   -0.7868560095
 N    3.0324203079    3.2830135882    0.4444108156
 N    1.9834739013    2.8300295721    1.0458457499
 H   -0.4438466367   -1.8370523971   -1.3574958757
 H   -0.6718378255    1.9894472384    0.4025862737
 H    0.2066292390    1.0872396198    1.6374164005
 H    1.9337298536    1.2731212766   -1.7655096606