20

 C   -0.3178936059    1.4878002482    0.0211112031
 C    0.1005174167    0.0117451767    0.0609196096
 C    0.8051401372   -0.4339549614   -1.1817924328
 C    1.1038968124   -1.8045695660   -1.7759134771
 C    0.3249011737   -0.7445206756   -2.5709943713
 N    1.3927612501    0.0209666789   -3.2834578453
 C    2.3768543115   -1.0371121033   -3.7277573583
 C    2.5283937482   -1.4270067308   -2.2452923198
 C    2.0938467475    0.0399219296   -1.9081194803
 H    0.5525800355    2.1407982822   -0.1009403043
 H   -0.9957987249    1.6811993784   -0.8159572089
 H   -0.8255680681    1.7773211427    0.9461920338
 H    0.7450455147   -0.1657463787    0.9325111124
 H   -0.7845426522   -0.6211937320    0.2072530216
 H    0.6961398040   -2.7703926205   -1.5084656062
 H   -0.6735653505   -0.8803608812   -2.9673652166
 H    1.9856658176   -1.7712693832   -4.4388146731
 H    3.2663846915   -0.5498656574   -4.1390039510
 H    3.3887282998   -1.9436338187   -1.8207229492
 H    2.7523159212    0.8738243521   -1.6694791762