13

 O   -0.1184105986    0.0044957936   -0.2753630135
 C   -0.0573386678    1.1677292017   -0.0515680265
 C   -1.0130143096    2.2830126191    0.3732202339
 O    0.0707014155    3.2327818487    0.3306142535
 C    1.0685624497    2.2568500462   -0.0750411967
 C    2.1627106158    2.0900935858    0.8494896464
 C    3.0730737812    1.9253635389    1.6305557070
 C    4.0955116654    1.7429985882    2.5070440007
 C    5.0040356538    1.5812116678    3.2857504369
 H   -1.8131629666    2.5079798988   -0.3427105661
 H   -1.4405416049    2.1670835675    1.3770415136
 H    1.4334711141    2.4597711323   -1.0919037798
 H    5.8029504620    1.4381720016    3.9706941507