18

 C   -0.0266403355    1.4829524398   -0.1096613302
 C    0.0247851346   -0.0094789139    0.0690807028
 O    1.3023774257   -0.6420132462   -0.0686259524
 C    0.6685546879   -0.6820403333    1.2260199110
 C    1.3006290506    0.1044425754    2.2605431880
 C    1.8055749894    0.7263706336    3.1566631180
 C    0.2170406729   -2.0512958209    1.6679237997
 C    0.0433285699   -3.1359922786    0.6749082471
 N    1.1698305016   -3.1717775424    1.6264707909
 H    0.7713297921    1.9726381241    0.4514348030
 H    0.0787611857    1.7383968183   -1.1689731427
 H   -0.9907181650    1.8701494120    0.2363111440
 H   -0.7851363568   -0.5700381496   -0.4006193394
 H    2.2613786332    1.2770089579    3.9424496443
 H   -0.4050235333   -2.0371247503    2.5597031827
 H   -0.7186531779   -3.8931077530    0.8350553917
 H    0.2636094459   -2.9048875993   -0.3623055770
 H    2.0117577190   -2.8658649938    1.1412511586