25

 C    0.0562639865    1.5344158115   -0.0492981255
 C    0.0340045840    0.0013383269    0.0588643567
 C    0.7814846806   -0.4229775683    1.3331531320
 C   -1.4116348057   -0.5721660918    0.0099518379
 C   -2.2411571156   -0.0034893322   -1.1582303842
 C   -3.5576854366   -0.7655589004   -1.3492037562
 C   -3.2981185949   -2.2391020885   -1.6854820705
 C   -2.2245728623   -2.8189812803   -0.8042212559
 C   -1.4127764696   -2.0857125751   -0.0421585313
 H    1.0811430491    1.9093309759    0.0406158167
 H   -0.3424045348    1.8920602959   -1.0016879114
 H   -0.5329639942    1.9927462666    0.7548749653
 H    0.5754178340   -0.4070204822   -0.8069952792
 H    0.2649120325   -0.0538462584    2.2276482703
 H    0.8790150327   -1.5071338221    1.4290245030
 H    1.7930863363   -0.0040308314    1.3417290419
 H   -1.8974773384   -0.2626215219    0.9517535530
 H   -2.4485680446    1.0576117486   -0.9922319774
 H   -1.6495192760   -0.0687152477   -2.0825682612
 H   -4.1445918205   -0.7054037850   -0.4233115754
 H   -4.1605010607   -0.2950457481   -2.1336346139
 H   -4.2207371778   -2.8246509538   -1.5826770324
 H   -3.0044489724   -2.3426474764   -2.7412589818
 H   -2.1275903392   -3.9027458107   -0.7945989390
 H   -0.6895899724   -2.5990675312    0.5853473584