17

 C    0.2676846689    1.3941065856    0.1489508963
 C   -0.0841386218   -0.0545491873   -0.0234116332
 N    0.1251835641   -0.6696429093   -1.1097165253
 C   -0.2659035845   -2.0625246435   -1.2705252621
 C   -0.7657700965   -2.7638915410   -0.0196628363
 C    0.1547550111   -2.9246210223    1.1750411952
 C   -0.9530117320   -1.9086444340    1.1939782852
 O   -0.6279277056   -0.5407889176    1.1335109946
 H    0.9817397941    1.5167311071    0.9696951612
 H    0.6981850414    1.7764159619   -0.7754628731
 H   -0.6248030791    1.9723832776    0.4089154235
 H   -1.0574905710   -2.0907108412   -2.0309864872
 H    0.5844309375   -2.6024573046   -1.7081996089
 H   -1.4979837818   -3.5480207679   -0.1852997444
 H    0.0560989299   -3.8056183437    1.7993787831
 H    1.1670417480   -2.5442304345    1.0795404765
 H   -1.8047569428   -2.0520210455    1.8483553849