19

 C    0.0019869221    1.5269154313    0.0586557925
 C    0.0275259848    0.0005025982   -0.0547001729
 N    0.7497770683   -0.4717043825   -1.2208767191
 N    0.0959172599   -0.6983529220   -2.3971770272
 N    0.9758077727   -1.1087101680   -3.2558308576
 C    2.2061495639   -1.1394053519   -2.6718054103
 C    2.0766471276   -0.7271703602   -1.3588207787
 N    2.9711712356   -0.6352832164   -0.3046111631
 C    4.3687171960   -0.9152231924   -0.6064628316
 H    1.0106462037    1.9438387812    0.1494780298
 H   -0.4661226269    1.9640035574   -0.8269167263
 H   -0.5689874421    1.8295109162    0.9414946273
 H    0.4873480511   -0.4552164306    0.8287916527
 H   -0.9877959909   -0.3918421637   -0.1446139308
 H    3.0856963863   -1.4517409810   -3.2089730737
 H    2.8520037942    0.1984943272    0.2548561403
 H    4.9543926499   -0.8213335204    0.3104866678
 H    4.4610948492   -1.9445978284   -0.9648736532
 H    4.7949287345   -0.2467492039   -1.3694729557