17

 C   -0.0500560975    1.4756844433   -0.0964729309
 C   -0.0252289815    0.0293269660    0.0657768380
 C    0.0033196880   -1.1665555402    0.1986113177
 C    0.0064792870   -2.6155157633    0.3522279697
 C   -1.3390689141   -3.2546898149   -0.0079045373
 O   -1.6492638557   -3.2369618795   -1.4217906179
 C   -1.7601504840   -4.6708341726   -1.5258413962
 C   -1.3855020281   -4.7911235656   -0.0440268745
 O   -1.1803644678   -5.6724102132    0.7321240979
 H    0.8454300789    1.8322315356   -0.6172402646
 H   -0.9206809649    1.7936207065   -0.6805837945
 H   -0.0958296506    1.9859480909    0.8719446945
 H    0.7890423816   -3.0657977152   -0.2710233983
 H    0.2313420167   -2.8940894975    1.3906005609
 H   -2.1446124399   -2.8019120074    0.5857530154
 H   -2.7746162934   -5.0078833246   -1.7753784640
 H   -1.0469817649   -5.1087848783   -2.2353516258