19

 C   -0.1931281634    1.5185340660   -0.1842224512
 C    0.0189932924    0.0406680340    0.0491839754
 N    1.2294748935   -0.7223741780   -0.2854830763
 C    2.4268261624    0.1072099578    0.1147826341
 C    2.0484068043    0.0631353749    1.6196304327
 C    2.0188408650    1.3022695399    2.5050464685
 C    0.7418107835   -0.6177487185    1.1766879053
 C    0.1649717247   -1.7213153254    1.8875072058
 N   -0.2980232354   -2.5866002932    2.5013340347
 H    0.6548174607    2.1420614171    0.0954698725
 H   -0.4018476917    1.6902704894   -1.2456325493
 H   -1.0633077726    1.8591451153    0.3854393355
 H   -0.8481132900   -0.5451491800   -0.2536946464
 H    3.3410451776   -0.4342197649   -0.1299362809
 H    2.4630763594    1.0908319042   -0.3608292173
 H    2.6658432617   -0.6980393935    2.1044570804
 H    1.4206743990    2.1130878115    2.0837070197
 H    1.6027332890    1.0578821505    3.4880313284
 H    3.0347595799    1.6800814329    2.6613669986