19

 C   -0.0189907352    1.5644194139    0.0401478821
 C    0.0893468914    0.0543185446    0.0861641732
 C    1.3303889700   -0.7472848395   -0.2260731754
 C    2.5922457142   -0.0588169864    0.3056474526
 C    1.9708472311   -0.0615657625    1.7383326188
 C    0.7165402961   -0.7637089262    1.1872705151
 C   -0.0188438994   -1.8517782026    1.9172895499
 H    0.8789366311    2.0624192806    0.4146559740
 H   -0.1806724510    1.9114765402   -0.9866812048
 H   -0.8636986204    1.9149296076    0.6440749690
 H   -0.8011653477   -0.4396532301   -0.3019294431
 H    1.3206373001   -1.5270744526   -0.9802051648
 H    3.4781438314   -0.6945598663    0.2421988085
 H    2.8401556764    0.9149971311   -0.1297211415
 H    2.5308974185   -0.7014794931    2.4253745026
 H    1.8191776541    0.9081513104    2.2242499569
 H   -0.5800897205   -1.4515074418    2.7714004077
 H   -0.7368040860   -2.3558247571    1.2613922731
 H    0.6699736258   -2.6118430303    2.3052879060