17

 C    0.0243436448    1.4051161934   -0.2063191044
 C    0.0351547087   -0.0962881921   -0.0384272543
 O   -0.0309441892   -0.6181803871    1.0667419340
 C    0.1029382990   -0.9127015769   -1.2723675542
 C    0.8594187021   -2.2301574157   -1.2389874664
 C   -0.6322406199   -2.2925383772   -1.2144676376
 O   -1.3397009679   -2.6685752622   -0.0947352111
 C   -1.3354202295   -2.6731622513   -2.4771790789
 O   -0.8952266891   -2.4715057699   -3.5820135721
 H    0.9253923419    1.7337127932   -0.7362701518
 H   -0.8317728049    1.7058640653   -0.8210969609
 H   -0.0320629443    1.8898818618    0.7685646768
 H    0.0627677228   -0.3979611300   -2.2252847372
 H    1.3568641407   -2.5169918004   -2.1582783345
 H    1.3640043455   -2.4706139838   -0.3093742543
 H   -0.9576002680   -2.1857475602    0.6615245350
 H   -2.3144817428   -3.1646922769   -2.3012771181