16

 N    0.0477751873    1.4204211385    0.1503820233
 C   -0.0430849065    0.0309987577    0.0509029038
 C   -1.1596438175   -0.7835356999    0.0351793783
 C   -2.5992988122   -0.8845741303    0.0447060524
 C   -2.9586271885   -2.1826637691    0.0087024939
 C   -1.7289112444   -3.0748808367   -0.0279053303
 N   -0.6582082584   -2.0829424161   -0.0072451824
 C    0.6886685671   -2.0000193345   -0.0050636885
 N    1.0935520777   -0.7384624080    0.0254222642
 H    0.9783639216    1.7311955582   -0.0983613595
 H   -0.6458357012    1.9154586411   -0.3940253002
 H   -3.2736500136   -0.0402034503    0.0809220483
 H   -3.9626607068   -2.5817583981    0.0081774774
 H   -1.6684309156   -3.7461823088    0.8383734834
 H   -1.6827415545   -3.6962609666   -0.9317278090
 H    1.3383808257   -2.8616515971   -0.0292856249