18

 C   -0.1010360555    1.5728774209    0.0286711362
 C    0.0908317374    0.0459463520    0.0373010305
 C    0.7754278437   -0.4662030051   -1.2013518195
 C    2.0533788089   -0.9186260003   -1.1821902740
 N    2.6833398014   -1.3795366649   -2.3114793670
 C    2.0329010613   -1.4054123639   -3.5126603585
 C    0.7524327198   -0.9789224879   -3.6176283317
 C    0.0127472498   -0.4718863400   -2.4650620303
 O   -1.1532281079   -0.0827696498   -2.5308268171
 H    0.8625741968    2.0914697815   -0.0148014450
 H   -0.6954358815    1.8686567022   -0.8380336235
 H   -0.6220913358    1.9003541535    0.9338589375
 H    0.6571944559   -0.2557200329    0.9264063057
 H   -0.8958998959   -0.4263292800    0.0985206945
 H    2.6509904344   -0.9448644248   -0.2774214945
 H    3.6320388445   -1.7070959609   -2.2500385520
 H    2.6069676247   -1.7849334673   -4.3497819932
 H    0.2434897080   -1.0057314422   -4.5731974782