18

 O    0.0201951437    1.2767170747   -0.3548021293
 C    0.0250166504   -0.1119640906   -0.0443842974
 C   -1.4175635729   -0.5622467789    0.0538283806
 C   -2.2931985787   -0.5370536882   -1.2401675675
 C   -2.6744012454   -2.0288532177   -1.0168902437
 C   -1.7070503054   -3.0273756234   -1.6668928513
 O   -0.7671904890   -2.9015752266   -0.5714665254
 C   -1.6871780998   -2.0803007439    0.1850559676
 H    0.9285283095    1.5499503461   -0.5120813415
 H    0.5367783717   -0.6989740745   -0.8194788699
 H    0.5420886271   -0.3072073605    0.9097282809
 H   -1.9119077808   -0.0179027411    0.8657352035
 H   -3.1324545354    0.1590180377   -1.1973452322
 H   -1.7391229325   -0.3461798851   -2.1637896627
 H   -3.7303106933   -2.2892951823   -0.9641547016
 H   -2.0877414115   -4.0547134148   -1.7409252659
 H   -1.2683457368   -2.7371543918   -2.6300329899
 H   -1.8903621109   -2.5004952991    1.1744859656