17

 O    0.2545538207    1.1482858845    0.5312659494
 C   -0.0077182864   -0.1912715032    0.1497905795
 C   -1.4759315763   -0.3761511266   -0.2100921236
 O   -1.8511893819    0.6081183231   -1.1891188985
 C   -1.6118437908   -0.7426640017   -1.6230337545
 C   -0.2540401580   -0.9374092763   -2.2630434741
 C    0.7758608942   -0.6382996669   -1.1461035706
 C    1.8293160144    0.3916794030   -1.5164347395
 O    1.8976821094    0.9485436703   -2.5822682498
 H   -0.2546869555    1.6997445105   -0.0793600404
 H    0.2737867269   -0.8078832047    1.0074165977
 H   -2.2185381382   -0.5856510590    0.5551149689
 H   -2.4890868961   -1.2545732363   -2.0100982759
 H   -0.1557763906   -1.9615700039   -2.6351163197
 H   -0.1110498138   -0.2611144304   -3.1106915157
 H    1.3341985625   -1.5501384320   -0.8972899646
 H    2.5677214395    0.5958380796   -0.7142498987