25

 C   -0.2873722607    1.5886694499    0.0973778831
 C    0.0571726071    0.1032332096   -0.0386098049
 C    0.6508116299   -0.4975064467    1.2399474354
 C    1.0087482605   -1.9840820593    1.1044555334
 C    1.5884461166   -2.5804071473    2.3730952222
 O    2.8047638162   -1.9907986863    2.7755202109
 C    0.6832831706   -3.0797083652    3.4791539404
 C    1.5310077702   -4.0510001958    2.6738947775
 C    0.9060817901   -5.0802153846    1.7586106203
 H    0.6023847600    2.1808885791    0.3392564317
 H   -0.7102243973    1.9880961068   -0.8297343282
 H   -1.0197247420    1.7540419500    0.8955951773
 H   -0.8444246013   -0.4587260411   -0.3166586446
 H    0.7662142583   -0.0354081473   -0.8653363289
 H    1.5512122262    0.0706681177    1.5117141713
 H   -0.0598247746   -0.3680905029    2.0682242924
 H    0.1130317760   -2.5425461090    0.8111335914
 H    1.7390862144   -2.1091806801    0.2940588289
 H    2.6058049817   -1.1175079147    3.1297599498
 H    0.9783652462   -2.8743054678    4.5023819606
 H   -0.3890477063   -3.0793811579    3.3051109400
 H    2.4206712339   -4.3959976668    3.1937539076
 H   -0.0183985635   -4.7168910770    1.3003878733
 H    1.5885575499   -5.3665022865    0.9505671728
 H    0.6547686979   -5.9880371070    2.3180577364