17

 C    0.0209636083    1.6018043590    0.3855184858
 C   -0.1460955281    0.3823605926   -0.5159455577
 N   -1.5383278923   -0.0582603187   -0.5336009127
 C   -1.8415990051   -1.0607282618   -1.2367814362
 C   -3.2341352224   -1.6497824179   -1.3692448089
 O   -3.0892880345   -2.7643853214   -2.2608110161
 C   -1.7948177658   -2.8905110877   -2.6573678169
 O   -1.3891738210   -3.7336756014   -3.4001892462
 N   -1.0631488657   -1.8767793079   -2.0464843523
 H    1.0629958585    1.9356792013    0.4019514027
 H   -0.6033431460    2.4268656728    0.0311051699
 H   -0.2848735775    1.3650408747    1.4085011827
 H    0.1897815901    0.6296084694   -1.5363571708
 H    0.5079221596   -0.4308351564   -0.1607742737
 H   -3.6194341507   -2.0006804884   -0.4080499651
 H   -3.9393260166   -0.9316698509   -1.7965195961
 H   -0.0740500709   -1.7879633673   -2.2046775585