13

 C   -0.0276733797    1.4819618754   -0.0133841515
 C   -0.0048938277   -0.0085824562   -0.0051768515
 N   -0.0339451986   -0.6477365599   -1.1319863684
 N   -0.0101818127   -1.9946078764   -1.0299012999
 N    0.0394084067   -2.7358335283    0.0775509917
 N    0.0693636677   -2.1552649986    1.2032570723
 C    0.0498605582   -0.7350961334    1.2693662502
 N    0.0783475276   -0.1084232787    2.3820842201
 H    0.8573059759    1.8702565860    0.5010251735
 H   -0.0661882388    1.8580792025   -1.0366053917
 H   -0.8895931213    1.8437887932    0.5565872874
 H   -0.0317477111   -2.5122582008   -1.8937956658
 H    0.1149470836   -0.7883765247    3.1462630335