18

 O   -0.2477649406    1.3831319670    0.1347649806
 C   -0.0882446847    0.0169743241   -0.0085756924
 C   -0.3935722524   -0.9503755048    1.1029845485
 C   -1.1957169094   -1.0153270695   -0.1805814842
 C   -2.6907128577   -0.8123313315   -0.2091859313
 C   -3.4349033336   -2.0064100465    0.2020830093
 N   -4.0050126204   -2.9583727779    0.5247176279
 C   -0.3676821717   -1.7389284493   -1.2515384680
 C    0.7520164793   -0.6515088127   -1.1017571197
 H    0.3650398688    1.6975892943    0.8084518479
 H    0.2918047221   -1.7517914128    1.3705334704
 H   -0.9240030694   -0.5080635190    1.9411482829
 H   -2.9661813938    0.0175816562    0.4517456200
 H   -3.0208887413   -0.5317726095   -1.2170305089
 H   -0.0835587841   -2.7679220054   -1.0135560618
 H   -0.8342521436   -1.7227611712   -2.2395414545
 H    0.8320771120   -0.0235194434   -1.9915388850
 H    1.7508704206   -0.9943682380   -0.8133546318