19

 C   -0.3870775819    1.3884678295   -0.0987659097
 C    0.1549148720   -0.0474147698    0.0169417084
 C    0.8815011784   -0.5139500992   -1.2049361692
 C    2.1429321925   -0.9634081045   -1.2918764179
 C    2.4698365503   -1.3896908920   -2.6676104678
 O    3.5417521928   -1.7555286215   -3.0907510117
 C    1.1666204680   -1.2863795202   -3.4770792313
 C    0.1992912148   -0.5106273482   -2.5643390734
 O   -1.0956817321   -1.0819218441   -2.4211753244
 H    0.4188308014    2.1044048451   -0.2882107987
 H   -1.1161159651    1.4670128867   -0.9098924767
 H   -0.8869065784    1.6801217483    0.8290844294
 H    0.8133438969   -0.1344665051    0.8871505422
 H   -0.6917324107   -0.7257550249    0.1813288777
 H    2.8593900092   -1.0231185234   -0.4814078247
 H    1.3447103646   -0.8319587349   -4.4546232567
 H    0.7755093318   -2.2971057348   -3.6365750369
 H    0.1080162107    0.5325763982   -2.9079990718
 H   -1.5573075253   -0.9898065651   -3.2603074568