17

 C    0.0611642336    1.4551324383    0.0235537675
 N   -0.0306924834    0.0022432107    0.0381522436
 C   -0.1594177214   -0.7883373703   -1.0513213025
 N   -0.2197161048   -2.0768929057   -0.7557950801
 C   -0.1237881857   -2.1205927351    0.5996090395
 C   -0.0040673948   -0.8489146425    1.1384255021
 C    0.1255553339   -0.3921822713    2.5195217064
 C    0.1348918091   -1.4698314190    3.5915114584
 O    0.2220436318    0.7904007006    2.8068681018
 H    1.0024774350    1.7851891004    0.4646250759
 H    0.0026600609    1.7862743532   -1.0154414254
 H   -0.7525566665    1.8973895256    0.5994252894
 H   -0.2057935643   -0.3727695004   -2.0479840861
 H   -0.1441448455   -3.0585590031    1.1350550652
 H    0.9657217144   -2.1656180300    3.4352918381
 H    0.2362855447   -0.9933450514    4.5668509271
 H   -0.7905062870   -2.0542264003    3.5629972490