25

 C   -0.0660036950    1.8976379919   -0.3849432348
 C   -0.1385367652    0.3718297976   -0.1945912413
 C   -1.6013320257   -0.0286993102   -0.1069106431
 C   -2.1250496376   -0.9500454557    0.9093898033
 O   -2.3097972949    0.4589463353    1.0398495167
 C    0.6675520481   -0.4597584980   -1.2469555840
 C    2.1637520398   -0.1021934325   -1.1447162795
 C    0.5163498010   -1.9639299733   -0.9427657020
 C    0.1938210262   -0.1951844503   -2.6903987440
 H    0.9613889781    2.2677433539   -0.3506182897
 H   -0.5063303767    2.2098263599   -1.3376804979
 H   -0.6274800368    2.3880916601    0.4146585437
 H    0.3005265027    0.1430141401    0.7864796154
 H   -2.1738006231    0.0687240150   -1.0312086677
 H   -3.0287289403   -1.5262078168    0.7121323559
 H   -1.4403589297   -1.3994208634    1.6278361779
 H    2.5392499026   -0.2541647957   -0.1264853051
 H    2.7531974731   -0.7380017004   -1.8142289890
 H    2.3602336056    0.9364528588   -1.4246144474
 H   -0.5161117101   -2.3043319377   -1.0626060688
 H    1.1408509438   -2.5556239100   -1.6207133486
 H    0.8293957563   -2.1955875952    0.0815596314
 H    0.3193539892    0.8531613028   -2.9764563488
 H    0.7793745098   -0.7972314567   -3.3937155522
 H   -0.8582092511   -0.4606465696   -2.8359690304