20

 C    0.5586388927    0.3329180447   -1.3827855322
 C    0.0573232807    0.0371365816    0.0415822158
 C    0.1692549214    1.2787914230    0.9104928580
 O    0.7461413288    1.3277947656    1.9660614724
 C   -1.4015368274   -0.4016521133    0.0009288485
 C   -1.8781962652   -1.8021062150    0.0153383893
 C   -1.0297925896   -2.7121345442    0.9008126682
 C   -1.2860092038   -1.6910424632    2.0373403192
 N   -2.1922895834   -0.8498619332    1.1663760332
 H    1.6185808172    0.6028324421   -1.3808092583
 H    0.4294482686   -0.5455913923   -2.0213260806
 H   -0.0006745762    1.1596565774   -1.8349987666
 H    0.6880145823   -0.7271438095    0.5002148867
 H   -0.3468136934    2.1768894730    0.4956062620
 H   -2.0149054765    0.2627384972   -0.6078503580
 H   -2.6532875832   -2.1449439191   -0.6641383426
 H   -1.5068030580   -3.6753439737    1.0887081208
 H    0.0016472225   -2.8937739801    0.5829134242
 H   -1.8709449109   -2.0992066791    2.8630196929
 H   -0.4301997468   -1.1483811621    2.4469758172