20

 C    0.7073082657   -0.3390218214   -1.4159939029
 C    0.0331416917    0.0185637726   -0.0886726030
 C   -1.4470829179   -0.4116844511   -0.0165460984
 C   -1.6467098471   -1.9082496466    0.0192245220
 C   -2.3195118649   -2.2640473276    1.1130068743
 C   -2.6607047039   -1.0465813661    1.9044304290
 O   -3.2939113428   -0.9655182099    2.9391178887
 N   -2.1056944765    0.0100103680    1.2067963098
 C   -2.3244989038    1.3850124454    1.5832768523
 H    1.7342799281    0.0362737967   -1.4409232560
 H    0.7502061942   -1.4210720527   -1.5746887143
 H    0.1731155104    0.1016884316   -2.2651327832
 H    0.5681184860   -0.4381758827    0.7516372280
 H    0.0817464231    1.1036342735    0.0586557182
 H   -1.9680125696    0.0132047908   -0.8924174332
 H   -1.2655495207   -2.5586557783   -0.7566704383
 H   -2.6150228701   -3.2536134321    1.4309938143
 H   -2.9281654140    1.3741761261    2.4931060582
 H   -1.3845756210    1.9105351308    1.7895983569
 H   -2.8641070469    1.9361759431    0.8019258976