15

 O   -0.1064184312   -0.0279782331    0.0490539452
 C   -0.0412332675    1.1768526972    0.0156471797
 C    1.2317078695    1.9424029859   -0.0438717443
 C    1.5543343757    3.0425741151    1.0183339770
 C    2.4350542056    3.6706553058   -0.0577903514
 C    1.6914924558    2.9998991376   -1.1468293588
 N    3.0905528531    2.5893176752   -0.8801220092
 C    2.6056130063    1.3007490027   -0.2788261745
 H   -0.9638348479    1.8024443903    0.0231343882
 H    0.6879328006    3.6758598367    1.2273847706
 H    2.0035984390    2.6982951984    1.9553837990
 H    2.9306055852    4.6320652136   -0.0530471828
 H    1.3021365059    3.3072503069   -2.1083185086
 H    3.1674161574    0.9476260422    0.5921077972
 H    2.5938710625    0.5332169554   -1.0546174472