23

 C    0.0305854608    1.2487835186   -0.5666737930
 C   -0.0147974643   -0.1542414667    0.0159383529
 O   -1.3514239215   -0.6138207309   -0.0510224190
 C   -1.5358246479   -1.9648489708    0.3650549635
 C   -1.5877420249   -2.0887777230    1.8973374015
 C   -2.7660188058   -2.4666736018   -0.2477003595
 C   -3.7851763330   -2.8991398780   -0.7213894731
 C   -5.0045797674   -3.4216424787   -1.3289881354
 C   -4.7640381948   -4.0916469706   -2.6940366245
 H    1.0517058201    1.6410377198   -0.5378977094
 H   -0.3135736289    1.2431249981   -1.6045915663
 H   -0.6161610013    1.9211153716    0.0040840409
 H    0.6462430540   -0.8303726093   -0.5526908247
 H    0.3523367759   -0.1438283422    1.0545689773
 H   -0.6899925574   -2.5685487982   -0.0074107898
 H   -0.6523958273   -1.7452363561    2.3480667463
 H   -2.4116340515   -1.4870580212    2.2889252057
 H   -1.7454464898   -3.1312112899    2.1874935055
 H   -5.4727200104   -4.1406055633   -0.6441782064
 H   -5.7276383728   -2.6038845371   -1.4439834049
 H   -5.7058822516   -4.4638987469   -3.1082817275
 H   -4.3313513182   -3.3812108528   -3.4034866763
 H   -4.0733307621   -4.9337644709   -2.5972591438