19

 C   -0.0541786888    1.5283354584    0.0424693755
 C    0.0672589949    0.0307340674    0.0067897538
 C   -0.8508354822   -0.8746211340    0.7753892546
 C    0.6311688957   -0.8276483251    1.1163462973
 C    1.5023446116   -1.8621075055    0.4366561735
 O    0.8989655379   -3.1583675008    0.1918785862
 C    0.8744519440   -2.9365140287   -1.2372917202
 C    1.4433082691   -1.5150521472   -1.0726697873
 O    0.5388452270   -0.4415543952   -1.2449721147
 H    0.9111448477    2.0021976447   -0.1622758236
 H   -0.7688379953    1.8739954425   -0.7116447845
 H   -0.4074856943    1.8629201937    1.0217863263
 H   -1.5328671280   -0.4169820708    1.4843386225
 H   -1.2199597984   -1.7798157595    0.3080281944
 H    0.9545183427   -0.4020543417    2.0587875769
 H    2.4832395770   -1.9651314738    0.9099840425
 H    1.5316823729   -3.6382118147   -1.7655665474
 H   -0.1358045868   -2.9858241187   -1.6585760782
 H    2.3682685433   -1.2996119809   -1.6144303778