21

 C    0.0131852733    1.5403096468    0.1135797387
 C   -0.0261609696    0.0439456099   -0.0174481540
 C   -0.8820217638   -0.7953647228    0.8482890957
 N    0.5811044946   -0.8925764163    1.0224861733
 C    1.0331656795   -1.7819824545   -0.1039224023
 C    0.5523991135   -0.7774156224   -1.1954527602
 C   -0.4365837937   -1.2771189472   -2.2489303525
 C    1.7383878044   -0.0828005124   -1.8697592155
 H    0.9858255626    1.9520325244   -0.1716038271
 H   -0.7495411252    2.0076966889   -0.5210435777
 H   -0.1852529212    1.8349303613    1.1482193588
 H   -1.3774408465   -0.3016306212    1.6795547168
 H   -1.4216549115   -1.6548516127    0.4560406904
 H    2.1172001620   -1.9152734541   -0.0737625416
 H    0.5542797548   -2.7679124297   -0.0967950152
 H   -1.2962680549   -1.7839407329   -1.8022559286
 H   -0.8156773755   -0.4458373285   -2.8547584215
 H    0.0485649333   -1.9857821703   -2.9303147616
 H    2.2578485245   -0.7822395317   -2.5342257398
 H    1.4133955755    0.7704149214   -2.4758180671
 H    2.4635398339    0.2803646442   -1.1349499988