15

 O    0.1400729566   -0.2294526628   -0.1113641836
 C    0.0115971620    0.9701153504   -0.0976061822
 C    1.2153927571    1.9108643965   -0.0960580706
 N    2.4705730675    1.1592530962   -0.0948806646
 C    3.1743000394    1.5478019679   -1.2163646680
 N    2.7296403906    2.5287208517   -1.9064218932
 C    1.4218475105    2.8785941345   -1.3178987335
 C    0.3995032471    2.7703792763   -2.4375319092
 O   -0.5829329252    2.0741365552   -2.4043001433
 H   -0.9718936620    1.4551747870    0.0292777608
 H    1.1175471107    2.5078496105    0.8215759337
 H    2.3658393616    0.1659268316    0.0835428104
 H    4.1049426908    1.0398568947   -1.4524885097
 H    1.4386775705    3.9266522487   -0.9902907632
 H    0.6542207627    3.3805825115   -3.3274034438