15

 N   -0.0403464030    1.2888581906    0.0074982055
 C   -0.0202793044    0.0279865634    0.0022529477
 O   -1.1795675401   -0.6600502174    0.0077227469
 C   -1.0689089256   -2.0823696857    0.0008064794
 C   -2.4538366856   -2.6373810151    0.0099265866
 C   -3.6574238119   -1.9759441587    0.0227250011
 N   -4.5666635681   -2.9789985252    0.0259674729
 N   -3.9769395162   -4.1870646640    0.0159131193
 N   -2.6914306219   -3.9791232642    0.0061620256
 H    0.9100045512    1.6530658255    0.0022704891
 H    0.8716876033   -0.6136450431   -0.0066579253
 H   -0.5256362120   -2.4218804079   -0.8915751054
 H   -0.5109527228   -2.4293694929    0.8811684994
 H   -3.9163468932   -0.9321235876    0.0292998577
 H   -5.5726038097   -2.9220531376    0.0345232193