20

 O    0.0576078667    1.3616498944   -0.2108723787
 C   -0.0106051404   -0.0373621274    0.0039962311
 C    0.6367468984   -0.5284138926    1.3104570884
 C    0.0042175529   -1.9149702743    1.5196097627
 C   -1.4200005961   -1.7770282372    0.9481301700
 C   -2.1757946455   -3.0006978009    0.4968343563
 C   -2.6210984823   -2.2481665289    1.7272228021
 C   -1.4761251444   -0.4652078914    0.1556253706
 H    0.9825842632    1.6008569039   -0.3248633818
 H    0.4419558053   -0.5775429072   -0.8445970566
 H    1.7307208531   -0.5524682967    1.2705699127
 H    0.3445136259    0.1603366973    2.1121936432
 H    0.5656761355   -2.6719739380    0.9582577616
 H    0.0102612066   -2.2267803026    2.5682961740
 H   -2.7869190824   -2.9269756647   -0.3973825595
 H   -1.7046639741   -3.9695024578    0.6342009963
 H   -2.4548438333   -2.7088902787    2.6962232397
 H   -3.5321959042   -1.6609613107    1.6649164859
 H   -1.9905688651    0.3196487087    0.7233610958
 H   -1.9865284298   -0.5624919350   -0.8065343037