18

 N    0.1727242035    1.3562633477   -0.1591327433
 C    0.0368901711   -0.0530158927   -0.0005425896
 C   -0.5871199075   -0.7177483765    1.2635078336
 C   -1.0426366743    0.1377405136    2.3091687035
 N   -1.4300274489    0.8768917610    3.1135136511
 C   -1.3250122052   -0.6700622182   -0.0908436909
 N   -2.4565268235    0.1985169098   -0.2803944074
 C   -1.4676231266   -1.9678929551   -0.8483348068
 O   -2.6437899814   -2.6179337034   -0.3874612603
 H   -0.7112242112    1.7774274807   -0.4237907949
 H    0.5275002699    1.8206662939    0.6685251447
 H    0.8606314751   -0.6398883165   -0.4045935787
 H   -0.1689212805   -1.6658633141    1.5835060720
 H   -3.2854411505   -0.3869749181   -0.3393274028
 H   -2.5941705224    0.8068982538    0.5217459116
 H   -1.5357861905   -1.7363972638   -1.9217147356
 H   -0.5740791253   -2.5888947221   -0.6908082097
 H   -2.8648196718   -3.3220389100   -1.0037893663