15

 N   -0.1385628536    1.3842442448   -0.1272359348
 C   -0.0220652683    0.1469129423    0.1035875147
 C   -1.1519376915   -0.8255471790   -0.1199346312
 C   -1.2395912500   -1.8230372371    1.0465920181
 C    0.0743872514   -2.5680796947    1.1813350819
 O    0.1900584204   -3.6888860142    1.6095683435
 C    1.2913417574   -1.7967334175    0.6643078251
 O    1.1266199247   -0.3797369315    0.6332157140
 H    0.7355377111    1.8682551778    0.0893967868
 H   -2.0701630034   -0.2518188153   -0.2431248547
 H   -0.9840788116   -1.3713238547   -1.0579831912
 H   -1.4206265960   -1.2822165307    1.9852761274
 H   -2.0495108714   -2.5464616874    0.9285125605
 H    2.1484902855   -1.9972609168    1.3093400254
 H    1.5330677752   -2.1794512860   -0.3387750555