17

 C   -0.8662284973    1.3195010525   -0.6733133833
 C   -0.1912859264    0.0961397614   -0.1440569038
 C    0.9686346819   -0.4957430193   -0.5749047726
 N    1.1528123880   -1.5901574728    0.2444613456
 C    0.1151521161   -1.6153094481    1.1221245382
 C   -0.0420552781   -2.6692105050    2.1869834681
 C    1.0284255093   -3.6604620824    2.1841892240
 C    1.9226815278   -4.4635279580    2.1596528198
 N   -0.7133685049   -0.6159104525    0.9181864375
 H   -0.3076958396    1.7450528885   -1.5116000173
 H   -1.8807231279    1.0926461525   -1.0187595349
 H   -0.9561983947    2.0877214734    0.1024018248
 H    1.6604107583   -0.2500336421   -1.3633337927
 H    1.9048206992   -2.2594489350    0.2185217976
 H   -0.0927806196   -2.1797411255    3.1677471962
 H   -1.0105395051   -3.1677324836    2.0544379915
 H    2.6998429532   -5.1874818042    2.1614782113