13

 O    0.0260437519   -0.0344720313   -0.0103002417
 C    0.0072479180    1.1713435625   -0.0551553965
 N   -1.1048776471    1.9957644395    0.0107854899
 C   -0.7318865198    3.3808104678    0.0080112115
 C    0.4538450363    3.8073124228    0.8922042397
 O    1.1586008138    2.6600734989    1.3412179783
 C    1.1917545718    2.1539267751   -0.0451759808
 C    0.6537915177    3.4998679899   -0.5686504638
 H   -1.9405941631    1.6568072884    0.4621312526
 H   -1.4923150469    4.1062046340   -0.2516894603
 H    0.5071478613    4.7104590933    1.4886307567
 H    2.1648051210    1.7582111574   -0.3238284558
 H    0.9623300851    4.0754120817   -1.4299526697