15

 O   -0.0045843810    1.3736258144    0.0660837170
 C   -0.0722957644   -0.0127034045    0.0545339533
 C   -1.3618141055   -0.7959282944    0.0617215009
 O   -1.6788642252   -1.8149532248    0.9234871070
 C   -2.3796121847   -0.0906309837   -0.8189730851
 O   -1.4119972358    0.0371600018   -1.9038409835
 C   -0.4495210234   -0.7734036848   -1.1980379621
 C    0.3265037535   -1.7295005498   -1.8937897173
 C    0.9933700585   -2.5510810158   -2.4673545820
 H   -0.3525515253    1.6657758457   -0.7884536021
 H    0.7239894529   -0.4776666267    0.6312078657
 H   -1.3889039448   -1.5756870598    1.8102935192
 H   -3.2056538724   -0.7423870864   -1.1191024964
 H   -2.7560356921    0.8810875816   -0.4821536223
 H    1.5784361297   -3.2754539829   -2.9779047722