16

 O   -0.0320309424    1.2917036025    0.0328626639
 N    0.0270371816   -0.1068799638    0.0452011742
 C   -1.1335353772   -0.6401723453    0.0001103330
 C   -2.4828978596   -0.0715194774   -0.0306615948
 C   -3.3862105731   -1.0661305076    0.0446512630
 C   -2.7387335482   -2.4106640424    0.0831144276
 C   -1.9402788780   -2.7710796244   -1.1735525029
 C   -1.2591567713   -2.1364304492    0.0230190353
 O   -0.3408809691   -2.8661693449    0.7641975924
 H    0.8977743253    1.5391675305    0.0739814494
 H   -2.6832064393    0.9864576672   -0.1143272249
 H   -4.4620105058   -0.9328228772    0.0337719479
 H   -3.1484922046   -3.2135892400    0.6838550909
 H   -1.7138640335   -3.8232190025   -1.3106421491
 H   -2.1131178309   -2.2000970499   -2.0795575973
 H    0.5097884163   -2.4241639458    0.6483084513