27

 C    0.0658743679    1.6483415420    0.0413477769
 C   -0.0104650876    0.1186547457    0.0199259512
 C    0.6455202941   -0.4910895395   -1.2253854839
 C    0.6759571581   -2.0280933626   -1.2691045758
 C   -0.7285074061   -2.6526256905   -1.3630263956
 C   -0.6801091016   -4.1862132447   -1.4394774533
 C    0.2011180440   -4.6670450980   -2.5997095147
 C    1.6073638821   -4.0595025230   -2.5119310268
 C    1.5519610221   -2.5272406507   -2.4330211442
 H    1.1057115345    1.9934028444    0.0203471427
 H   -0.4416136745    2.0817370985   -0.8278743767
 H   -0.4041061383    2.0606887552    0.9398832869
 H    0.4767416600   -0.2844337398    0.9181055818
 H   -1.0612561057   -0.1881279303    0.0807958775
 H    0.1345697559   -0.1166428653   -2.1247751962
 H    1.6778220344   -0.1195080071   -1.2922517951
 H    1.1365271818   -2.3820917797   -0.3325297641
 H   -1.3416654787   -2.3460459846   -0.5088451160
 H   -1.2291163049   -2.2600052205   -2.2608430543
 H   -0.2798740697   -4.5813363824   -0.4950773200
 H   -1.6944322818   -4.5900403335   -1.5377060534
 H    0.2578841236   -5.7615836715   -2.6081138035
 H   -0.2616482480   -4.3713177955   -3.5518336015
 H    2.1136432296   -4.4490868571   -1.6175019811
 H    2.2129559525   -4.3714052994   -3.3707532786
 H    1.1475113697   -2.1306023692   -3.3761886681
 H    2.5646162266   -2.1166818809   -2.3366997641