14

 C    0.0056053425    1.5434182520    0.0531132549
 C   -0.0079966528    0.0040482093    0.0057608536
 O    0.7102641578   -0.4262179692    1.1589337755
 C   -1.3869066841   -0.5122763028    0.0135253390
 C   -2.5059308214   -0.9473884050    0.0441731637
 C    0.6690456478   -0.4716410676   -1.2185289933
 C    1.2454604699   -0.8676115190   -2.2032384703
 C    1.8952719605   -1.3139239314   -3.3182469663
 N    2.4475291098   -1.6938981858   -4.2668217978
 H    1.0407813801    1.8904714516    0.0671346295
 H   -0.5088542171    1.9585111594   -0.8149177101
 H   -0.4982902810    1.8667097206    0.9659593368
 H    0.6353880635   -1.3861286373    1.2178435657
 H   -3.4973048355   -1.3298049645    0.0674616391