16

 C    0.0784241217   -1.1765482071    0.0306182317
 C    0.0328059117    0.0265671599    0.0160802542
 C   -0.0211444021    1.4367560034   -0.0014180195
 C   -0.0436873633    2.4972339254    1.0771558814
 C    1.0298267370    2.5247242927   -0.0164565286
 C    0.2609740676    3.2926837879   -1.0992644848
 C   -0.5317238408    4.4278606661   -0.4275695834
 C   -1.1596788740    3.2564206273    0.3480634955
 N   -0.9242826218    2.3285206087   -0.8654760252
 H    0.1149318061   -2.2375252497    0.0398834652
 H    0.1801147054    2.3963056217    2.1304775958
 H    2.0893847055    2.4452090830    0.1854715131
 H    0.6758484182    3.3651772251   -2.1039140563
 H    0.0093322097    5.2010728522    0.1228830026
 H   -1.2489099570    4.8757708425   -1.1203393532
 H   -2.1578052838    3.2928592308    0.7829328513