19

 C    0.1359893511    1.4137323923   -0.1153773628
 C    0.4516660079   -0.0699633797   -0.0900435812
 O    0.2577757888   -0.5917714935   -1.4109495145
 C    0.4734548426   -1.9552952323   -1.4946649895
 C    0.6388031686   -2.5432068866   -2.8535480144
 C    1.8681250845   -2.4222441195   -1.9347275003
 N    2.8610961183   -1.4012420225   -2.1389353411
 C    2.3666597955   -3.6426393823   -1.3480383925
 N    2.7388219010   -4.6365899670   -0.8869370400
 H    0.8066699531    1.9430373991   -0.7983636166
 H   -0.8931396087    1.5830011580   -0.4438585157
 H    0.2570096678    1.8400385650    0.8845414816
 H    1.4859436105   -0.2535211281    0.2313271985
 H   -0.2134617441   -0.6002475144    0.6076684281
 H   -0.0237325303   -2.5500698203   -0.7295236650
 H    0.2177235903   -3.5232332712   -3.0458530632
 H    0.6263322762   -1.8532728284   -3.6901242934
 H    3.3711738332   -1.5566584365   -3.0025801107
 H    2.3915631236   -0.5036326124   -2.2092178772