17

 C   -0.1630070538    1.5499150230   -0.0119721844
 C    0.0834334823    0.0299826365    0.0377858546
 C    0.7785040265   -0.4855310643   -1.1890359360
 C    2.0718907761   -0.9062434700   -1.2245449657
 C    2.6559041509   -1.3728751580   -2.4389380229
 N    2.0040229678   -1.4320702834   -3.5656241512
 N    0.7296446774   -1.0223179441   -3.5179084228
 C    0.0019087959   -0.5354647978   -2.4300044186
 O   -1.1667418566   -0.2049751447   -2.5643544911
 H    0.7808363013    2.0998160932   -0.0818076545
 H   -0.7805108046    1.8038033764   -0.8759052466
 H   -0.6823442010    1.8789967245    0.8927848230
 H    0.6738846405   -0.2272351377    0.9234744946
 H   -0.8845313735   -0.4767110660    0.1224207979
 H    2.6781397969   -0.8931651352   -0.3229485391
 H    3.6870040688   -1.7054795276   -2.4755191085
 H    0.2282339250   -1.0743723649   -4.3953955887