16

 O   -0.3343976590    1.1512424100   -1.3566155262
 C   -0.2182353470    0.2073604125   -0.3193442119
 C   -1.5672516358   -0.3246100649    0.1373382080
 O   -2.0847645535   -1.1722530015   -0.8989374190
 C   -3.4404256495   -1.0682260615   -1.1642653505
 C   -3.7483493712   -0.0039301356   -2.2154313740
 O   -2.9260620979    0.6798348603   -2.7683742302
 C   -5.1842473509    0.1219370762   -2.5377466875
 N   -6.3175867323    0.1894819308   -2.7568160331
 H   -0.9284555136    0.7851141774   -2.0253630041
 H    0.4137277547   -0.6497681053   -0.6043255540
 H    0.2688212445    0.7108931469    0.5235787743
 H   -1.4691291190   -0.9119259074    1.0608949054
 H   -2.2456064977    0.5176827061    0.3230030063
 H   -3.7988200673   -2.0270626075   -1.5674033538
 H   -4.0558924847   -0.8604440262   -0.2735075996