21

 C    0.0940410849    1.5771789729    0.0702989754
 C    0.0165121166    0.0488852457    0.0197994826
 C    0.7860592157   -0.5841627386   -1.1578553734
 C    1.4898128110   -1.6816901010   -0.8383614098
 C    1.1912151264   -2.0586616912    0.5930237530
 C    1.9601738322   -1.8608964921    1.9492465342
 C    2.2048767743   -0.3930490907    1.5461786111
 C    0.7172267947   -0.6962216620    1.1477583750
 C    0.5768825383   -1.3841599696    2.5409425823
 H    1.1322362125    1.9148336073    0.1506652852
 H   -0.3353027955    2.0241764362   -0.8326056421
 H   -0.4571348101    1.9695691737    0.9308906212
 H   -1.0416358093   -0.2485981261   -0.0475208942
 H    0.7355486570   -0.1517498906   -2.1534784015
 H    2.0645132020   -2.2703882337   -1.5454851829
 H    0.4582032114   -2.8760830262    0.6370546085
 H    2.6629230204   -2.5415627214    2.4335527516
 H    2.3472463797    0.3183352667    2.3645242479
 H    2.9079487261   -0.2123654561    0.7322660547
 H   -0.2048209891   -2.1429187166    2.6376902163
 H    0.6320011409   -0.7482951667    3.4288443049