18

 C   -0.0419628818    1.5213458374   -0.0684749759
 C   -0.0255488031    0.0027022297    0.1108553720
 O    0.6185451620   -0.3786429952    1.3159838771
 C   -1.4317625257   -0.6188544307    0.0355228317
 C   -1.4168022577   -2.1407663001    0.0639412299
 O   -2.1452369044   -0.1315078660    1.1985475370
 C   -3.4188696603    0.2778134773    1.0554594415
 O   -4.0783329387    0.6722743361    1.9692453633
 H    0.9751159091    1.9120744242    0.0120511616
 H   -0.4448206519    1.8020386411   -1.0478587511
 H   -0.6555158388    1.9979204566    0.7027065179
 H    0.5708013679   -0.4488583522   -0.6910974512
 H    0.0601761626   -0.0698344810    2.0401928330
 H   -1.9404785756   -0.2542512044   -0.8669471427
 H   -0.9122789681   -2.5284499449   -0.8265352550
 H   -0.8779965430   -2.4906551206    0.9469777631
 H   -2.4342636616   -2.5410529831    0.0841479946
 H   -3.7746836010    0.2119493456    0.0085902033