15

 C   -0.0638512392    1.5084483674    0.0275347649
 C    0.0027615282    0.0193213946   -0.0265207126
 N    0.0398567829   -0.6743188845   -1.1010869735
 C    0.0909177343   -2.0903139534   -0.6858998505
 C    1.2334600675   -2.8039829497   -1.2356098023
 C    2.1827884955   -3.3948902721   -1.6720924056
 C    0.0931567027   -2.0771544274    0.8715245757
 O    0.1268175624   -2.9875338390    1.6545854186
 N    0.0226392812   -0.7224221690    1.1583545644
 H    0.7959939558    1.9156448752    0.5709304176
 H   -0.0663518852    1.9032498904   -0.9881774636
 H   -0.9700780901    1.8397616032    0.5463475642
 H   -0.8368791339   -2.5844542010   -1.0073847468
 H    3.0184649583   -3.9209361599   -2.0628578632
 H    0.0207544196   -0.3539085847    2.0960322529