23

 C   -0.0796403899    1.4954767850   -0.3819325845
 C   -0.1682076943   -0.0316904712   -0.3652256357
 C   -1.2585788521   -0.5471280023    0.5962036392
 C   -1.3610959252   -2.0021891651    0.6276632477
 C   -1.4187861413   -3.2055050194    0.6388998030
 C   -1.5217463367   -4.6608355892    0.6424885328
 C   -2.7107683309   -5.1842202484   -0.1855016314
 C   -2.8005202035   -6.7042465743   -0.1687503093
 O   -3.9193119622   -7.0829359566   -0.9548023539
 H    0.6990112287    1.8394243468   -1.0694096056
 H   -1.0268976416    1.9452453120   -0.7001850256
 H    0.1559718909    1.8910925544    0.6125024328
 H   -0.3785035453   -0.4087698546   -1.3723468248
 H    0.7952481531   -0.4624992458   -0.0703573268
 H   -1.0548988832   -0.1694373272    1.6077560997
 H   -2.2268727925   -0.1159762415    0.3067605684
 H   -0.5891439633   -5.0949982968    0.2560967934
 H   -1.6116477877   -5.0194951292    1.6773034946
 H   -3.6451946620   -4.7669454338    0.2035736440
 H   -2.6189240349   -4.8432356257   -1.2218242562
 H   -1.8673887144   -7.1368224086   -0.5673109807
 H   -2.9035082753   -7.0597568192    0.8703201446
 H   -3.9820073565   -8.0423472395   -0.9470293457