15

 O    0.1199489547    0.0883146656   -0.6884956535
 C    0.0522431151    1.1667028455   -0.1849451672
 C   -1.0858675990    2.0016153680    0.4320121214
 C   -0.1032762103    3.2101056023    0.5434712821
 C    0.3323915861    3.6313709417    1.9404657413
 C    1.5417561402    2.7533783698    2.2664036168
 O    2.1143684059    2.6375672000    3.3062825878
 O    1.9377464304    2.0732957503    1.1425964660
 C    1.0789268611    2.3162566583    0.0326039218
 H   -1.9459955908    2.1349753658   -0.2292634277
 H   -1.4480085460    1.6094045276    1.3882237633
 H   -0.3607887780    4.0434422084   -0.1082449690
 H    0.6580347970    4.6755124675    1.9828042256
 H   -0.4294401106    3.4998913020    2.7121518664
 H    1.6768141142    2.6235537171   -0.8285014951