13

 O   -0.4261804900    0.3959490831    0.7327807910
 C    0.3497711217    0.7946870772   -0.0957170356
 C    1.1165463245    2.0710420606    0.0575501080
 O    2.2983727204    2.1987492664   -0.7445576685
 C    1.2214984491    3.0633461779   -1.0396378893
 C    0.5286225637    2.9008326792   -2.3857002705
 C    1.1970664985    3.6753631949   -3.4313884205
 N    1.7264526841    4.2996350430   -4.2461228391
 H    0.5651630015    0.2331184895   -1.0304430202
 H    1.1912208362    2.4332253972    1.0817361430
 H    1.3766360045    4.1001107935   -0.7396607318
 H    0.5066579222    1.8487953168   -2.6820642964
 H   -0.5100001461    3.2434754208   -2.3068534401