15

 N   -0.0052510416    1.3975017066    0.1863405589
 C   -0.0585879388    0.0187305044    0.0545814619
 C   -1.1944138314   -0.7442805061    0.0117438741
 C   -1.1451676934   -2.1672767768   -0.0557750251
 C    0.0640815091   -2.7778016135   -0.1005046229
 O    0.2256705701   -4.1247491806   -0.2256717387
 N    1.2063500529   -2.0128851167   -0.0812897912
 C    1.2532640208   -0.6223568185   -0.0111306770
 O    2.3211158335   -0.0184086017   -0.0281385016
 H    0.9094633962    1.7600481030   -0.0518646574
 H   -0.7691546317    1.9153507234   -0.2200707721
 H   -2.1651145798   -0.2587501619    0.0463010953
 H   -2.0438034370   -2.7673275127   -0.0576109776
 H    0.8418175594   -4.4460326900    0.4437037160
 H    2.1046676016   -2.4574090590   -0.2153182125