19

 O    0.0837500014    1.1469752920   -0.5398879460
 C    0.0523367779   -0.1142783532    0.1087951919
 C   -1.4051834635   -0.6057641209    0.1166264659
 C   -1.5191120196   -2.0603612658    0.5950743226
 C   -2.8714006603   -2.6852378628    0.3325423493
 C   -3.1595663662   -3.3895239199   -0.9245330372
 O   -2.8984665047   -4.1138791420    0.2780467042
 C   -2.2587764788    0.3582355230    0.9252382226
 O   -3.0306920861    0.0281186566    1.7921421977
 H    0.9652505948    1.5190896066   -0.4441327896
 H    0.6733624399   -0.8530344767   -0.4199409701
 H    0.4290433301   -0.0471556460    1.1417613787
 H   -1.7530885071   -0.5204552326   -0.9246640357
 H   -0.7610928493   -2.6715271707    0.0923230846
 H   -1.3114760968   -2.1054054280    1.6706370643
 H   -3.7028908804   -2.2431399525    0.8767834177
 H   -4.1820249456   -3.4475498250   -1.2953338805
 H   -2.3865698027   -3.4634062522   -1.6897607608
 H   -2.1105106232    1.4256562001    0.6638572005