15

 O   -0.2658811478    0.8769274859    1.1395705892
 C    0.0277515397    1.1355571587    0.0021003051
 C    1.3922792894    1.6526119474   -0.4223994418
 C    1.2980946862    2.8931393092   -1.3089687337
 C    1.0573188141    4.2474827022   -0.6528802360
 C    2.4031116547    3.9378854653   -1.2333886718
 C    0.6985139569    2.6738026435   -2.6021209825
 N    0.2176357346    2.4803962286   -3.6368111387
 H   -0.7003360808    1.0054749233   -0.8288278139
 H    1.9714278393    1.8711782477    0.4783836843
 H    1.9048784440    0.8505169906   -0.9707579190
 H    0.4217633477    4.9522028586   -1.1748127662
 H    0.9419458339    4.2414351769    0.4253155389
 H    3.2245359577    3.7198223037   -0.5604929349
 H    2.6888977804    4.4270895285   -2.1567045491