14

 O   -0.0319721589   -0.0532237744   -0.2659672634
 C   -0.0413018197    1.1400175540   -0.0928602605
 N   -1.1368662925    1.9639703975   -0.0236291708
 C   -0.8905007008    3.3598346378    0.2669033300
 C   -0.8862128410    3.7543066525    1.7620355856
 O    0.5554803449    3.6538172994    1.8175511236
 C    0.6471633670    3.4625944897    0.3836705061
 C    1.1857019763    2.0714169688    0.0642588477
 O    2.3296482926    1.7315412405   -0.0360202605
 H   -2.0661371805    1.5725916357   -0.0645027074
 H   -1.4168013108    4.0244213161   -0.4199558602
 H   -1.2224383421    4.7796253623    1.9577770761
 H   -1.3808950620    3.0591560227    2.4476759907
 H    1.1727940273    4.2742784274   -0.1253650669