19

 C   -0.6341098563    1.1857991279    0.2050828384
 C    0.1318933909   -0.1254667331    0.0677585525
 C    0.9925162729   -0.3610997215   -1.2156553051
 C    0.9510011249   -1.8061941913   -1.7461229645
 C    2.0196765044   -2.2361315061   -0.7003289031
 C    2.2597733388   -0.7618203048   -0.2740953530
 O    3.5759421126   -0.3504016395   -0.3563713273
 C    1.4448704986   -0.1894762847    0.8666996296
 O    1.8260477028    0.4079019246    1.8411982206
 H    0.0104545789    2.0429122547   -0.0133165326
 H   -1.4867581005    1.2154033686   -0.4799518788
 H   -1.0071277714    1.3059019931    1.2261947626
 H   -0.5276537195   -0.9759688809    0.2743311965
 H    1.0237461192    0.4784975337   -1.9094655882
 H   -0.0220980433   -2.3016074479   -1.6867063938
 H    1.3209253290   -1.8949917108   -2.7701754879
 H    1.6836456691   -2.9041460647    0.0964697498
 H    2.9303048775   -2.6494719667   -1.1373598230
 H    3.6974776814    0.3508677695    0.2983972171