18

 C   -0.0997173690    1.5414607452    0.0396829365
 C    1.4281479263    1.4697813168    0.0239838137
 C    1.9236449849    0.5237675349    1.1643472637
 C    2.4378994701   -0.4108078022    0.0462998161
 C    2.1454035941   -1.8393416761    0.4670306790
 O    1.0724311096   -1.7094268619    1.4099461084
 C    0.6529967676   -0.3535357821    1.3569999844
 C    0.0538680085    0.0114608746   -0.0155765900
 N    1.3616194272    0.2008211050   -0.8320659015
 H   -0.6081033316    1.9785650969    0.9030297668
 H   -0.4899193869    1.9588279044   -0.8908152225
 H    2.0781024608    2.2801726287   -0.3073487836
 H    2.4968939753    0.8273607477    2.0397877370
 H    3.4253084041   -0.2238718591   -0.3771018532
 H    1.8369127885   -2.4533079285   -0.3901254644
 H    2.9988529903   -2.3239545926    0.9568109064
 H    0.0182700275   -0.1585002891    2.2217338702
 H   -0.7009511172   -0.6544855225   -0.4311912871