17

 C   -0.1168199284    1.4462681371    0.2934617170
 C   -0.0215217363   -0.0630612204    0.1586371911
 O    0.9636680806   -0.7131589651    0.4540801549
 N   -1.1377681081   -0.6731795106   -0.3402489775
 C   -2.5300684423   -0.2547453106   -0.5039477788
 C   -2.8982162096   -1.7606395477   -0.7293981810
 C   -1.4123035933   -2.1068474466   -0.3674619522
 C   -3.9316493066   -2.3121466045    0.1268243062
 N   -4.7532897274   -2.7448592327    0.8151291725
 H    0.8709687385    1.8362409955    0.5366512234
 H   -0.4801879533    1.9115987565   -0.6281156096
 H   -0.8116912775    1.7161445278    1.0967347304
 H   -2.9826586407    0.1805566826    0.3938445819
 H   -2.7215576989    0.4003956333   -1.3593796900
 H   -3.1348297146   -1.9779123849   -1.7722269589
 H   -0.8635569693   -2.6640687680   -1.1306900877
 H   -1.2813806128   -2.5972289617    0.6018679584