19

 C    0.0959106453    1.5267147218    0.0096619456
 C   -0.0369673812   -0.0005375150   -0.0108976624
 C   -1.5146271418   -0.4237898442    0.0298391854
 C    0.6842615332   -0.6483164454   -1.2284100705
 C    1.2641432083   -1.9730854804   -0.7199614439
 O    1.4610416809   -2.9738546399   -1.3596027688
 C    1.4607939628   -1.8199912800    0.7668606002
 O    2.1054822897   -0.5663665627    1.0812912527
 C    0.6887854718   -0.6331948147    1.1805646353
 H    1.1482294055    1.8219418091    0.0548614410
 H   -0.3465833075    1.9689861071   -0.8890449178
 H   -0.4159337405    1.9557232768    0.8783760754
 H   -2.0591816549   -0.0040388334   -0.8217983427
 H   -1.6238477468   -1.5132921517   -0.0072348008
 H   -2.0011109820   -0.0683472514    0.9448338461
 H    0.0254469651   -0.8258800948   -2.0808501809
 H    1.5137918370   -0.0220158352   -1.5733509419
 H    1.7008228855   -2.6664064009    1.4016225047
 H    0.2808867994   -0.5395319052    2.1854770534