20

 O   -0.1481688967    1.4938546677   -0.1959015507
 C    0.0027338300    0.0892423041    0.0001726076
 C   -1.4134155157   -0.4707591128    0.1428383328
 C   -1.5309413013   -1.8544074863    0.8075409702
 C   -0.5119646094   -2.9344740736    0.3711852058
 C    0.0860008334   -2.7932153122   -1.0329276545
 O    1.1447330404   -1.8476771028   -1.0817098461
 C    0.7597499230   -0.4984824382   -1.2048064294
 H    0.7291242618    1.8809192956   -0.2832929006
 H    0.5806790250   -0.1151175653    0.9166957822
 H   -1.9917044208    0.2514098489    0.7282365706
 H   -1.8729065760   -0.4858360276   -0.8533692245
 H   -1.4578802913   -1.7355177330    1.8947348562
 H   -2.5472062299   -2.2195158470    0.6202705592
 H    0.3401518566   -2.9488055084    1.0602060788
 H   -0.9841371090   -3.9209755163    0.4514026993
 H    0.5396326545   -3.7454194461   -1.3274322869
 H   -0.6836827323   -2.5498731938   -1.7830774530
 H    0.1432037658   -0.3395089146   -2.1058246803
 H    1.6960616719    0.0571102015   -1.3430250567