20

 C    0.0111101190    1.6055296871   -0.0185093367
 C    0.0411782126    0.0782305110   -0.0503670500
 C    0.8844097676   -0.5259132552   -1.1897369359
 C    1.1190690391   -1.9695746757   -0.7355597251
 C    1.4453359450   -1.8185012264    0.7758468789
 C    0.6170085490   -0.5698463196    1.2384210512
 C    1.2028532383   -3.0220511837    1.5571046512
 C    0.9869427835   -4.0179458946    2.1961971934
 H    1.0210401593    2.0137668147    0.1071063378
 H   -0.4015936494    2.0155648033   -0.9466502002
 H   -0.6020550095    1.9767364043    0.8096503660
 H   -0.9875976868   -0.2832482635   -0.1797103990
 H    0.3930990795   -0.4546747769   -2.1648660639
 H    1.8429679215    0.0056829284   -1.2679545184
 H    0.2023910327   -2.5576763383   -0.8538780527
 H    1.9145607106   -2.4864254886   -1.2784530603
 H    2.5105678435   -1.5694526849    0.8602955166
 H    1.2671255214    0.1315366952    1.7711923739
 H   -0.1747634592   -0.8594498466    1.9327503078
 H    0.8024098722   -4.8964228200    2.7628699654