21

 C   -0.5936866361    1.4888178148    0.4649463880
 C   -0.2144632652    0.0406666571    0.1831268424
 C    0.2536418675   -0.5589542567   -1.2182299969
 N    1.1814806254   -0.1694076462   -2.4634373431
 C    1.9078751300    0.7331698667   -1.4697971503
 C    1.6109935929   -0.5394812883   -0.6170996161
 C    2.0922028878   -1.3078416394   -1.8985749174
 N    1.1140156374   -0.5027991892    0.7545375072
 C    1.8456161109    0.2315438028    1.7697606304
 H    0.1846810241    2.2123482728    0.2208697023
 H   -1.4882155572    1.7446374092   -0.1117343306
 H   -0.8390539276    1.6126456732    1.5256268148
 H   -1.0373359168   -0.5913644860    0.5348712693
 H   -0.2367992044   -1.5121803937   -1.4162917428
 H    2.9471228718    0.9332497907   -1.7444766954
 H    1.3734451790    1.6603229059   -1.2721122562
 H    1.6966964655   -2.3122254944   -2.0628772730
 H    3.1270860259   -1.2094557889   -2.2403616360
 H    2.1350299177    1.2537573665    1.4711654284
 H    1.2487642743    0.2993886012    2.6850475892
 H    2.7604652371   -0.3183508580    2.0141233057