17

 C    0.0615809874    1.5788144831   -0.1482153800
 C    0.0845538971    0.0753323440    0.0129014689
 C    1.3042648440   -0.7788921886   -0.1789587828
 O    2.5454699596   -0.1029035947   -0.1690776632
 C    2.8507656822    0.3539736991    1.1428321740
 C    1.7131249410   -0.0987961158    2.0497309957
 O    1.7113003547   -0.1381876885    3.2589964902
 C    0.6570826215   -0.7029174700    1.1969492560
 O   -0.1201679610   -1.6763284914    1.7992346193
 H    1.0383970028    2.0298318789    0.0376547189
 H   -0.2220653705    1.8399924514   -1.1731372056
 H   -0.6652296792    2.0383600801    0.5286314881
 H   -0.8249846535   -0.4299392703   -0.3082865738
 H    1.2972529795   -1.6683717347   -0.7991140862
 H    3.7888439745   -0.0964158337    1.4896625732
 H    2.9711785018    1.4448970505    1.1641121068
 H    0.0967815083   -1.6328649195    2.7427776707