22

 C   -0.4755063396    1.3277290017   -0.5844815636
 C    0.0094982907   -0.0947631217   -0.3196397973
 C    1.3095596025   -0.6602155767   -0.9894091513
 C    1.7892442865   -1.1342198546    0.3962963656
 N    1.9247935154   -0.0450736418    1.3415672541
 C    2.4927361806    1.2561756254    1.0201283026
 C    0.5794243026   -0.5086515675    1.0575210945
 C   -0.2233477801   -0.9807951008    2.2460504175
 O    0.6085649115   -1.5228942453    3.2458691812
 H    0.2958095369    2.0792105415   -0.4028832637
 H   -0.8030661136    1.4333594414   -1.6247110633
 H   -1.3316409590    1.5715356882    0.0542309366
 H   -0.8110073050   -0.7853873899   -0.5473489966
 H    1.1083386158   -1.4858953767   -1.6746671142
 H    1.9542273724    0.0606030419   -1.5018287230
 H    2.2866295780   -2.0736850980    0.6130585026
 H    2.3857942451    1.5623219944   -0.0270573185
 H    2.0261038411    2.0185564398    1.6512231632
 H    3.5622133198    1.2320806748    1.2540562151
 H   -0.8240843269   -0.1376406503    2.6347002969
 H   -0.9323244162   -1.7574059693    1.9312300410
 H    1.4433095214   -1.0372921664    3.1539925808