22

 C   -0.2323193496    1.4383444703    0.1762636662
 C   -0.4549019529    0.0253564388   -0.3628217115
 N    0.6910145607   -0.4669335475   -1.1312645268
 C    0.7903795638    0.1033291826   -2.4920624218
 C    0.1039492737   -0.8976545967   -3.4357498953
 C    0.3510651592   -2.2342491768   -2.7404760521
 O    0.2738606936   -3.3328604850   -3.2259385126
 C    0.7508760046   -1.9283320254   -1.2820302425
 C    2.1404277537   -2.5051480044   -0.9737455447
 H    0.6734059962    1.4722232705    0.7882788807
 H   -0.1219331606    2.1724981647   -0.6280575334
 H   -1.0844726512    1.7495418780    0.7890668636
 H   -0.5920054660   -0.6525689075    0.4861123783
 H   -1.4001728618   -0.0052676031   -0.9390801624
 H    0.3437071856    1.0984148090   -2.5211328321
 H    1.8464966156    0.2176545621   -2.7660596921
 H   -0.9801292353   -0.7307397317   -3.4725123355
 H    0.4711288347   -0.9074088234   -4.4640736382
 H    0.0182646876   -2.4119613139   -0.6253333261
 H    2.9093987613   -2.0218271721   -1.5846421466
 H    2.3926230961   -2.3407375939    0.0769001305
 H    2.1556019411   -3.5778083547   -1.1862471458