18

 C   -0.1217646218    1.5215210583   -0.0208786647
 C    0.0764502541    0.0231851737   -0.0083307499
 C    0.8222284038   -0.6079701793   -1.1939954423
 C    0.9523373392   -2.0384704403   -0.6379511966
 C    1.3349210922   -1.7544008336    0.8128217833
 C    0.8253996002   -0.5744697282    1.1740619281
 N   -0.3851403664   -2.6719525895   -0.6182466754
 C   -1.3330891214   -1.8874591859   -0.3015907795
 O   -1.2762505913   -0.5687534771    0.0037318639
 H    0.8492536854    2.0249451979    0.0019526536
 H   -0.6587968242    1.8351924640   -0.9204265988
 H   -0.6993060763    1.8406984039    0.8519037639
 H    0.2587560474   -0.5553569095   -2.1292321929
 H    1.7979787012   -0.1333443425   -1.3242482532
 H    1.6426923739   -2.6855179398   -1.1805276663
 H    1.8327562908   -2.4711766849    1.4544690979
 H    0.8181554242   -0.1366098403    2.1649670764
 H   -2.3595517810   -2.2455344870   -0.2393635674