23

 C   -0.1536348130    1.5952524648    0.0143362107
 C   -0.0654540515    0.0653589514    0.0174247408
 C    0.7697508855   -0.5010827152    1.1705174641
 C    0.8932691035   -2.0252414564    1.1908370476
 C    2.1717828356   -2.3905280271    0.4554304390
 C    2.8181196655   -1.0857926292    0.0021860005
 C    2.2995747562   -0.2085473222    1.1667402702
 C    2.7649990472   -1.0283677478    2.3957336363
 C    2.1481993903   -2.3594306344    1.9732112434
 H    0.8299355396    2.0556840359   -0.1252539856
 H   -0.8026229676    1.9533534063   -0.7910422636
 H   -0.5610145246    1.9695684558    0.9604774092
 H   -1.0778332974   -0.3531336191    0.0922948101
 H    0.3280894225   -0.2860475627   -0.9434299091
 H    0.3365848920   -0.1388024716    2.1138566166
 H    0.0278422521   -2.6760737472    1.1894440017
 H    2.2686898579   -3.3177359200   -0.0938717681
 H    3.9123228786   -1.1379089794   -0.0164174968
 H    2.4786648324   -0.7505701368   -0.9823117959
 H    2.5941209470    0.8402926031    1.1525838629
 H    3.8559364543   -1.0705371788    2.4868015254
 H    2.3538414835   -0.6451215463    3.3358636981
 H    2.2321879703   -3.2611249230    2.5656999426