16

 C    0.9407551176    0.3229891211    0.3009154525
 C   -0.5211636889    0.1895832022   -0.0680978717
 O   -1.3785045462    0.9083390715    0.3833419194
 C   -0.9031343347   -0.8831346643   -1.1046594344
 C   -0.1188871799   -2.1797967121   -1.0524385501
 C    0.1927385055   -2.9380206737   -2.2832081551
 O    1.1933925257   -2.1641065944   -1.6290600107
 C   -0.2134029970   -2.9277686354    0.1926226909
 N   -0.3061996544   -3.5015076706    1.1914487412
 H    1.5754180519    0.3090087999   -0.5901564192
 H    1.0892405265    1.2412219798    0.8695522233
 H    1.2457683226   -0.5319387341    0.9162568464
 H   -1.9735536813   -1.0773965455   -0.9970292395
 H   -0.7408948655   -0.4425934473   -2.0962316461
 H    0.3241949977   -4.0162113325   -2.2294090577
 H   -0.1646489794   -2.5450583546   -3.2332568392