16

 C    0.0348125121    1.5059592267   -0.1502060006
 C    0.0363459580    0.0188543585    0.0898416590
 O    1.2881454912   -0.6712765723    0.0651073142
 C    0.5616281528   -0.6532265779    1.3050008724
 C    1.2353155760    0.0627836368    2.4600561676
 N    2.3401034918   -0.7587755364    2.9438569687
 C   -0.0424420547   -1.9316437455    1.6593243478
 N   -0.5668606263   -2.9223178159    1.9397316703
 H    0.8657337128    2.0072629428    0.3476386553
 H    0.1162951385    1.6999985461   -1.2245400128
 H   -0.9060259173    1.9443458754    0.1979734864
 H   -0.7579037418   -0.5212086629   -0.4279014425
 H    1.5221110302    1.0702883603    2.1278912349
 H    0.5062367662    0.1783078982    3.2702433461
 H    3.0730698431   -0.7952154035    2.2422049332
 H    2.7441809373   -0.3530081904    3.7805455102