19

 O    0.0567611070    0.0063080044    0.0867445443
 C   -0.0027897478    1.1960229329   -0.0304210681
 C   -1.1587952443    2.1840270526   -0.2733458027
 C   -0.0714533000    3.2572288508   -0.6320562081
 C   -0.1431676414    4.6177179264   -0.0160040052
 C    0.7685862303    5.0703845663    0.8456052248
 C    1.9174577861    4.2265973385    1.3423451826
 C    1.5639320586    2.7325838444    1.3057845733
 C    1.0515930305    2.3137606068   -0.0847142240
 H   -1.8779651578    1.8975381514   -1.0443974390
 H   -1.7039183035    2.4120791254    0.6484326661
 H    0.0002673742    3.3478840661   -1.7216257825
 H   -0.9668491603    5.2576263349   -0.3256380564
 H    0.6925210232    6.0852317719    1.2275755596
 H    2.8176468694    4.4204861018    0.7405639455
 H    2.1768076779    4.5182734364    2.3665267480
 H    2.4199413638    2.1123456457    1.5871261683
 H    0.7840040491    2.5501876250    2.0552950075
 H    1.8892742950    2.1273803882   -0.7632977643