18

 O    0.0369731148    1.4066518484    0.0093203253
 C    0.0374103817   -0.0123573965    0.0017480654
 C   -1.4130312147   -0.4774514742    0.0129760842
 C   -1.5206325839   -2.0027477916    0.0059181691
 C   -2.9332617645   -2.5452028827    0.0163697316
 N   -3.9092796040   -1.7095885915    0.0301909880
 O   -5.1496756675   -2.3327020024    0.0386774748
 C   -3.0917591521   -3.9627979986    0.0102793635
 C   -3.1555823795   -5.1649393350    0.0044356285
 H    0.9500134751    1.7079057234    0.0020666939
 H    0.5499444286   -0.4061345689   -0.8920703370
 H    0.5667038305   -0.4155897197    0.8814749424
 H   -1.9126409585   -0.0666514894    0.8955262941
 H   -1.9291743428   -0.0573821810   -0.8555867028
 H   -1.0097904249   -2.4186592327   -0.8735945272
 H   -0.9933305865   -2.4278833747    0.8711946470
 H   -5.7558421379   -1.5834435840    0.0485132323
 H   -3.2356255939   -6.2240998091   -0.0004881732