15

 C    0.0031197799    1.5175737900   -0.0126274642
 C   -0.0480024004    0.0312648984    0.0037061269
 C   -1.0845763027   -0.8155630921   -0.1153370479
 N   -0.5967157195   -2.1356126847   -0.0327431871
 C   -1.3988489553   -3.2707088535   -0.1179655392
 O   -1.0230046562   -4.4073815758   -0.0527988068
 C    0.8207009782   -2.1080232358    0.1469546544
 O    1.5870848490   -3.0291998477    0.2582754933
 N    1.1004363966   -0.7501519500    0.1617724092
 H    0.6335615854    1.8888311774   -0.8293529325
 H   -0.9998549758    1.9282419213   -0.1461712642
 H    0.4112036629    1.9159313810    0.9238960283
 H   -2.1336083557   -0.6148036954   -0.2513565139
 H   -2.4595204588   -2.9798088683   -0.2576294109
 H    2.0414166725   -0.4143446349    0.2750539343