18

 C   -0.1691789140    1.7015751556    0.2687534464
 C   -0.1214449655    0.1857369391    0.0848289942
 C    0.9528456960   -0.3258080462   -0.9108026638
 C    1.8772991477   -0.7019757352    0.2736321300
 C    0.6576371639   -0.5852072362    1.2412547927
 C    0.8427009826    0.0869598116    2.5134700643
 N    0.9938356765    0.6456246205    3.5150089768
 C   -1.5176647107   -0.3692015396   -0.1009512088
 O   -1.8366984979   -1.1571488006   -0.9535670400
 H    0.8228015829    2.1049840586    0.4901980121
 H   -0.5329864682    2.1811572854   -0.6457375885
 H   -0.8311000215    1.9839346161    1.0938667027
 H    0.5865805054   -1.1922758186   -1.4647374788
 H    1.3367959657    0.4124930908   -1.6168028134
 H    2.3620850461   -1.6786738407    0.2485089157
 H    2.6298562298    0.0594785996    0.4852788050
 H    0.2068567148   -1.5658953742    1.4188467001
 H   -2.2568400636   -0.0035070661    0.6490532432