19

 C   -0.1133106267    1.4884796244    0.1562868078
 C   -0.0582520909    0.0030210515    0.0056158528
 C    0.0043447343   -0.7261177888   -1.1284744304
 C    0.0525457495   -0.2904846997   -2.5575873065
 C    0.0456315050   -2.1792589510   -0.7891150665
 O    0.0288941768   -3.0970592035   -1.5798350843
 C    0.0878843890   -2.2868207345    0.7180793097
 C    1.2855617561   -1.6401001300    1.3977056499
 C   -0.0087193268   -0.8760336098    1.2238853361
 H    0.7375962590    1.8473687838    0.7489033411
 H   -0.1072212523    2.0080422344   -0.8039026437
 H   -1.0174427027    1.7885781438    0.7009320297
 H    0.9757725215   -0.6352921039   -3.0372697421
 H   -0.7704625884   -0.7424111717   -3.1215972204
 H   -0.0073137768    0.7947116631   -2.6675877232
 H   -0.3909013542   -3.1303922733    1.1976041416
 H    1.5338080775   -2.0092589408    2.3878834025
 H    2.1364708628   -1.3497273816    0.7903471826
 H   -0.5901443927   -0.6123244724    2.1002669134