15

 O   -0.0206298076    1.4297873739    0.2166982942
 C    0.0606536153    0.0309221085    0.0697766140
 C    0.5966438016   -0.5781888648    1.3857899927
 N   -0.6135389240   -0.7998748535    2.1734987431
 C   -1.7590193955   -0.6702472138    1.4619082043
 O   -2.9058689795   -0.6101876202    1.8598830290
 C   -1.3581046047   -0.5612248827   -0.0147041280
 O   -2.2555033811    0.2724798357   -0.7054630858
 H   -0.8282246074    1.6909094359   -0.2505643144
 H    0.6939378170   -0.2445922715   -0.7835928177
 H    1.1385394481   -1.5147738751    1.2045435591
 H    1.2694180908    0.1298590097    1.8760834920
 H   -0.6239183657   -0.8305685212    3.1805474426
 H   -1.3306797533   -1.5692095711   -0.4566554147
 H   -3.0578113640    0.2862941802   -0.1580827606