16

 O    0.0726052840    1.3631369759    0.6567810700
 C    0.0201366050    0.1955542033   -0.1543057259
 C   -1.3312735167   -0.3490215555   -0.1442356947
 C   -2.4436636114   -0.8107280716   -0.1454708356
 C   -3.7757485970   -1.3732773487   -0.1537805758
 C   -4.4389981018   -1.7290543899   -1.5151621733
 O   -4.7572309687   -3.0558609004   -1.0574378671
 C   -3.9580475673   -2.8921898481    0.1281913253
 H    0.9765475110    1.6928768843    0.6256078750
 H    0.3090158012    0.4193385882   -1.1944873236
 H    0.7200076621   -0.5746104289    0.2097483688
 H   -4.4438781348   -0.7708708565    0.4681286356
 H   -5.3325693506   -1.1577631341   -1.7879250647
 H   -3.7362015745   -1.7372546193   -2.3576102168
 H   -3.0224778742   -3.4633298221    0.0811011838
 H   -4.5053410564   -3.1583392365    1.0386182689