20

 C    0.0176945810    1.4787802584   -0.0087060228
 C    0.0046943839   -0.0261067866    0.0777985909
 N   -0.0413846020   -0.6642119230    1.1841253531
 O   -0.0584598618    0.2090993098    2.2872870913
 C    0.0505195229   -0.8228707977   -1.2009041163
 C    1.3640965565   -0.6064966303   -2.0233898959
 C    1.5412135451   -1.9333662978   -2.7220755998
 C    0.7527549237   -2.8769612002   -2.2114633254
 C   -0.0936327878   -2.3609943338   -1.0736239431
 H    0.9515584921    1.8797162100    0.4001741798
 H   -0.0859440466    1.8194405511   -1.0406963680
 H   -0.7911117122    1.8999071573    0.5953510242
 H   -0.1195976739   -0.4046697087    3.0264698449
 H   -0.7721124799   -0.4604100423   -1.8328759995
 H    1.2895638244    0.2407009353   -2.7141563914
 H    2.2189772438   -0.3970092300   -1.3644721964
 H    2.2665399496   -2.0793692694   -3.5150249593
 H    0.7344862330   -3.9145616661   -2.5267768287
 H    0.2823416519   -2.7138361062   -0.1063606503
 H   -1.1406380037   -2.6779632698   -1.1305960972