19

 C    0.0396798323    1.5706931656    0.1528217598
 C   -0.0098239725    0.0436494040    0.0427411869
 C    0.5792048396   -0.5038219077   -1.2639019417
 C    0.7657212383   -2.0323104351   -1.3032451376
 C    0.6377941149   -2.3985141108   -2.7965096634
 N   -0.2317738933   -1.3457520975   -3.2904547619
 C   -0.2805357494   -0.2225072881   -2.5096044257
 O   -0.8888665127    0.7934873481   -2.7780286995
 H    1.0748108835    1.9309585350    0.1300714042
 H   -0.4975456708    2.0302512742   -0.6786084959
 H   -0.4079351939    1.9078094741    1.0930177382
 H    0.5378579242   -0.4066227759    0.8807983775
 H   -1.0473947173   -0.3025894606    0.1336415837
 H    1.5459329075   -0.0121018744   -1.4495402063
 H    1.7131221529   -2.3647500486   -0.8736007039
 H   -0.0432749138   -2.5111549357   -0.7403598665
 H    1.6161090261   -2.3877822001   -3.2992846094
 H    0.1958892971   -3.3880382256   -2.9501854084
 H   -0.6194264327   -1.3305371409   -4.2204639900