16

 C   -0.0566129396   -1.2163357504   -0.0553290732
 C   -0.0198026714   -0.0150987488   -0.0318893851
 C    0.0168212857    1.4430539190    0.0254940951
 C   -0.6962186916    1.9633731507    1.2952040417
 O   -0.5283902753    3.3595080491    1.4219154745
 C    0.8166460050    3.7299944992    1.6597508349
 C    1.7937640637    3.0094719834    0.7737535025
 C    1.4376562359    1.9801912762    0.0114217319
 H   -0.0885769490   -2.2770880239   -0.0867810117
 H   -0.5224918836    1.8370675877   -0.8489748982
 H   -1.7714821995    1.7790550800    1.2390528238
 H   -0.2969010874    1.4321421333    2.1728090927
 H    0.8680869829    4.8116671155    1.4871084460
 H    1.0824738996    3.5645122823    2.7203701206
 H    2.8190494042    3.3697955372    0.7850345085
 H    2.1518147602    1.4785569195   -0.6335368439