14

 O    0.0631949590    0.0330381741    0.1229939448
 C    0.0010926676    1.2278234780   -0.0108840221
 C   -1.2783181828    2.0679496493   -0.1738149766
 C   -0.7839425160    3.3795678568   -0.8115351400
 N    0.6884851966    3.4857074686   -0.6051316974
 C    1.0769676101    3.3649614811    0.7890665225
 C    1.1593524152    2.1731459181   -0.1160387467
 H   -1.9955458122    1.5270530433   -0.7934381771
 H   -1.7451641694    2.2039947244    0.8078191238
 H   -0.9514247102    3.3681813977   -1.8922827802
 H   -1.2667663772    4.2739934297   -0.4088776102
 H    2.0000644887    3.8691255837    1.0586663970
 H    0.3105667578    3.3764812421    1.5615150962
 H    2.1167461028    1.7959926532   -0.4571894638