15

 C   -0.5287243074    1.2577361686    0.2164886255
 C    0.0353656748   -0.1017926591   -0.0682438396
 N   -0.1444151118   -0.6320011374   -1.2371692256
 C    0.2235366884   -1.9228808462   -1.5294560454
 N    0.2179769043   -2.9725548195   -0.7811509702
 C   -0.0246214566   -2.8692792219    0.5908289776
 N   -0.7902500556   -3.5975921284    1.2945074021
 C    0.8555556684   -1.8501163180    1.2421039640
 N    0.8360549176   -0.6087468372    0.9427319283
 H   -1.0949930021    1.2361071087    1.1537900771
 H    0.2843460366    1.9776257736    0.3554134042
 H   -1.1716473311    1.5782824112   -0.6025505887
 H    0.4697703101   -2.0765264303   -2.5803157174
 H   -1.3061302427   -4.2431946251    0.6895138767
 H    1.5669950473   -2.1919049190    1.9957846913