18

 C    0.1293311031    1.3113068278   -0.1567638680
 O   -0.3114506859    0.0114488790    0.1960120730
 C    0.4929867847   -0.5943039289    1.1548881599
 C    0.1274633699   -2.0217656552    1.5507130423
 N    0.3559488565   -2.8609024621    0.3666831362
 C    1.5200639763   -2.5394046880    1.2679578125
 C    2.3620572697   -3.5943721351    1.9112907348
 C    1.9248212176   -1.1536622490    0.8065227813
 O    2.9590016078   -0.6478131122    0.4784471492
 H    1.1394233932    1.2958648540   -0.5841011906
 H   -0.5729226815    1.6931976214   -0.9006345219
 H    0.1290515219    1.9846713362    0.7149973659
 H    0.6106432566    0.0437610657    2.0507879831
 H   -0.5390295144   -2.3240591097    2.3482844841
 H    0.0785980723   -3.8131538102    0.6106394080
 H    1.7409320813   -4.3791146565    2.3562659243
 H    3.0255868216   -4.0626682851    1.1767976742
 H    2.9883811793   -3.1664484221    2.7001453116