17

 O    0.1454866044    1.2298635720   -0.8587208196
 C   -0.0370764145    0.1533049944    0.0445900601
 C   -1.4281540386   -0.4556516696   -0.0021580987
 C   -1.7791061723   -1.3562762289   -1.1840334244
 C   -1.5688931187   -1.9682621801    0.1555121958
 C   -2.5767914942    0.3339281177    0.5353308017
 O   -3.7152491230   -0.0901265649    0.5853441725
 C   -2.2834289642    1.6840266864    1.0092854411
 C   -2.0610049366    2.8022864414    1.3991969629
 H   -0.3530723295    1.9796540414   -0.5160502285
 H    0.6885145143   -0.6117643401   -0.2491919251
 H    0.2060496550    0.4520603559    1.0749750274
 H   -2.7969075219   -1.2877670222   -1.5494237026
 H   -1.0123104474   -1.4607527443   -1.9431579961
 H   -0.6553871826   -2.5208260090    0.3463720214
 H   -2.4448871768   -2.3059792136    0.6965553065
 H   -1.8916739534    3.7899972035    1.7554732656