19

 O    0.4544795554    1.2137309420    0.1018405213
 C    0.1224305365   -0.1082020899   -0.2356807237
 C   -1.3815648111   -0.4455285043   -0.0780570912
 C   -2.2354286803   -0.1186021995   -1.3169153574
 C   -2.3149147379    1.3077157365   -1.7994495196
 O   -1.6394838354    2.2393457377   -1.4297247248
 C   -1.5669008683   -1.9387987391    0.2699141887
 C   -1.0410904052   -2.2873195700    1.6469923059
 O   -0.3030557917   -3.2057589685    1.8901389137
 H   -0.1332095735    1.7970604952   -0.4016349787
 H    0.4421973333   -0.3732234796   -1.2605614906
 H    0.7030846602   -0.7457682950    0.4406022306
 H   -1.7460638759    0.1560871812    0.7653032491
 H   -1.8930431815   -0.7057295935   -2.1853489855
 H   -3.2753588416   -0.4448355508   -1.1670102411
 H   -3.0866513999    1.4673811506   -2.5838143736
 H   -2.6392801626   -2.1838542144    0.2718810559
 H   -1.0803523793   -2.5901510123   -0.4640290933
 H   -1.4076959513   -1.6147106364    2.4579985842