19

 C    0.0839338436    1.4806796863   -0.2331840480
 C    0.0154676153   -0.0110996554    0.1250946866
 O    0.5034309044   -0.2323698792    1.4427754676
 C   -1.3822042124   -0.5513285992   -0.0001638955
 C   -1.9825599502   -1.2771872346   -0.9904250289
 N   -3.2806012151   -1.4782051260   -0.5598903098
 C   -3.4124257336   -0.8838018237    0.6619569835
 C   -4.6778955750   -0.9015671542    1.4523888930
 N   -2.2816368179   -0.3139970896    1.0206964078
 H    1.0999434785    1.8529978513   -0.0743482684
 H   -0.1963249797    1.6486304305   -1.2786460621
 H   -0.6015883676    2.0504125346    0.4020318263
 H    0.6779638021   -0.5691631754   -0.5480261326
 H   -0.2583479585   -0.1076916242    2.0241678468
 H   -1.6261506429   -1.6629311651   -1.9309628936
 H   -3.9945691921   -1.9881746568   -1.0525409123
 H   -4.9893001020   -1.9222380767    1.7028925264
 H   -4.5161496110   -0.3541191367    2.3815827158
 H   -5.5043961158   -0.4266171462    0.9114017274