17

 O    0.4121059499   -0.2321578923   -0.0957159000
 C    0.2107753834    0.9452506244    0.0546301277
 C    1.2533786534    2.0237554239   -0.0701479193
 C    0.7763880925    3.2998174612   -0.8520111258
 C    0.9982233541    4.1266099321    0.4312993024
 O    0.8920554352    5.2864105067    0.7114079326
 C    1.4131670268    2.9053154735    1.1959899798
 C    1.0552486475    2.6083723338    2.6425255299
 C    2.4779205587    2.8582798297    2.2702704754
 H   -0.8039643091    1.3266513862    0.3210804210
 H    2.1849826436    1.5888187051   -0.4357685001
 H    1.3971828532    3.5869953146   -1.7035732777
 H   -0.2698932288    3.2764665887   -1.1749558568
 H    0.5116389523    3.3851660963    3.1693092980
 H    0.7558272323    1.5928719826    2.8788141798
 H    3.1608088848    2.0159725329    2.2440406968
 H    2.9244873802    3.8098467405    2.5385028263