18

 C   -0.0404748704    1.5842729681   -0.0486352947
 C    1.5052690653    1.3540137914   -0.0052390019
 C    1.1967611600    0.1740232639    0.9728764115
 C   -0.0449195476    0.0074677759    0.0133465818
 C    0.6698937115   -0.3054228063   -1.2842774021
 C    0.7785963745   -1.0448537235   -2.4357317347
 C    1.9281984300   -0.5370393041   -3.1270775816
 C    2.4751811352    0.4870255434   -2.3761863678
 N    1.6939408950    0.6099831337   -1.2610526045
 H   -0.4264861467    2.0494604762    0.8616352971
 H   -0.4484308854    2.0600606273   -0.9425216272
 H    2.2394735946    2.1343654504    0.1828004243
 H    1.9215482767   -0.6413359619    1.0142097774
 H    0.9212551606    0.5132326472    1.9743919218
 H   -0.9262371714   -0.5651371244    0.2902821224
 H    0.1338277833   -1.8464297496   -2.7609326032
 H    2.3091201109   -0.8889505139   -4.0739727372
 H    3.3339484839    1.1153814162   -2.5489315116