19

 C   -0.0480288263    1.4354119481    0.0079239459
 C    0.0185782773   -0.0726424616   -0.0085014485
 O   -1.1346530061   -0.5570759714   -0.6406578331
 C   -1.2618311298   -1.9679813371   -0.7570559724
 C   -0.1010942789   -2.7269878479   -0.1637906731
 C    1.3189353961   -2.2333755818   -0.2507235915
 C    0.6037219541   -2.2795470675    1.0894921971
 C    0.6573616947   -0.7328565496    1.1831721483
 C    1.3823580275   -0.6860531032   -0.1753405296
 H    0.8349764435    1.8593399960    0.4936002876
 H   -0.1049459152    1.8223484289   -1.0139675556
 H   -0.9387927381    1.7685143844    0.5490387534
 H   -2.1971897589   -2.2688616772   -0.2618648965
 H   -1.3634031008   -2.2150937115   -1.8244144739
 H   -0.2003755225   -3.8059237324   -0.2539434085
 H    2.1339760997   -2.8491763551   -0.6078473302
 H    0.7789820304   -2.9366482242    1.9312411397
 H    0.8878375876   -0.1996842370    2.0979421148
 H    2.2547473256   -0.1114546299   -0.4633841138