20

 C   -0.3228606118    1.5075747033   -0.1016526702
 C   -0.0326656641    0.0003298904   -0.0019785383
 C    0.9170776523   -0.2584007582    1.1855599661
 C   -1.3487386360   -0.7763084678    0.1884668813
 C    0.6644471881   -0.5008448353   -1.2804361050
 C    0.5647644604    0.1564283932   -2.6014603303
 O    1.7385547348    0.2896154223   -1.8022118802
 C    0.9474643432   -1.9325636663   -1.3030016283
 N    1.1527216473   -3.0700229957   -1.3083347626
 H    0.5741396170    2.0663079424   -0.3807486381
 H   -1.1129369219    1.7254414883   -0.8269711195
 H   -0.6644657099    1.8761584426    0.8698623410
 H    0.4514397813    0.0733743779    2.1184227999
 H    1.1527559415   -1.3220819710    1.2866032743
 H    1.8564253800    0.2883642486    1.0592213809
 H   -2.0296513865   -0.6180250527   -0.6546101875
 H   -1.1731499452   -1.8513901600    0.2870214472
 H   -1.8541334271   -0.4340748088    1.0967490872
 H    0.6788117949   -0.4431270479   -3.5021126445
 H   -0.0380309282    1.0546280947   -2.7017743434