20

 C   -0.0562367335    1.5898447309    0.0439752776
 C    0.0328583246    0.0583600695    0.0170377502
 C   -1.3887597275   -0.5373752386   -0.0757627963
 C    0.8877182964   -0.4728805815   -1.1237748257
 C    1.6605642391   -1.4923048962   -0.7493538709
 C    1.4753303838   -1.8149456575    0.7167122989
 C    0.7833129961   -0.5392573013    1.2585445183
 O    1.7389169560    0.3548466511    1.8121849422
 H    0.9304778464    2.0562250434    0.0808729246
 H   -0.5723384679    1.9547191555   -0.8510552384
 H   -0.6160945058    1.9351900388    0.9191079618
 H   -1.8706989038   -0.2501783435   -1.0162914975
 H   -1.3692553318   -1.6309600864   -0.0349496628
 H   -2.0162617708   -0.1748419301    0.7463358379
 H    0.8173910780   -0.0721063268   -2.1303076162
 H    2.3177883659   -2.0569517320   -1.4017788958
 H    0.8529227131   -2.7106063959    0.8477830539
 H    2.4084096291   -2.0005315590    1.2595057624
 H    0.0901468265   -0.7491709949    2.0780710069
 H    2.4163294360    0.5006346447    1.1415538290