23

 C    0.0053674731    1.5754510863    0.0792975678
 C   -0.0022776142    0.0452944011    0.1143603249
 C   -1.3992533914   -0.5515712391   -0.0801147762
 C   -1.4223870354   -2.0845191688    0.0036525408
 O   -0.8887271481   -2.5565007305    1.2338178398
 C   -2.8329137589   -2.6380521019   -0.1842084532
 C   -3.0432366984   -4.1603001052   -0.0393479602
 C   -4.0185432728   -3.7774192282    1.0884386630
 O   -3.6363036533   -2.3830880910    1.0041236094
 H    1.0158187529    1.9721238406    0.2200217905
 H   -0.3705248413    1.9555139588   -0.8775821182
 H   -0.6285063616    1.9930416646    0.8697476004
 H    0.6671786749   -0.3438579441   -0.6648445927
 H    0.4016045486   -0.3125742852    1.0670179368
 H   -2.0871110189   -0.1516500055    0.6778266701
 H   -1.8038645935   -0.2459396867   -1.0549795034
 H   -0.7800690994   -2.5038283209   -0.7832681312
 H   -1.5727799331   -2.3654667055    1.8903131043
 H   -3.3039823382   -2.2006733057   -1.0750146407
 H   -3.4676763131   -4.6781034454   -0.9000197870
 H   -2.1482791639   -4.6770720006    0.3088526259
 H   -5.0803296920   -3.9132196089    0.8480478618
 H   -3.8207337621   -4.1955087884    2.0813454572