16

 O   -0.0428962692   -0.0150017344   -0.0952530020
 C   -0.0223061013    1.1736639797   -0.0023400821
 N   -1.0592850390    2.1467703878    0.0226456844
 C   -0.1775066816    3.1274369849    0.6501874780
 C    0.3941222643    4.5710136395    0.5977147097
 C    1.3923481453    3.8623333869    1.6149674876
 C    0.1707210461    3.1062729689    2.1646801144
 O    2.0828006167    2.7971108721    0.8914262119
 C    1.0084149301    2.3743384015    0.0622534844
 H   -2.0137477777    1.9437423958    0.2898106032
 H    0.7851820709    4.9351046107   -0.3534666522
 H   -0.1895681660    5.3391134329    1.1082188130
 H    2.0984749309    4.4220306751    2.2236548378
 H   -0.5069762267    3.7183164735    2.7634454190
 H    0.3696879849    2.1419299517    2.6373118237
 H    1.2203766722    2.6408883435   -0.9799561407