21

 C   -0.1988012054    1.5863043811    0.0125090369
 C    1.1874691751    1.0039576077   -0.0039651501
 C    2.2492696205    1.0771053792   -1.1119480749
 C    3.3337763663    0.8117521296   -0.0256343986
 C    2.2703776649    1.0652272838    1.0841305331
 C   -0.0046301285    0.0983161643    0.0025945383
 C   -0.4214122647   -0.9368124245    1.0426365652
 O   -0.7830821377   -1.8687132566   -0.0005624805
 C   -0.4414335311   -0.9255458369   -1.0403797449
 H   -0.5511899099    2.0484754465    0.9313663983
 H   -0.5687381662    2.0583503270   -0.8943525919
 H    2.1735008469    0.3438148732   -1.9203160289
 H    2.3278615337    2.0738212779   -1.5573821735
 H    3.6882610638   -0.2217029771   -0.0346313240
 H    4.2010344938    1.4749307687   -0.0303832385
 H    2.3576204029    2.0570751236    1.5387263661
 H    2.2100843403    0.3232283022    1.8858267640
 H    0.3779165530   -1.3306925515    1.6855068216
 H   -1.2824372105   -0.6673637770    1.6691367180
 H   -1.3143133367   -0.6494260855   -1.6472633379
 H    0.3453500795   -1.3123663656   -1.7027178078