19

 C   -0.4454996838    1.3371415476   -0.1845057390
 C   -0.0350284595   -0.1109663102   -0.0147794186
 O    1.1552801196   -0.4718947881   -0.7869943604
 C    1.9569115973   -0.6371683414    0.4169548369
 C    2.7288633037   -1.9426584567    0.4381829681
 C    2.8982276681    0.5591124152    0.4134466841
 O    2.9038275211    1.4665143801    1.2139688722
 C    0.6883032080   -0.5044168167    1.3080097551
 O    0.6782241823    0.3496116680    2.4074206761
 H    0.3536488253    2.0233336868    0.1068606667
 H   -0.7078980517    1.5344942653   -1.2281269587
 H   -1.3193398615    1.5494918756    0.4394122433
 H   -0.8588359622   -0.7787302419   -0.2915146391
 H    3.4793476608   -1.9700654209   -0.3591493641
 H    3.2384718763   -2.0710602320    1.3992815022
 H    2.0414347770   -2.7796908387    0.2890248456
 H    3.5805361786    0.5698235376   -0.4642625002
 H    0.3565167989   -1.4876922746    1.6561130022
 H    1.3420117917    1.0381583552    2.2515493876