14

 N   -0.0388963220    0.9397581636    1.1029645976
 C    0.0159353996    0.0623098726    0.1632118503
 C   -1.2653846199   -0.5159290068   -0.2510894510
 C   -1.5228271512   -1.4352345904   -1.1888414530
 C   -0.6148731137   -2.1574434654   -2.0961331888
 O   -1.0383251406   -2.9707520119   -2.8949514548
 N    0.7671874944   -1.9360353193   -2.0746476172
 N    1.6123744266   -1.1590987342   -1.3816579154
 C    1.2967481569   -0.3321534388   -0.4541524679
 H    0.8973107423    1.2884214333    1.3274078989
 H   -2.0991638823   -0.1076510259    0.3125799248
 H   -2.5504660225   -1.7407973768   -1.3547268635
 H    1.2419987450   -2.5105465562   -2.7589075788
 H    2.1603009773    0.1863329164   -0.0369567011