14

 N   -0.0882607681    1.3028159971   -0.3117323860
 C    0.0086629241    0.0823111519    0.0318188081
 N   -1.1140339616   -0.6049836404    0.4503865978
 C   -1.1871706105   -1.9234348927    0.8557978947
 N   -2.3041101144   -2.4137810979    1.2150476679
 N    0.0458601378   -2.5764049590    0.8133682523
 C    1.2564367092   -2.0301411521    0.4214827720
 O    2.2924210443   -2.6523644266    0.4103687542
 N    1.1637724909   -0.7013533699    0.0430507067
 H    0.8056681790    1.6928084350   -0.5986031888
 H   -1.9781340984   -0.0852419497    0.4614899618
 H   -2.2244089891   -3.3894760977    1.4892098163
 H    0.0886170171   -3.5433095364    1.0942488237
 H    2.0332666809   -0.2815888894   -0.2457470916