16

 O    0.3001063317    0.0099607098   -0.1107753382
 C    0.5334683101    1.0883310748    0.3376758966
 O    0.6516363271    2.1875311602   -0.4453918677
 C    0.9389633547    3.4348989250    0.1845841370
 C    2.3857833258    3.8396374059   -0.0289351722
 C    2.7960123351    4.3673451422   -1.3952056235
 C    2.7017151436    5.3155496572   -0.2416381540
 C    3.3418948125    3.0478625708    0.7029425376
 N    4.0862561722    2.4004902304    1.3073207475
 H    0.6674341220    1.3119287574    1.4131480631
 H    0.2807716380    4.1764696351   -0.2761656566
 H    0.7064369419    3.3841466665    1.2552967404
 H    3.7786465450    4.0921046997   -1.7574027534
 H    2.0202743071    4.3832286646   -2.1520708132
 H    1.8628897729    6.0014250356   -0.1952776923
 H    3.6180013003    5.6914355349    0.1963867290