16

 C    0.0227732967    1.4332897755   -0.0280616847
 C   -0.2147939576   -0.0555552740    0.0024648136
 O   -0.8061055371   -0.6620067665    0.8592099800
 O    0.3333930295   -0.6533896556   -1.0827353219
 C    0.1980233034   -2.0727102440   -1.1242873136
 C   -1.1724135279   -2.6377187168   -1.5347634103
 O   -0.5863116281   -3.3026904101   -2.6765352168
 C    0.6916773929   -2.6746674984   -2.4457357894
 H    1.0966909287    1.6398216661   -0.0023540435
 H   -0.3669933617    1.8576796225   -0.9573554547
 H   -0.4644080580    1.8960804490    0.8290635012
 H    0.6119556474   -2.5059340664   -0.2131020110
 H   -1.6411922326   -3.3386969803   -0.8376952093
 H   -1.8970962679   -1.8677956281   -1.8271115631
 H    0.9304665727   -1.9167797873   -3.2023836724
 H    1.5073374295   -3.4030690157   -2.3836720841