19

 C    0.0547270129    1.4153391136    0.0938166379
 N    0.1397159317   -0.0365578429    0.0793954809
 C    0.5925461683   -0.6072533955   -0.9553120941
 N    1.0435074798   -0.0262991011   -2.1421580637
 C    1.5859285263   -0.9136644230   -3.0618249885
 O    2.0043726430   -0.6106669843   -4.1511166643
 C    1.5603726306   -2.2897554420   -2.4015828975
 C    0.7203442194   -2.1207621384   -1.1179301008
 C    1.2746307558   -2.8063603032    0.1309010030
 H    0.9984412943    1.9026637648   -0.1973425158
 H   -0.7334233767    1.7842288226   -0.5792503386
 H   -0.1936344137    1.7537817491    1.1024809490
 H    0.9990488231    0.9606412944   -2.3443534591
 H    1.1712841356   -3.0320018605   -3.1010448256
 H    2.5955581896   -2.5713793796   -2.1768313584
 H   -0.2935583814   -2.4972130236   -1.3025620675
 H    2.3007746186   -2.4807905041    0.3319791938
 H    0.6651402947   -2.5510374399    1.0001979318
 H    1.2793945682   -3.8935624462    0.0075508574