14

 C   -0.0286093551    1.4604762753    0.0009517511
 C    0.0158491188   -0.0381356863    0.0367131011
 O    0.0468308341   -0.7104170701    1.0565170220
 N    0.0215600142   -0.6858539448   -1.1937460334
 N   -0.0105772201   -0.0522058051   -2.4228322586
 C    0.0107234119   -1.0743345424   -3.2439563172
 N    0.0539858594   -2.3259213368   -2.6789406980
 C    0.0600919212   -2.0593641291   -1.4016023733
 O    0.0965252764   -2.9193178919   -0.4081860365
 H    0.8327902095    1.8483272640   -0.5493637160
 H   -0.9193549773    1.7971117991   -0.5360749919
 H   -0.0314686599    1.8345497648    1.0238922843
 H   -0.0052184864   -0.9313036073   -4.3147013893
 H    0.0899273132   -2.3883812795    0.4218718158