20

 C   -0.4421744589    1.4358651299   -0.0147724990
 N    0.0645856738    0.0698500360    0.0233929700
 C    1.3871338295   -0.3888184049   -0.3621107662
 C    2.6004466654    0.5222115385   -0.3564891387
 O    2.3612594593    1.8865250844    0.0146035355
 C    2.8457641915    0.9875789633    1.0184497587
 C    1.7846924634    0.3924883718    1.9385304757
 C    0.8895190894   -0.5122152939    1.0634379105
 C    0.3789803437   -1.7919072100    1.6876743334
 H   -0.4289890392    1.7905126722   -1.0491814979
 H   -1.4859792769    1.4124043537    0.3185832516
 H    0.1119265172    2.1578703974    0.5896785046
 H    1.4106491407   -1.2265157385   -1.0570617427
 H    3.3872660376    0.3695836289   -1.0904508707
 H    3.8316711220    1.2322211503    1.4078607912
 H    2.2758671398   -0.2212888486    2.7014421637
 H    1.2202057937    1.1677352577    2.4690340017
 H   -0.2794778729   -1.5787803341    2.5385262737
 H   -0.1963416882   -2.3622527640    0.9547366651
 H    1.2035402492   -2.4140936302    2.0538642398