17

 C    0.0124763823    1.5045246079    0.0097911864
 C    0.0480631871   -0.0026826522    0.0011301148
 O    1.0602836828   -0.6629719826   -0.0119238165
 C   -1.3283129211   -0.7163834182    0.0108152413
 O   -2.3446794188   -0.0601180116    0.0239649157
 C   -1.2976356638   -2.2275057469    0.0023538233
 C   -2.7051260163   -2.8432541199    0.0127994350
 C   -2.6703895057   -4.2999415924    0.0045092794
 C   -2.6172128391   -5.5005125035   -0.0025079931
 H    1.0294412895    1.8967402500    0.0021187794
 H   -0.5460424302    1.8713232355   -0.8573120869
 H   -0.5291131164    1.8616857290    0.8915372988
 H   -0.7227812021   -2.5577293233   -0.8709690703
 H   -0.7057951416   -2.5670977805    0.8606027523
 H   -3.2518870670   -2.4843466405    0.8923380587
 H   -3.2689959517   -2.4748213300   -0.8518703896
 H   -2.5849800679   -6.5617087411   -0.0086337086