19

 C   -0.0111726838    1.5706674486   -0.0018659523
 C    0.0697307675    0.0501006461    0.0315982445
 O   -1.2327363689   -0.5084138572    0.1640548171
 C    0.7660014070   -0.7101143166   -1.0914451386
 C    2.2779238622   -0.8136346424   -0.7275724125
 C    2.4776189010   -0.1257367703    0.6230308664
 C    1.0744349100   -0.6673123467    0.9978127694
 C    1.2537082946   -1.7652418499   -0.1561599916
 O    1.0788520480   -3.1190753578   -0.2221066460
 H    0.9537851937    2.0355379560   -0.2154401680
 H   -0.7188007774    1.8802742455   -0.7771182680
 H   -0.3696344632    1.9635602372    0.9584030789
 H   -1.6093522192   -0.1757153151    0.9862347739
 H    0.4317509284   -0.8322656552   -2.1137993021
 H    3.0041034257   -0.9996151662   -1.5090615273
 H    3.2695762326   -0.6141772226    1.1993888419
 H    2.6296738376    0.9576701682    0.6581156363
 H    0.7826239977   -0.8429551311    2.0328466560
 H    1.8211597765   -3.5470091003    0.2198070621