12

 O    0.1185441655   -0.1298282768    0.0421845027
 C    0.0553435178    1.0478537039   -0.0874312639
 O   -1.2009729716    1.6040830622   -0.3559378391
 C   -1.5160001887    2.8480099351   -0.7781213217
 N   -0.8258016668    3.7457479849   -1.3473680214
 C    0.5354807329    3.7234438073   -1.5612065433
 C    1.4889899464    3.0333565721   -0.8998099101
 C    1.2833769055    1.9732255942    0.0835360717
 O    2.0908278776    1.6644553434    0.9289218721
 H   -2.5758826427    3.0166445885   -0.6047970804
 H    0.8533150809    4.4547655143   -2.3000959188
 H    2.5315168932    3.2701380110   -1.0876900779