16

 C   -0.0807361203    1.4609124138   -0.0618796777
 O   -0.0250272099    0.0480449234    0.0705330416
 C   -1.2479097558   -0.5760789633   -0.0003001313
 O   -1.7865144418   -0.5030358314   -1.3475800221
 C   -1.6207301804   -1.7437134359   -1.8731845557
 N   -1.2467339407   -2.7007572129   -1.1344910544
 C   -1.1103132603   -2.1152039589    0.2227581242
 C    0.1078844001   -2.5267724619    0.9051441976
 C    1.0838271964   -2.8990019840    1.4963096994
 H    0.9346964620    1.8300665989    0.0904613010
 H   -0.4318993097    1.7551309981   -1.0571954686
 H   -0.7436032626    1.9023210164    0.6963804089
 H   -1.9873561216   -0.0936132994    0.6509922915
 H   -1.8466797513   -1.8203463615   -2.9309621671
 H   -1.9717454936   -2.4586553015    0.8108996584
 H    1.9589300396   -3.2182477399    2.0060900243