16

 O   -0.1791278076    1.3229360202    0.0048595102
 N    0.0223097525   -0.0785321600    0.0040086928
 C   -1.0881938585   -0.6840841905    0.0803646076
 C   -1.4067802535   -2.1258696557    0.0112027146
 C   -2.6145385166   -2.3846748343    0.9271636692
 O   -2.8464932663   -1.5352272947    2.0212845650
 C   -3.1059837041   -0.2261631920    1.4932785199
 C   -2.5599828523   -0.2748249189    0.0610103767
 C   -2.8688012037   -1.7433876860   -0.3762320229
 H    0.7223668154    1.6516675440   -0.0733185442
 H   -0.7748760090   -2.9255252934   -0.3538639552
 H   -2.8650393972   -3.4204082080    1.1222078899
 H   -4.1864946802   -0.0213149774    1.5020034254
 H   -2.5936729554    0.5087146955    2.1196483263
 H   -2.8319255365    0.5589859753   -0.5824117595
 H   -3.4842686071   -2.0815806742   -1.1974650057