15

 C   -0.0871462969    1.4752310921    0.0108538806
 C    1.3831299381    1.8163975037   -0.0010452568
 C    2.1191687410    0.8344060773    0.9588113010
 O    3.1825901003    0.6683055921   -0.0251616194
 C    2.1006527913    0.8462482316   -0.9866248397
 C    1.1801953226   -0.3793544447   -0.7573214167
 C    1.1943377090   -0.3884048885    0.7321800216
 N   -0.0323005857   -0.0043760440    0.0013192303
 H   -0.6120776600    1.8194620079    0.9082266262
 H   -0.6289933992    1.8302973226   -0.8721272467
 H    1.7236401215    2.8482999050    0.0019986400
 H    2.4692805160    1.0715881103    1.9617193721
 H    2.4316395102    1.0956658124   -1.9930520852
 H    1.1440853063   -1.2464494765   -1.4030033800
 H    1.1703965454   -1.2632800813    1.3678556724