19

 C    0.0453966926    1.5832346460    0.2560076875
 C   -0.0252984873    0.0809096610    0.0458564472
 C   -1.3535166191   -0.4558266740   -0.4640549385
 C   -1.7261974562    0.0219905260   -1.8650130426
 O   -2.9361455927   -0.6280761835   -2.2299480238
 C    1.2344307416   -0.6258323280   -0.4028967497
 C    0.7401166446   -0.7876175274    1.0158356742
 H    1.0140991289    1.8758190228    0.6732315806
 H   -0.0864872979    2.1354140802   -0.6811541552
 H   -0.7320311593    1.9207817606    0.9519735537
 H   -1.3264373004   -1.5514558572   -0.4847023777
 H   -2.1618440797   -0.1774175630    0.2245869502
 H   -1.8493373623    1.1160741732   -1.8768680567
 H   -0.9128221010   -0.2227907195   -2.5670056643
 H   -3.1913066230   -0.3182609724   -3.1036013569
 H    1.1377286939   -1.4731465990   -1.0740509443
 H    2.1269338363   -0.0313675044   -0.5684203065
 H    1.2973821752   -0.2991524727    1.8086149992
 H    0.3097753357   -1.7419708388    1.3008299035