16

 N    0.1199782288    1.2733464859    0.3686971371
 C   -0.0503161595    0.1329985582   -0.3690958646
 O    0.7636481987   -0.2788470387   -1.1682250055
 C   -1.3668037251   -0.5445960867   -0.1434903189
 O   -1.3602264873   -1.9769971932   -0.0498447738
 C   -2.1453533758   -1.3706154495   -1.0699835843
 C   -3.4842096188   -0.8501256779   -0.4600767458
 C   -3.5563828761   -1.1099650089    1.0211323914
 C   -2.6824746171    0.0051144256    0.5128797191
 H    1.0282900366    1.7087653360    0.3313492933
 H   -0.4504212885    1.4499738182    1.1785860762
 H   -1.9387854483   -1.6457538039   -2.0966579139
 H   -4.3354855169   -0.5544906709   -1.0575527384
 H   -4.4781312230   -0.7832863039    1.4917588371
 H   -3.1123781920   -2.0031126441    1.4416027465
 H   -2.8420550156    1.0489101637    0.7489247343