17

 O   -0.1824178795    1.4550408178    0.1975518697
 C    0.0719429713    0.0598383301   -0.0015193919
 C    0.9072561152   -0.4617967513    1.1351042244
 C    0.9741377442   -1.6764047214    1.6979007912
 C    0.2419109182   -2.8927938930    1.3842889052
 C   -0.8608969784   -3.0449492474    0.6357600454
 C   -1.6713278012   -1.9913391483   -0.0039257788
 O   -2.1177879101   -0.8664487056    0.7931026300
 C   -1.2541662608   -0.6075187022   -0.3082075365
 H   -0.7424761456    1.5233865922    0.9803901182
 H    0.6732508466    0.0287432731   -0.9223840162
 H    1.5866476255    0.3032486381    1.5040199596
 H    1.7190659360   -1.7966709826    2.4816914292
 H    0.6580440961   -3.7947399734    1.8272417944
 H   -1.2470576708   -4.0514025800    0.5000357070
 H   -2.4665627078   -2.3799369040   -0.6405457521
 H   -1.7501940890   -0.1234661019   -1.1538044587