10

 O   -0.0474768333    1.3046754815    0.0095251446
 N    1.3206826489    1.7458403617   -0.0010543254
 N    2.0883881102    0.7492907213   -0.0138917891
 N    1.3353052665   -0.3663229731   -0.0128739008
 C    1.4091856024   -1.7519953478   -0.0212430942
 C    0.0856716468   -2.1232143559   -0.0106274300
 N   -0.7989255817   -1.0432017095    0.0037572088
 C    0.0120735131   -0.0308728960    0.0016002432
 H    2.3369548834   -2.2936785839   -0.0331075262
 H   -0.2967224062   -3.1328075482   -0.0125391611