19

 C   -0.0453075932    1.4368164467   -0.3989912673
 C    1.3951593669    1.6415201761    0.1520132528
 O    1.4526627217    2.4185826706    1.3443614216
 C    1.8723118925    1.5841557540    2.4205342233
 C    1.3151536724    0.1940207228    2.0944018009
 C   -0.2166653030    0.0935510913    2.3249816492
 O   -0.7948895274   -0.4459559312    1.1427590396
 C    0.0020908160   -0.0628348231    0.0429771889
 C    1.4519878282    0.1442650610    0.5604670464
 H   -0.8034107865    2.0476174628    0.0948278710
 H   -0.1295323585    1.5641212600   -1.4812046751
 H    2.1360451567    2.0014795603   -0.5687328814
 H    2.9707554557    1.5582099370    2.4962661644
 H    1.4757903338    2.0126804708    3.3471354762
 H    1.8556535533   -0.6088975265    2.5990119721
 H   -0.4846749925   -0.5667986998    3.1541851236
 H   -0.6270943574    1.0927036589    2.5335454792
 H   -0.1682005084   -0.7871238535   -0.7554669972
 H    2.2558019796   -0.4836936581    0.1795212817