16

 C   -0.0221723785    1.4605162625    0.0436200627
 C   -0.0381271256   -0.0440124367    0.0661173326
 C   -1.3094520855   -0.7911177244   -0.3407128350
 O   -1.2399678709   -2.0682744587    0.2990977376
 C    0.1204796668   -2.2548063115    0.6525796496
 C    0.6723283714   -0.8678409524    1.0412647198
 N    1.2747192206   -0.6766693951   -0.3735845392
 C    1.0217620208   -2.0920063231   -0.5966874201
 O    1.4969313650   -2.8070446838   -1.4204582651
 H    0.9572043444    1.8365428070    0.3452325992
 H   -0.2310632979    1.8327530054   -0.9642702607
 H   -0.7820540494    1.8621744221    0.7217997788
 H   -2.2052032732   -0.2719227909    0.0153636843
 H   -1.3770648369   -0.9044470324   -1.4313073877
 H    0.2256866854   -3.1288453914    1.2919940187
 H    1.2184788833   -0.5606743766    1.9221879444