19

 C   -0.0583948077    1.5784292700    0.0488124594
 C    0.0057122550    0.0430645658   -0.0209266883
 C    0.7868001904   -0.5010373984   -1.2321434597
 C    2.2396139628   -0.7310443539   -0.7205397055
 C    2.0328996354   -1.2159224604    0.7254298026
 C    0.7650043094   -0.4995777026    1.2025595011
 O    0.4287646189   -0.3593577178    2.3487019781
 C    2.9765186864   -1.7367918911   -1.5710587291
 O    3.9667922076   -1.5166332555   -2.2165553461
 H    0.9397120596    2.0255266749   -0.0126769929
 H   -0.6561733146    1.9762017421   -0.7763491895
 H   -0.5106693444    1.8916433370    0.9932303224
 H   -1.0167687462   -0.3470838619    0.0133602732
 H    0.3637719949   -1.4601243090   -1.5564754225
 H    0.7651199361    0.1705096493   -2.0936973907
 H    2.8056379355    0.2046066869   -0.7399241893
 H    1.8242737149   -2.2964919399    0.7422238698
 H    2.8730093516   -1.0384921101    1.3993447590
 H    2.5064548641   -2.7515259755   -1.5623312320