21

 C   -0.0693925967    1.5091836158    0.1422926129
 C    1.4496032253    1.6566712267   -0.1538431028
 C    1.6104084282    0.1449042272    0.0811664363
 C    2.6178521721   -0.8391587240   -0.5445607660
 C    2.6340781800   -1.6412325534    0.7897272383
 C    1.9041025801   -0.4492892517    1.4855514352
 O    0.6893180075   -0.6970575156    2.1654428748
 C   -0.3272287974   -0.9047979165    1.1839912702
 C    0.0622452410   -0.0357134368   -0.0112383575
 H   -0.3267225474    1.7926596083    1.1663366240
 H   -0.7561406267    2.0101938487   -0.5431832775
 H    1.6393331042    1.9298547268   -1.1968521147
 H    2.0317863467    2.3240456296    0.4888863638
 H    2.2960494872   -1.3684529146   -1.4459925194
 H    3.5798956816   -0.3613299358   -0.7541989326
 H    2.0120907478   -2.5392363813    0.7628389767
 H    3.6122618582   -1.9108902109    1.1932602140
 H    2.5438335686    0.1342176315    2.1530235960
 H   -0.3798602906   -1.9658821243    0.8942535220
 H   -1.2840840938   -0.6300437119    1.6394150924
 H   -0.3168431260   -0.4171355078   -0.9620558261