17

 O   -0.0223686857    1.3905758980    0.1191889354
 C    0.0234201876   -0.0025992098    0.0349471456
 C   -1.3855801209   -0.6191653933   -0.1920809808
 C   -1.2387605986   -0.1987430888   -1.6863729738
 C    0.2453078448   -0.5999315456   -1.4078093660
 N    0.2209847495   -2.0442358154   -1.0943263068
 C   -1.0231516788   -2.1106845502   -0.2523178781
 C    1.3461682969   -0.1553059694   -2.2309299606
 N    2.2189037253    0.2549247176   -2.8691289757
 H    0.8742563299    1.7321552491    0.0284079844
 H    0.6555457196   -0.4572833473    0.8075421145
 H   -2.2348195647   -0.3186048361    0.4184054324
 H   -1.7692878776   -0.7786469526   -2.4455154244
 H   -1.3687329545    0.8708452559   -1.8346262712
 H    0.1027551547   -2.5791989446   -1.9488930489
 H   -0.7977765105   -2.5359287822    0.7305824450
 H   -1.8097040971   -2.7121942452   -0.7184301610