19

 C   -0.1919602699    1.5098974070   -0.1016777213
 C    0.0880793627    0.0079914759   -0.0258092220
 N    0.8039251756   -0.4874609629   -1.1870351411
 N    0.1492342407   -0.6961007914   -2.3657058325
 C    1.0867188702   -1.0930388245   -3.2195964050
 C    0.7276997444   -1.4311726411   -4.6320946419
 C    2.3649307665   -1.1402929428   -2.6079205172
 C    2.1258746180   -0.7391566878   -1.3095610072
 O    2.9234579256   -0.5682627960   -0.2287427552
 H    0.7411186574    2.0805642254   -0.1257173497
 H   -0.7637540844    1.7414314143   -1.0037934058
 H   -0.7698139817    1.8312742263    0.7704916919
 H    0.6892944733   -0.2339256278    0.8540350229
 H   -0.8485468856   -0.5529308696    0.0371627096
 H    1.2648040013   -0.7969037456   -5.3463149443
 H    0.9763751666   -2.4710613608   -4.8723312145
 H   -0.3445454658   -1.2895597822   -4.7837019815
 H    3.3092177049   -1.4260448111   -3.0432793175
 H    3.8164907602   -0.8374802351   -0.4637011179