16

 O    0.1206475771    1.2437206556    0.4349060275
 C   -0.0011436020   -0.1189145577    0.1270571184
 C   -1.4348847179   -0.5153113794   -0.0561325417
 N   -2.4099564534    0.2850699155    0.0785882193
 C   -3.6308681258   -0.4844806746   -0.1672892729
 C   -3.1247509602   -1.9382622807   -0.4674618308
 O   -1.6732326686   -1.8082402280   -0.3797122949
 C   -3.5999858278   -2.9475004244    0.4639025639
 C   -4.0273015424   -3.7643822964    1.2339995861
 H   -0.7817348345    1.5881238639    0.4988506489
 H    0.5483840172   -0.3625654921   -0.7948709737
 H    0.4296588264   -0.7483540308    0.9216227742
 H   -4.2857013119   -0.4593832587    0.7076018733
 H   -4.1824583765   -0.0673173939   -1.0151197518
 H   -3.3498601734   -2.2421740907   -1.4942335727
 H   -4.3981010163   -4.4923770475    1.9131346469