15

 O    0.0930764886    0.0044593283   -0.1210561842
 C    0.0027046422    1.1860529107   -0.0557737070
 O   -1.1543934676    1.8871323230   -0.1514246720
 C   -0.9061539927    3.2731824160    0.0784892098
 C    0.6255174157    3.3911257875    0.0549449774
 C    1.3186816838    4.2371885009   -1.0354929376
 O    1.8238059728    5.1556305150   -0.0470483654
 C    1.3263217233    4.3475945197    1.0361425886
 O    1.0522822381    2.0365108385    0.1244260497
 H   -1.3936737821    3.8573537273   -0.7051595304
 H   -1.3248448716    3.5557177857    1.0506429265
 H    2.1168871085    3.6963919846   -1.5570763024
 H    0.6631807559    4.7291335480   -1.7640312083
 H    0.6723908687    4.9128432698    1.7116079997
 H    2.1265435764    3.8670188653    1.6109987756