16

 C   -0.3717920719    1.2680181954   -0.4288664419
 C    0.4219280953    0.1044611726    0.1686303698
 N    1.1808772263   -0.6373157462   -0.8258982893
 C    0.7944878535   -1.8489183212   -1.2805796792
 O   -0.1512147194   -2.4999678480   -0.9048943596
 O    1.6812677054   -2.2485383817   -2.2679265900
 C    1.4626087865   -3.4683800240   -2.8451502684
 N    2.2552395858   -3.8482799408   -3.7462514732
 H    0.2884657638    1.9863332507   -0.9263820253
 H   -1.0966883168    0.9049870198   -1.1629296705
 H   -0.9146225998    1.8003941373    0.3583259705
 H    1.1134622845    0.4690292927    0.9368659798
 H   -0.2487166075   -0.6151621927    0.6425162791
 H    1.9707866995   -0.2084671822   -1.2810817142
 H    0.5911960091   -3.9774877575   -2.4322213382
 H    1.9730959059   -4.7676286441   -4.0825793692