19

 C   -0.1204239787    1.6223857062    0.1751751434
 C   -0.1681285576    0.0990171775    0.1352658014
 N    0.8527611144   -0.4715609488    1.0283283658
 C    0.8741427660   -1.8796800707    1.0779569893
 C   -0.1427513987   -2.6650313191    1.9203805378
 C    1.3091270629   -2.8525126586    2.1625646386
 O    1.8392902170   -3.7722890028    1.1694642226
 C    1.5484361618   -2.8577366355    0.1537620860
 N    1.8620097450   -2.8613816310   -1.0593272330
 H    0.8441034314    1.9968461194   -0.1870676125
 H   -0.8996498975    2.0493408532   -0.4628058235
 H   -0.2631139905    1.9889490715    1.1959629739
 H   -1.1439430651   -0.2553577116    0.4875192589
 H   -0.0549449027   -0.2558337933   -0.9005905337
 H    1.7685833773   -0.1173363116    0.7685673451
 H   -0.6590115161   -2.0313759622    2.6350200839
 H   -0.7259511235   -3.4723978481    1.4893571490
 H    1.8716116902   -2.7201354301    3.0755929883
 H    2.3905727343   -3.6996988145   -1.3070874015