17

 C   -0.1048923070    1.5402683373    0.0535652646
 C    0.0154456838    0.0149887374    0.0072390187
 C    0.7740537640   -0.5114592340   -1.2399385195
 C    2.2561096508   -0.0799086386   -1.2785171809
 C    0.6669431960   -1.9632526976   -1.3163280488
 C    0.5816793691   -3.1685727725   -1.3619507395
 C    0.4857085716   -4.5289992494   -1.4165133986
 N    0.4043342724   -5.6872471484   -1.4629754869
 H    0.8692411732    2.0293074182    0.1442065687
 H   -0.5929638786    1.9274354930   -0.8477857906
 H   -0.7065730137    1.8474840728    0.9138074858
 H    0.5237763249   -0.3535179828    0.9059681338
 H   -0.9849979471   -0.4301761240    0.0131098910
 H    0.2758753248   -0.1022755513   -2.1311860570
 H    2.7851252162   -0.4404300616   -0.3913337254
 H    2.7563062925   -0.4846807814   -2.1615880733
 H    2.3350130470    1.0091571829   -1.3111459121