15

 O    0.1186169266    0.1855541208   -0.7550475954
 C   -0.0430192410    1.1918351639   -0.1474260662
 C   -1.1967246924    2.0653627988    0.3425814371
 C   -0.0748154146    2.9379717384    0.9163352917
 C    0.1948804922    4.4386185785    0.5882136532
 C    0.3046574047    4.6871636651    2.0995977527
 O   -0.9311367329    4.2458016551    2.6784521188
 C    0.0757293640    3.2655449791    2.4059903216
 O    0.9280129844    2.0152137451    0.3841556869
 H   -1.7944875481    2.5100480699   -0.4547083251
 H   -1.8549198248    1.5885631359    1.0708588335
 H    1.1442744796    4.5412811597    0.0576620444
 H   -0.5928159372    4.9911621341    0.0716407102
 H    0.8670023117    5.4403489731    2.6364736898
 H    0.4136768677    2.6281371026    3.2142082569