18

 C    0.2895643048    1.5783270983   -0.0940658253
 C    0.0910124705    0.0739062817    0.0180509229
 C    0.9283978803   -0.8681047193   -0.8996640963
 C    1.2551024323   -1.7851946407    0.3293220143
 C    0.6000746473   -0.6974480677    1.2685693982
 C    2.0103484814   -0.3236605006    1.8143440901
 C    2.6118128448   -1.4498868020    0.9460650163
 O    3.7102271080   -1.9150893339    0.8441559477
 H    1.3455485882    1.8583355048   -0.0195011736
 H   -0.0755144074    1.9460154183   -1.0594632290
 H   -0.2556212991    2.1120161808    0.6924360342
 H   -0.9723763077   -0.1541708116   -0.1125973753
 H    0.3696984733   -1.3656441554   -1.6944325044
 H    1.8106141745   -0.4024089771   -1.3489530839
 H    0.9551527948   -2.8311198754    0.2625991963
 H   -0.1350196846   -0.9494068809    2.0327186066
 H    2.3869880891    0.6840961136    1.6191066769
 H    2.1389138894   -0.5275757829    2.8823333644