20

 C   -0.2279256832    1.5510711183    0.0533484870
 C    0.0059975417    0.0741059648   -0.0110644442
 C    0.0737323933   -0.6891125494   -1.1185854800
 C    0.1706629583   -2.1252552636   -0.7628940493
 C    1.2788410888   -3.1910179884   -0.8676451811
 C    1.3042276117   -3.2459882336    0.7059424034
 C    0.1850671512   -2.1860141760    0.7309625646
 C    0.1395021502   -0.7668670934    1.2676592643
 N   -0.9554130010   -2.7460968247   -0.0134089718
 H    0.5590178274    2.0524016816    0.6314650819
 H   -0.2561154982    1.9978717245   -0.9440938710
 H   -1.1762070221    1.7852842082    0.5545476675
 H    0.0188866492   -0.3041890633   -2.1316583545
 H    0.9982774090   -4.1101134691   -1.3869440916
 H    2.2084798473   -2.8030658325   -1.2886737657
 H    1.0563502318   -4.2033790121    1.1706449105
 H    2.2455603695   -2.8747868431    1.1183189904
 H    1.0620052910   -0.5126486238    1.8071305502
 H   -0.6833396492   -0.5769774505    1.9700069987
 H   -1.7174792165   -2.0708232439    0.0029205307