17

 N    0.0787974208    1.4164218065    0.2773028827
 C   -0.0025854283   -0.0046815549   -0.0194361524
 C   -1.4538220540   -0.4842799222   -0.0449435570
 N   -1.4783209989   -1.8943875109   -0.3930679898
 C   -0.8385983387   -2.3562795086   -1.5210679115
 N   -1.2026964457   -3.4417722641   -2.0846500815
 N    0.2295328803   -1.5409905141   -1.9365848848
 C    0.7060444117   -0.3983942490   -1.3247446021
 O    1.6262419629    0.2377243952   -1.7930358107
 H    1.0511889448    1.7002885467    0.1839821732
 H   -0.4113784154    1.9354967438   -0.4486115262
 H    0.5138108859   -0.5548176857    0.7795335998
 H   -1.8979334644   -0.3554583019    0.9440109049
 H   -2.0328968041    0.1358298236   -0.7511207814
 H   -2.3247626919   -2.4097138059   -0.2043274093
 H   -0.5845953051   -3.6987592583   -2.8504860426
 H    0.7157755803   -1.8139684601   -2.7795873613