20

 C   -0.2843077755    1.4949114077   -0.0433297174
 C    0.1691569895    0.0314476446    0.0501838886
 C    0.8087709787   -0.4818523165   -1.2198779975
 C   -0.0281886799   -1.0105136444   -2.3613181992
 C    0.8743537305   -1.9465488309   -1.5945795686
 C    2.2529249181   -2.1651485169   -2.1868600023
 O    2.7167827806   -0.8684619544   -2.5555368833
 C    2.1622485503    0.0754630856   -1.6454649987
 H    0.5615294063    2.1656179270   -0.2278034746
 H   -0.9996960838    1.6316342115   -0.8608441034
 H   -0.7656021288    1.8179590446    0.8848848738
 H    0.8768818201   -0.0788722778    0.8833968991
 H   -0.6930692220   -0.6003057283    0.2957453929
 H   -1.0958321586   -1.1008461602   -2.1899536265
 H    0.2496726877   -0.7498961365   -3.3781936576
 H    0.4458264590   -2.7130605613   -0.9586650925
 H    2.9183468598   -2.6312143342   -1.4411008439
 H    2.2670079307   -2.7813986608   -3.0923796028
 H    2.1147592090    1.0358847210   -2.1696519011
 H    2.8044026383    0.1995005504   -0.7558043650