16

 C   -0.1128105241    1.4558020048   -0.0864644046
 N   -0.0460703337    0.0665530117    0.3540377852
 C   -1.1950115527   -0.7082186136    0.1922349926
 C   -1.2793274324   -2.0568717393   -0.0078185826
 O   -0.3353229697   -3.0171530743   -0.2236745011
 N   -2.6569605413   -2.3524918835   -0.0073135355
 C   -3.2835850759   -1.1700094193    0.1655793047
 O   -4.6280969095   -1.1130279857    0.1814146188
 N   -2.4651073017   -0.1599190737    0.3015768327
 H    0.8320151922    1.9481720403    0.1588415884
 H   -0.3028654437    1.5729080194   -1.1652202917
 H   -0.9173809015    1.9617011292    0.4500362714
 H    0.7615740339   -0.4162781517   -0.0177646747
 H   -0.0341479364   -3.3706140200    0.6231548130
 H   -3.0807738223   -3.2397725578   -0.2160969306
 H   -4.8521638013   -0.1829302564    0.3115521641