16

 C    0.0997820229    1.5603983091    0.1189723857
 C    0.0193343072    0.0716223608    0.0421788108
 C    0.0057817996   -0.6938305647   -1.0807043828
 N    0.0599791212   -0.3389342639   -2.4290930321
 O   -0.0769554201   -2.0334901235   -0.7444780865
 C   -0.1153170029   -2.1027264474    0.6022433864
 C   -0.0604492786   -0.8539228918    1.1553660124
 C   -0.0775618236   -0.5260826462    2.5298170762
 C   -0.0903374546   -0.2172790802    3.6941802967
 H    0.1496369106    1.9861722437   -0.8854929473
 H   -0.7718101732    1.9799258962    0.6335468256
 H    0.9843351344    1.8826277582    0.6794987977
 H   -0.7655769147   -0.6378518488   -2.9393070465
 H    0.8715975888   -0.7299537160   -2.8976918542
 H   -0.1808118821   -3.0868538272    1.0361043061
 H   -0.1021560249    0.0457881118    4.7224973517