19

 C   -0.0333007860    1.2348661031   -0.4667940383
 C    0.0099673466   -0.1870040774    0.1283734287
 C    0.7084676248   -0.2115133706    1.4922549599
 C   -1.3643015617   -0.7687488195    0.2311530161
 N   -2.0414296151   -1.1210097867    1.2702508425
 C   -3.2695527380   -1.5657009354    0.7795710804
 C   -3.2579799811   -1.4607434928   -0.5740360798
 N   -4.1142219365   -1.8203130446   -1.6032633805
 O   -2.0513728612   -0.9552133619   -0.9499053900
 H    0.9819153202    1.6192256931   -0.6063717283
 H   -0.5387434396    1.2432510771   -1.4361359748
 H   -0.5669832314    1.9171121273    0.2032398573
 H    0.5782801022   -0.8179960954   -0.5697486567
 H    0.1628339194    0.3993155248    2.2167936054
 H    0.7614329160   -1.2266669646    1.8924403055
 H    1.7247971235    0.1830648489    1.3998983192
 H   -4.0525387753   -1.9234672665    1.4277267251
 H   -5.0562924991   -1.9887426701   -1.2775950687
 H   -4.1177175678   -1.1526714289   -2.3649954129