18

 C    0.3078963332    0.7194716013   -0.6207763453
 N   -0.2762431793    0.1936579785    0.6138545207
 C    0.6542339491   -0.4765892283    1.5050837289
 C    0.6923733510   -1.9912939460    1.2339406998
 O    1.2941382589   -2.2020190763   -0.0398704065
 C    1.0740813916   -3.4033308615   -0.6338929365
 N    1.5632532864   -3.6231584306   -1.7717625826
 C    1.4443242641   -2.7002747521    2.2881086591
 N    2.0222047535   -3.2512856932    3.1230122573
 H    0.6689535481   -0.1027099120   -1.2408275413
 H   -0.4653953031    1.2548179706   -1.1786378011
 H    1.1517570985    1.4093506647   -0.4488813561
 H   -0.7346804269    0.9432826330    1.1154879498
 H    1.6856274546   -0.0936837888    1.4395432305
 H    0.3229989567   -0.3494486223    2.5403870181
 H   -0.3405877340   -2.3611555017    1.2293907655
 H    0.4621686844   -4.0865113719   -0.0313908945
 H    1.3124840432   -4.5571006036   -2.0891151855