14

 O    0.0070700698    0.0719989228   -0.2767783536
 C    0.0593530886    1.2627393487   -0.0523293796
 N    1.1917906438    1.9383174426    0.2724676344
 C    2.5927355965    1.5179804741    0.0750719821
 C    2.9695654069    3.0013460866   -0.0815862145
 C    2.1504243952    3.6479967909   -1.1714258649
 C    1.5069068538    3.3562334117    0.1565519933
 H   -0.8295849922    1.9277490599   -0.0475521325
 H    3.0088930474    1.0463075394    0.9698493591
 H    2.7468813491    0.8640278048   -0.7886833274
 H    3.8494740563    3.4639860753    0.3414790995
 H    2.3799179958    4.6931457092   -1.3543376334
 H    1.8547605204    3.0840426271   -2.0521397533
 H    1.0528878487    4.0949488668    0.8053629609