13

 C    0.0392208503    1.5330491006    0.1859187362
 C   -0.0778564813    0.0560488054    0.0348165377
 C   -1.1406721419   -0.6104537254   -0.4035656261
 O   -1.1799597688   -1.9808555341   -0.5184286289
 C   -0.0970626543   -2.7274526119   -0.1747475960
 O   -0.1165497885   -3.9149739109   -0.2677305696
 C    1.1455260135   -1.9735254993    0.3355462422
 O    2.1391815610   -2.5448664343    0.6582838638
 O    1.0715843879   -0.6143507214    0.4068839963
 H    0.8596974131    1.9195012074   -0.4279751556
 H   -0.8872579656    2.0240173097   -0.1175867049
 H    0.2535106884    1.7983392842    1.2266272188
 H   -2.0650392237   -0.1446854302   -0.7080726638