18

 C   -0.0499750797    1.4146317814    0.3553987490
 C   -0.0059961903   -0.0708362700    0.1194885024
 C    0.8001860016   -0.8938552187   -0.9421024154
 C    2.0322682170   -1.0567613838   -0.0498588807
 C    0.8203863293   -1.1679441275    0.8780806686
 N    0.0482525546   -2.0166252930   -0.1749171883
 C   -1.1545070840   -1.0647678325   -0.0404662398
 C   -2.0542609448   -1.3874928523    1.1226961044
 O   -2.0519946750   -0.7841048738    2.1682784937
 H    0.9583204917    1.8357695952    0.4313849678
 H   -0.5667994418    1.9278790267   -0.4631287793
 H   -0.5850430170    1.6317794155    1.2843583926
 H    0.7187705289   -0.8343360314   -2.0297216775
 H    2.6142908711   -1.9704341853   -0.1946846449
 H    2.6749346738   -0.1823837361    0.0751366454
 H    0.7707645932   -1.4212821805    1.9367412691
 H   -1.7410902441   -1.0290003086   -0.9697801748
 H   -2.7318265643   -2.2564234155    0.9617018677