19

 C    0.2033226066    1.5532769186    0.0941897951
 C   -0.0089977223    0.0370366467    0.0384563664
 C    0.5018564702   -0.5660472554   -1.2591815586
 O    1.9358927013   -0.4079101757   -1.4208753170
 C    2.1402981220   -1.8272752990   -1.6113625310
 C    0.6594320812   -2.0857480204   -1.3710087768
 C   -0.0425054281   -3.1587932330   -0.6407292051
 N   -0.1536647669   -3.0351268676   -2.1115728635
 H    1.2639036814    1.7918367729   -0.0231351971
 H   -0.3461019104    2.0601809848   -0.7068571282
 H   -0.1381525200    1.9656541938    1.0480463724
 H    0.5044475057   -0.4480921832    0.8767948260
 H   -1.0773171974   -0.2000417115    0.1361449835
 H   -0.0297900391   -0.1247651575   -2.1183857288
 H    2.4833594805   -2.0672371540   -2.6253696925
 H    2.8420479634   -2.2433585276   -0.8784194743
 H    0.5028931904   -4.0345356638   -0.2983757399
 H   -0.8961374230   -2.8881161626   -0.0241283872
 H   -1.0467623355   -2.6169468156   -2.3645335134