20

 N   -0.0811635325   -1.1626351467   -0.1881015678
 C   -0.0689611245   -0.0112729684   -0.0905536344
 C   -0.0274472377    1.4442249321    0.0319882146
 C    1.4096112303    2.0018434545    0.0051866615
 C    1.4373681934    3.5276892857    0.1427982510
 C    2.8485130982    4.1015149259    0.0994992418
 C    3.5600601182    4.1518578056   -1.2745621991
 O    3.6706483096    5.5873797973   -1.2189048268
 C    2.9826571804    5.6406652829    0.0462023093
 H   -0.6180910793    1.8784874636   -0.7832675201
 H   -0.5271002352    1.7284122808    0.9656973550
 H    1.9870187529    1.5419024977    0.8151383134
 H    1.8910563273    1.6980386024   -0.9312539036
 H    0.8387041585    3.9818313552   -0.6590792685
 H    0.9573747807    3.8182938169    1.0874964982
 H    3.4635414028    3.6462969374    0.8812387625
 H    4.5413277760    3.6660026329   -1.3338705950
 H    2.9499220666    3.8201803455   -2.1267178229
 H    2.0316953085    6.1867203667   -0.0250393045
 H    3.5967613559    6.1010963121    0.8295912555