19

 C    0.0254054408    1.5594950141    0.0215502801
 C   -0.0722707085    0.0342503560   -0.0650774262
 C    0.7765008356   -0.5662728747   -1.1801015977
 C    0.7326258241   -2.0824092375   -1.2607285016
 C    1.4768065124   -2.5016906610   -2.5131890524
 O    0.9496890217   -1.8461305108   -3.6753980057
 C    0.4205932380   -0.6037602267   -3.6237621709
 O    0.0447533881   -0.0615242948   -4.6193089750
 O    0.2987062770    0.0010634979   -2.4225925479
 H    1.0538629348    1.8791692825    0.2227924125
 H   -0.2940482112    2.0217741569   -0.9152351899
 H   -0.6067137947    1.9430635290    0.8272582143
 H    0.2516996277   -0.4206635919    0.8793510556
 H   -1.1136630255   -0.2702174171   -0.2242396300
 H    1.8201873002   -0.2393781220   -1.0589573661
 H    1.2036364089   -2.5236679276   -0.3770187973
 H   -0.3067159009   -2.4277880349   -1.3010718062
 H    2.5447405787   -2.2611993322   -2.4301769976
 H    1.3841576229   -3.5709489652   -2.7165611681