14

 O   -0.0300276885    1.4109240594   -0.0261899711
 C   -0.0574006520    0.0314934579   -0.0115942488
 C   -0.4114110966   -0.7785253395   -1.2398465177
 C   -1.2936545192   -0.8269314581   -0.0150430369
 C   -0.9957156524   -1.9636283757    0.9475080298
 O    0.3990510597   -1.8390770644    1.3167106696
 C    0.8931075507   -0.6381008645    0.9304321944
 O    1.9327555107   -0.1813441649    1.3200612238
 H    0.8533449974    1.6575346002    0.2837406018
 H   -0.7777416374   -0.1826515925   -2.0682957778
 H    0.1785939895   -1.6480621013   -1.5152089890
 H   -2.2889328792   -0.4028295353   -0.0464244815
 H   -1.5926452724   -1.8961867315    1.8627095542
 H   -1.1293334102   -2.9557384699    0.5066303694