14

 N    0.0524276363    1.3107820292   -0.1911768418
 C   -0.0496604282   -0.0368249937   -0.0386395993
 N   -1.1280574199   -0.7275491867    0.0285140157
 C   -0.7046013388   -2.1048356434    0.0473078118
 C    0.0620182947   -2.5997253565   -1.1790965337
 C    0.8274040211   -2.0684071074   -0.0095058478
 O    1.1510320107   -0.6935203199   -0.0161700730
 C   -1.4522860309   -3.0349841173    0.8480514401
 N   -2.0310297696   -3.8082230377    1.4837544566
 H    0.9100221982    1.7278467668    0.1361038697
 H   -0.7898499747    1.8215999289    0.0228111354
 H    0.1091976253   -3.6729146213   -1.3251746769
 H   -0.0236233089   -2.0006683789   -2.0791237251
 H    1.5074758547   -2.6683801422    0.5794133184