16

 N   -0.5024061064   -2.9859450358   -0.1809449769
 C   -1.5708758207   -2.3049334962   -0.0477743411
 N   -1.5560967484   -0.9473897831   -0.2852516000
 C   -2.6334816816   -0.0824846141   -0.1818087570
 N   -3.8096044152   -0.5999061398    0.1829873380
 C   -4.8498584757    0.2309093403    0.2836304713
 C   -4.7844807822    1.5951661718    0.0332320146
 C   -3.5501573791    2.1238996588   -0.3471485741
 C   -2.4563856785    1.2841026972   -0.4587797823
 H   -0.6855739269   -3.9647519704    0.0305466469
 H   -2.5572854805   -2.6664792819    0.2456387856
 H   -0.6611361191   -0.5691334973   -0.5601793520
 H   -5.7893135345   -0.2283277096    0.5829365764
 H   -5.6644867122    2.2186640107    0.1320339771
 H   -3.4422452322    3.1834036756   -0.5550029226
 H   -1.4828472670    1.6626020739   -0.7521438639