17

 C   -0.0745926238    1.5005616109    0.1352392910
 C    0.0145802118    0.0138825226   -0.1492266663
 C    1.0994812532   -0.4189502547   -1.1460731455
 C    1.4232389933   -1.8358822735   -0.6632423720
 O    2.7087122511   -2.2903466361   -0.9822517756
 C    1.2130304324   -1.6932815029    0.8331821710
 N    1.8117104146   -2.4208382529    1.6738294009
 O    0.3572886208   -0.6783938849    1.0902661910
 H    0.8896404311    1.8843877271    0.4812158804
 H   -0.3563363546    2.0381587187   -0.7755523493
 H   -0.8264950570    1.7058457478    0.9019559689
 H   -0.9660613436   -0.3667621064   -0.4639948401
 H    0.7603665179   -0.3696511115   -2.1822981909
 H    1.9937528259    0.2041579544   -1.0376458474
 H    0.6566661448   -2.5339388068   -1.0447958597
 H    3.0246972306   -2.7452452159   -0.1868803693
 H    1.5863588114   -2.1697582959    2.6360289730