13

 N   -0.0896014876    1.2957779538    0.3655872985
 C    0.0179622472    0.0808792132   -0.0063785071
 N    1.1991530384   -0.6094037889   -0.2930927768
 C    1.2297368547   -1.9230074691   -0.6894432493
 C    0.1105133186   -2.6549139869   -0.8338425301
 C   -1.1899053494   -2.0475028266   -0.5640890517
 O   -2.2675798581   -2.5991044843   -0.6570556247
 N   -1.1091081415   -0.7057375680   -0.1667165429
 H    0.8151391365    1.7543757271    0.4423772580
 H    2.0587841770   -0.0959514682   -0.1967342009
 H    2.2206307391   -2.3210066642   -0.8755604830
 H    0.1360031861   -3.6880971345   -1.1456635980
 H   -1.9870783909   -0.2454472534    0.0305524080