15

 O   -0.0517114280    1.3395546111    0.0281721713
 C    0.0455523561   -0.0458559390   -0.0319061531
 C    1.0466011806   -0.7087590016   -0.9647461908
 C    0.4099477847   -2.0779539195   -1.2754321293
 O    0.7631486319   -2.8741705784   -2.1004090818
 C   -0.7616815904   -2.2128469118   -0.2926710135
 O   -0.1055464285   -2.2216159623    1.0234729970
 C   -0.4235499555   -0.8366054576    1.1773477705
 C   -1.2833265092   -0.7862534661   -0.0575511823
 H    0.6895382997    1.6735716783    0.5457067601
 H    1.1387878787   -0.1279358491   -1.8881145657
 H    2.0494246634   -0.8455822058   -0.5476227736
 H   -1.4294761556   -3.0601971810   -0.4369824790
 H   -0.5372099293   -0.4335168051    2.1771592068
 H   -2.2482088285   -0.3506798820   -0.2719728867