14

 O   -0.0258127904    1.2743607724    0.0092378574
 C    1.2201910573    1.7481978215   -0.0002708773
 C    2.1147638968    0.7076307466   -0.0143997742
 C    3.5285438940    0.5566767453   -0.0287779414
 C    4.0335032515   -0.7120454293   -0.0403923643
 C    3.1765523210   -1.8631444323   -0.0383030804
 C    1.8152372348   -1.7590922514   -0.0246780810
 C    1.2556444894   -0.4489985444   -0.0123167403
 N   -0.0280896384   -0.1142505378    0.0017650012
 H    1.3177871408    2.8224515800    0.0045227042
 H    4.1793978108    1.4238086551   -0.0304069019
 H    5.1069901234   -0.8662729622   -0.0515291756
 H    3.6370204637   -2.8457353428   -0.0479735990
 H    1.1680906253   -2.6277689706   -0.0231055474