21

 C   -0.4158368313    1.3895697270   -0.1694920108
 C    0.0343447128   -0.0490625216    0.0083072795
 O    1.1677278592   -0.3687654306   -0.8393284090
 C    2.0296884595   -0.6193014647    0.2798746692
 C    2.6761885140   -1.9979624996    0.2161181121
 C    3.0973244521    0.4577803799    0.4351169002
 O    3.0965664827    1.5187341374   -0.1306282082
 C    0.8347317870   -0.4442133148    1.2822043309
 C    0.9329003438    0.5210921752    2.4562979634
 H    0.4194407530    2.0813496986   -0.0421012562
 H   -0.8121302546    1.5242499045   -1.1806721851
 H   -1.2101481321    1.6409787770    0.5420173354
 H   -0.8001100898   -0.7293697562   -0.2057531833
 H    3.3171774554   -2.0822050288   -0.6677883192
 H    3.2884084043   -2.1883489219    1.1043874189
 H    1.9051427201   -2.7697252711    0.1528667933
 H    3.9049495803    0.1892498471    1.1572445017
 H    0.5233087480   -1.4271773309    1.6475234112
 H    1.2636397697    1.5172715436    2.1517742432
 H   -0.0423807907    0.6275613262    2.9427122290
 H    1.6336234766    0.1498763539    3.2119395536