19

 C   -0.1355154816    1.7220222654    0.0043488525
 C    1.1710780895    0.9717251617   -0.0480245836
 C    2.2301624640    0.9135855938   -1.1392055465
 C    3.2142615846    0.8831402590    0.0516053037
 O    2.1311042901    0.9893164536    1.0103497526
 C   -0.1028260215    0.2153169057    0.0448460339
 C   -0.5542193417   -0.7506028519    1.1306433895
 C   -1.0045017629   -1.6197049686   -0.0648969868
 O   -0.5831901102   -0.6106365131   -1.0177739996
 H   -0.3953717877    2.2385766599    0.9242303528
 H   -0.4686244040    2.2047518713   -0.9102794200
 H    2.1965241731    0.0174989141   -1.7610429476
 H    2.2983012387    1.7986292190   -1.7744730868
 H    3.7757433684   -0.0494096997    0.1783002443
 H    3.9017580747    1.7322136577    0.1285132746
 H    0.2512746263   -1.1552218446    1.7456613163
 H   -1.3607722980   -0.3913118329    1.7724326933
 H   -0.4555458841   -2.5583031695   -0.2014431240
 H   -2.0795090278   -1.8157998008   -0.1383601488