22

 C   -0.1197615134    1.5937597828   -0.0973835543
 C    0.0610764360    0.0754532200    0.0047955000
 N    0.7296216198   -0.5055535929   -1.1462814618
 C    0.0864145440   -0.9163126862   -2.2890647040
 C    1.0326909816   -1.3144751394   -3.1983726375
 C    2.3133146580   -1.1399825973   -2.5944381402
 C    3.6304443841   -1.4705942498   -3.2323044821
 C    2.0971109552   -0.6334440393   -1.3249159042
 C    3.0676148623   -0.2751587554   -0.2460612798
 H    0.8463320579    2.1011680610   -0.1715428658
 H   -0.7056491934    1.8527202136   -0.9840014229
 H   -0.6414847023    1.9759857011    0.7860006372
 H    0.6309397579   -0.1776364685    0.9037045051
 H   -0.9145693261   -0.4115544283    0.1033672642
 H   -0.9906976618   -0.8894921112   -2.3487066458
 H    0.8389326190   -1.7034877069   -4.1871498268
 H    4.4763996467   -1.1625777576   -2.6112212848
 H    3.7378438601   -2.5471272331   -3.4147016144
 H    3.7427371518   -0.9719315264   -4.2023539806
 H    3.0095214626    0.7809007043    0.0472429626
 H    2.9218851898   -0.8707684816    0.6647653931
 H    4.0880785202   -0.4587316689   -0.5880710771