19

 C   -0.0444931315    1.5300548558    0.0494022074
 C    0.0022907333    0.0218014923    0.0241466048
 O   -1.1688139343   -0.5969328939   -0.4496009812
 C    1.3091373740   -0.7039953791   -0.2493696682
 C    0.7050871104   -0.7376039106    1.1321276666
 O    1.3960127217   -0.0083340082    2.1040064807
 C    0.0979198478   -1.9998761651    1.6662924680
 C    0.7679439222   -2.7651098244    2.7228081621
 O   -0.3320184556   -1.8950050558    3.0356132411
 H    0.8336598777    1.9377850889    0.5531075078
 H   -0.0810407353    1.9361740779   -0.9687836977
 H   -0.9395594044    1.8682807543    0.5812437142
 H   -1.2167708183   -0.4490210426   -1.4008782630
 H    1.2633861571   -1.6112759641   -0.8427699163
 H    2.2133467842   -0.1155220757   -0.3632440231
 H    0.8323137146   -0.0338265938    2.8907432870
 H   -0.6065639927   -2.4975357203    1.0065870394
 H    0.5594332531   -3.8275755325    2.8333704700
 H    1.7362887559   -2.4291136331    3.0858778604