20

 C   -0.0611781054    1.5287826967    0.0192267904
 C    0.0329779412    0.0043754963    0.0153829598
 C    0.9908015365   -0.5680974953   -1.0908974523
 C    1.9665456553   -1.3514964318   -0.2045347504
 N    2.1888418104   -0.3445505501    0.9105911963
 C    0.7225141842   -0.5962795880    1.2667934889
 C    0.2268297878   -0.2675401971    2.6474326555
 C    1.0418057898   -2.0398913760    0.8158543530
 O    0.9163127526   -3.1326253431    1.2899555532
 H    0.9219148186    1.9734412947    0.1982916780
 H   -0.4270594055    1.8919378550   -0.9470805053
 H   -0.7501391113    1.8896761527    0.7900589725
 H   -0.9708612499   -0.4238193231   -0.0807344226
 H    0.4807678597   -1.2061527025   -1.8169274185
 H    1.5069769666    0.2320546456   -1.6279591844
 H    2.8370675208   -1.8296620441   -0.6494454802
 H    2.7734148398   -0.7746666900    1.6291170342
 H    0.3415372884    0.7975687260    2.8694473903
 H   -0.8345927207   -0.5204460149    2.7350717280
 H    0.7667696611   -0.8416937010    3.4069042735