20

 C    0.0226361743    1.4418766886    0.0689330748
 N    0.0092734313   -0.0116653289    0.0684741696
 C    1.3111228301   -0.6439949625    0.1384247457
 C   -1.1937889747   -0.6671995224    0.0012666917
 O   -2.2562982792   -0.0666975653   -0.0573189589
 C   -1.1654327416   -2.1975790531    0.0022195703
 C   -2.5899973304   -2.7735036728   -0.0765169526
 C   -2.5906758630   -4.2311655469   -0.0768785658
 C   -2.5649090572   -5.4331313797   -0.0757335042
 H    0.5886743380    1.8231571047   -0.7905893645
 H   -1.0053372686    1.7949026944    0.0140017913
 H    0.4940961044    1.8232349335    0.9836685540
 H    1.8386025644   -0.3442374171    1.0540381304
 H    1.2294140776   -1.7285690750    0.1347703952
 H    1.9334926187   -0.3453478194   -0.7159713835
 H   -0.5734509017   -2.5662414085   -0.8428601810
 H   -0.6699166488   -2.5666769201    0.9070874141
 H   -3.1801264626   -2.3921576043    0.7630237293
 H   -3.0841528564   -2.3918268715   -0.9757751699
 H   -2.5629686046   -6.4946810239   -0.0758774060