18

 C    0.0101182790    1.5667772865   -0.0311219895
 C   -0.0014935214    0.0477987305    0.0296514778
 N   -1.2686722005   -0.5239102944    0.5639628102
 C   -0.6553612531   -1.3269403197    1.5008115345
 O   -1.0677492976   -2.1914510469    2.2271626136
 C    0.7311146697   -0.7067011099    1.1970137097
 C    1.7593177920   -1.6615130759    0.5630163500
 C    1.4544029633   -1.5651517248   -0.9155736752
 C    0.5275689621   -0.6518058579   -1.2029304202
 H    1.0160580753    1.9359228798   -0.2538317661
 H   -0.6588529922    1.9325924318   -0.8185706060
 H   -0.3213384923    1.9951760383    0.9190621704
 H   -2.1587194843   -0.6659695235    0.1044137370
 H    1.1209866235   -0.0855751753    2.0041422466
 H    2.7900032269   -1.3537584243    0.7787013904
 H    1.6558377579   -2.6841380264    0.9446156542
 H    1.9530233702   -2.1934036315   -1.6464848006
 H    0.1681924214   -0.4142823765   -2.1990016768