17

 C    0.0348340619    1.6974243616    0.0348918414
 C   -0.0135569659    0.1938995726    0.1740693611
 C    1.1147146953   -0.6889079244   -0.1955731300
 O    2.3303233164   -0.2184125705   -0.6329794251
 C    0.7212898581   -0.5612813412    1.3177578280
 C    1.6936431554    0.1045452988    2.1666483935
 O    2.4882181383    0.9698868392    1.8068081308
 C    1.7801094622   -0.3448361951    3.6300833967
 O    1.0824454251   -1.1936902103    4.1179426886
 H    1.0149773075    2.1052917778    0.2837633716
 H   -0.1992258569    1.9783364083   -0.9971746146
 H   -0.7028076425    2.1704870220    0.6900378940
 H   -0.9967496236   -0.2386550792    0.0052597170
 H    0.8924276628   -1.6568843619   -0.6344405668
 H    2.6375032635    0.4631573768   -0.0091083808
 H    0.1911545463   -1.3784956124    1.7899439721
 H    2.5637666561    0.2044283880    4.1928676625