17

 C   -0.2642099562    1.5198438635   -0.0555195056
 C    0.1213019676    0.0338744385    0.0596548051
 C    0.8110057317   -0.4864627540   -1.1722914105
 C    2.1197795502   -0.7904346301   -1.2401298461
 C    2.7132756970   -1.2660800625   -2.4744969336
 N    3.9433216310   -1.5607705940   -2.5848728604
 O    1.8613373088   -1.3913099013   -3.5697579479
 N    0.5041921882   -1.0948192825   -3.5153682272
 C    0.0453523318   -0.6733585478   -2.3918291210
 H    0.6244623881    2.1426228297   -0.1933501555
 H   -0.9313868329    1.6979168201   -0.9048518189
 H   -0.7793749692    1.8522677275    0.8500332790
 H    0.7752022483   -0.1125769106    0.9248685562
 H   -0.7832272040   -0.5606014151    0.2421260323
 H    2.7925314176   -0.7003541633   -0.3951064936
 H    4.1566183796   -1.8738793781   -3.5331972868
 H   -1.0205192876   -0.4616353099   -2.4101458055