17

 C   -0.6642235839    1.2000812371    0.2838953136
 N    0.0232698327   -0.0830801363    0.1518090174
 C    1.3275380705   -0.1081436728   -0.4549159699
 C    1.1804063110   -0.4028572653    1.0134651818
 C    1.7437556406    0.5681386465    1.9905398343
 O    1.8940048997    1.7572479351    1.7698617691
 C    2.1399860642    0.0167228124    3.3530639612
 O    2.6828078554    1.0090283059    4.1666852775
 H   -0.0000957021    2.0496872351    0.4763642739
 H   -1.2119673967    1.3741855439   -0.6470800086
 H   -1.3928827223    1.1281225257    1.0969692684
 H    1.5314391294   -0.9327542237   -1.1331996020
 H    1.8041796238    0.8398862829   -0.6985941820
 H    1.1922661169   -1.4381094066    1.3473856112
 H    1.2423318231   -0.4382168792    3.8076909124
 H    2.8529193445   -0.8108254384    3.1959639376
 H    2.6287506330    1.8227709676    3.6390997940