17

 C   -0.0514717019    1.5132119620    0.0511847430
 C   -0.0047861802    0.0587535710    0.0125925092
 C    0.0428310241   -1.1428986974   -0.0246648069
 C    0.0756872382   -2.6097532654   -0.0599818052
 C   -1.3447725260   -3.2139713796    0.0894380020
 C    0.7302279089   -3.0990385072   -1.2764213113
 C    1.2642998445   -3.5236008796   -2.2752948951
 C    1.8609824761   -3.9983143623   -3.4025728101
 C    2.3914145980   -4.4209155295   -4.4016773425
 H    0.5134830722    1.9070266791    0.9030958215
 H    0.3766212946    1.9454681707   -0.8597762892
 H   -1.0813249923    1.8762221978    0.1387221387
 H    0.6727276348   -2.9586691455    0.7962135429
 H   -1.7938779449   -2.8689911076    1.0239267648
 H   -1.9790078610   -2.8993466353   -0.7420056057
 H   -1.2901753290   -4.3054001128    0.0979506755
 H    2.8561927140   -4.7914975785   -5.2811769417