19

 C    1.1034481755    1.2467994966   -1.0672558164
 C    0.6449142927   -0.0695782616   -0.4755813298
 N    1.4531635519   -0.9110161003    0.3935921489
 C    2.7987428587   -0.5324921489    0.8097559246
 C    0.2903355583   -0.2371449323    0.9857635703
 C    0.4176629728    0.8953171453    2.0011590564
 O    0.7782767744    0.4185318583    3.2828678567
 C   -0.7908959283   -1.1413281173    1.3426223063
 N   -1.6699171466   -1.8181690744    1.6705218372
 H    1.6751533191    1.8690314343   -0.3779036444
 H    1.7311761015    1.0567104682   -1.9442110618
 H    0.2360376269    1.8241327933   -1.4020872351
 H    0.0434083940   -0.6551140387   -1.1702816061
 H    2.9966047762    0.5459981220    0.8594389588
 H    2.9840578996   -0.9555269973    1.7995860162
 H    3.5070384093   -0.9743200166    0.1028402483
 H    1.2049471080    1.5893834336    1.7071104490
 H   -0.5282968845    1.4563080108    2.0244825530
 H    0.0708563707   -0.1550350051    3.6002381779