17

 O    0.1432399950    1.3644409625   -0.0053126668
 C    0.0450064629   -0.0230660828   -0.1193981643
 C   -1.3758951215   -0.5057773114    0.0994738658
 O   -2.2566267443    0.2977174593    0.3386148020
 C   -1.7174656598   -1.9935531263    0.0478239108
 O   -3.0448902259   -2.1932097525    0.4535151126
 C   -1.4970818100   -2.5610981263   -1.3767801432
 C   -1.8712791159   -4.0313513774   -1.4486479352
 O   -1.1361634258   -4.8842978816   -1.8745286781
 H   -0.7489140580    1.6786783067    0.2048070949
 H    0.3872711072   -0.3612665744   -1.1102244332
 H    0.6893955465   -0.5337863896    0.6162040985
 H   -1.0372074378   -2.5160130779    0.7393252650
 H   -3.4249327862   -1.3069217051    0.5635041082
 H   -2.1494960500   -2.0079156433   -2.0658370140
 H   -0.4593458537   -2.4572779038   -1.7039416254
 H   -2.8880807726   -4.2674828362   -1.0756757276