16

 C   -0.0290579811    1.4861753736    0.0116759855
 C   -0.0008665169   -0.0047747544   -0.0354281737
 N   -0.0105189654   -0.7382913549   -1.1249103992
 C    0.0115159128   -2.0491001138   -0.7026922324
 C    0.0364731331   -2.1149659742    0.6598548884
 N    0.0378442719   -0.7982685376    1.0898434866
 C    0.0228696713   -0.3568432283    2.4673270862
 C   -1.3319407395   -0.1026960551    2.9848174478
 N   -2.3919839069    0.1069374485    3.3919300754
 H    0.8637076825    1.9046811052    0.4926056848
 H   -0.0664025061    1.8556834580   -1.0134266267
 H   -0.9056108856    1.8660223847    0.5489698737
 H    0.0127999134   -2.8666006660   -1.4071164922
 H    0.0555256760   -2.9359821315    1.3575892953
 H    0.5035667595   -1.1146654463    3.0927001946
 H    0.6102852109    0.5608790021    2.5676628159