21

 O   -0.0013219303    1.4069092888   -0.1183133787
 C    0.0407269878   -0.0118392093   -0.0909391052
 C   -1.3901133399   -0.5224736037    0.0086639243
 C   -1.4728470346   -2.0489415891    0.0645045947
 C   -2.9195110388   -2.5669450691    0.1022044331
 O   -3.6656674540   -2.1389715195   -1.0236679332
 C   -2.9508354534   -4.0857205626    0.2010558715
 C   -4.0992506603   -4.8643959552   -0.2683111787
 O   -2.9073943114   -4.7578632684   -1.0662665318
 H    0.8998874801    1.7331095247   -0.1946716555
 H    0.5163355088   -0.4147672773   -1.0006815106
 H    0.6288573198   -0.3756685491    0.7685813866
 H   -1.8522575796   -0.0877345330    0.9039671070
 H   -1.9625466949   -0.1563490829   -0.8489161721
 H   -0.9708837686   -2.4896947432   -0.8082992337
 H   -0.9418733003   -2.4247745751    0.9502255795
 H   -3.4269705804   -2.1472415331    0.9813861654
 H   -3.4060018487   -2.7298222206   -1.7449637207
 H   -2.3031486590   -4.5238913112    0.9612559797
 H   -4.2861012403   -5.8531115751    0.1460231390
 H   -4.9638524817   -4.3395641760   -0.6661872804