21

 C    0.0755647531    1.5766964273    0.0361328960
 C   -0.0329345664    0.0517393219   -0.0395975695
 C    0.7187465571   -0.5433274875   -1.2348053990
 C    0.6053973338   -2.0647945788   -1.3029152645
 N    1.3228739509   -2.5950701844   -2.4503872580
 C    1.5703415456   -3.9313890484   -2.5865029819
 N    1.3095275787   -4.7912899854   -1.6756932977
 C    2.2224814793   -4.2996219791   -3.9022014249
 O    2.5296568579   -5.4271990269   -4.1839266832
 H    1.1196084521    1.8956827008    0.1283564075
 H   -0.3359421725    2.0492945278   -0.8627885358
 H   -0.4702281882    1.9713785578    0.8983798388
 H    0.3557950672   -0.3909011412    0.8864356123
 H   -1.0897161543   -0.2397263465   -0.0949068529
 H    0.3247133811   -0.1041186155   -2.1635657771
 H    1.7788809937   -0.2634783199   -1.1853751294
 H    1.0314984021   -2.5308924163   -0.4088785410
 H   -0.4516873402   -2.3711587649   -1.3311750541
 H    1.3319891683   -2.0328779157   -3.2871624807
 H    1.6370429122   -5.7039264686   -1.9981815073
 H    2.4059689684   -3.4560181665   -4.6074508874