16

 C    0.2352392468   -1.1102799850   -0.6680349169
 C    0.0428278928    0.0139355822   -0.2783379989
 C   -0.1249215754    1.3368165495    0.2121133431
 C   -1.2821907254    2.0009818204    0.0727915569
 C   -1.4556869639    3.3902426234    0.6131135363
 O   -0.6056240065    4.3690447543   -0.0115386786
 C    0.7391947112    4.2332094595    0.1040694905
 N    1.4853905673    3.2976443835    0.4996783616
 C    1.0734233468    1.9696875234    0.9245653542
 H    0.3886956949   -2.1001813671   -1.0205369251
 H   -2.1181817682    1.5388854752   -0.4409954830
 H   -2.4670509135    3.7584569401    0.4352844962
 H   -1.2751254016    3.4160273113    1.6968880879
 H    1.1989655806    5.1619621275   -0.2361976406
 H    0.8818794473    1.9763087951    2.0086445488
 H    1.9361212466    1.3129969467    0.7859413676