21

 C    0.0125285705    1.4854547355   -0.3215544099
 C   -0.0544141795    0.0893509501    0.3076000434
 C   -1.4316800452   -0.5329600926    0.2018327778
 C   -1.8632808862   -1.2361910627   -1.0679857499
 C   -1.6318809831   -2.0288045360    0.1925071136
 N   -0.4741648321   -2.8800333823    0.2386266427
 C   -0.2948024247   -3.6716170580    1.4517209353
 C   -0.7212445016   -4.3170450321    0.1786803557
 H    1.0146606458    1.9157385989   -0.2266587464
 H   -0.2396686732    1.4492268038   -1.3866591626
 H   -0.6916301253    2.1734734729    0.1601037558
 H    0.6728718262   -0.5759088087   -0.1672572312
 H    0.2348536270    0.1515610651    1.3652726001
 H   -2.2133957304    0.0255765524    0.7129678844
 H   -2.8781680241   -1.1127014379   -1.4295803489
 H   -1.1139901925   -1.3496141187   -1.8446169649
 H   -2.5199576479   -2.4073742693    0.7083582774
 H    0.7268350587   -3.7696968393    1.8077607057
 H   -1.0438707737   -3.5761910012    2.2362277301
 H   -1.7550987478   -4.6522669329    0.1130461796
 H   -0.0166360311   -4.8950480669   -0.4126735878