16

 C   -0.0352916783   -1.2098110703   -0.0157038016
 C   -0.0329479246   -0.0083780866    0.0052799556
 C    0.0054432342    1.4475574691    0.0312141091
 C    1.4403632269    1.9964241740   -0.0333207571
 N    1.4196847681    3.4546177904    0.0147192375
 C    2.7574948293    4.0343128934    0.0160622861
 C    2.6972907460    5.4986181806    0.0143080912
 N    2.6512207012    6.6522664740   -0.0111851752
 H   -0.0526618572   -2.2713652048   -0.0326588146
 H   -0.5738927488    1.8445356093   -0.8137583193
 H   -0.4755628277    1.8279880452    0.9395807904
 H    2.0019104241    1.6333288869    0.8352933724
 H    1.9468316422    1.5950358846   -0.9284950376
 H    0.8969903797    3.8209233136   -0.7754063311
 H    3.2807075756    3.7115173900    0.9249207031
 H    3.3893225193    3.7196766606   -0.8350875990