16

 N   -0.3709110842   -0.4176085951   -1.1219036227
 C   -0.5568236237    0.1960813758    0.0715091270
 O   -0.6791212222    1.3949910394    0.2120433437
 C   -0.6115229837   -0.7353794993    1.3061630653
 C   -0.4595122501   -2.1582444265    1.0492389266
 C   -0.3344212868   -3.3268839172    0.7802592568
 C   -0.1546091165   -4.7141395061    0.4469060086
 C   -1.2534669377   -5.5267016515   -0.1119414286
 O   -0.2059649377   -5.0550308554   -0.9505872454
 H   -0.3234288695    0.1520224562   -1.9500498551
 H   -0.2682221156   -1.4161585348   -1.1924512879
 H    0.1669715714   -0.3782945047    1.9897198448
 H   -1.5662589484   -0.5256911093    1.8017186879
 H    0.6289604166   -5.2340954536    0.9965901663
 H   -1.2640471170   -6.6000010262    0.0726775910
 H   -2.2252945648   -5.0620190317   -0.2655592482