18

 O   -0.8384916276    1.4019550031    0.5315077095
 C    0.2231851679    0.9834573156    0.1512236835
 C    1.4889372720    1.8300158039    0.0179215271
 C    1.4627809924    2.9981850319    1.0226107962
 C    2.4146462803    4.0592488310    0.7230522824
 C    3.1889139849    4.9425426525    0.4664409648
 N    2.6357877818    0.9576686855    0.2278939831
 C    3.0956161533    0.1874596480   -0.9311250311
 C    3.8893551067    1.3360058027   -0.4213717504
 H    0.3554450124   -0.0780673158   -0.1514791269
 H    1.4674074326    2.2503687130   -1.0083291114
 H    0.4428381316    3.3972613950    1.0362305515
 H    1.6555719633    2.5894418649    2.0213915262
 H    3.8702601697    5.7283766500    0.2527740687
 H    3.4003189175   -0.8336418335   -0.7238016554
 H    2.5739472293    0.3242853923   -1.8772715828
 H    3.8976328519    2.2467724341   -1.0138698859
 H    4.7860649101    1.1672582960    0.1666767610