18

 C    0.0221332942    1.5001700392   -0.0103402478
 C   -0.0417157713    0.0011730863    0.0274632727
 C   -1.4011387822   -0.7493122417    0.1822172141
 N   -1.2308966512   -2.1742132590   -0.1783933275
 C   -0.8008368173   -1.6871713346    1.1514387234
 C    0.5762667401   -0.9876193287    1.0134530523
 C    1.1061256806   -0.8938387785   -0.4120003034
 C    1.1747237425   -1.8920127838   -1.4447515886
 C    1.3949336602   -2.6540872570   -2.3496269928
 H    1.0447805501    1.8566733148    0.1480307174
 H   -0.3211087034    1.8884315948   -0.9770283435
 H   -0.6101042311    1.9429184175    0.7687803088
 H   -2.3711261621   -0.2688228084    0.1703832170
 H   -2.1366093338   -2.6281982239   -0.0596373495
 H   -1.1989882651   -2.1044197441    2.0666509211
 H    1.2222025865   -0.7826138239    1.8587915436
 H    2.0229188474   -0.3020803621   -0.3952164723
 H    1.5239299560   -3.3573012670   -3.1338870650