20

 O   -0.0084573010    1.4218160565    0.1261512049
 C    0.0372293673    0.0200083178   -0.0102873899
 C    1.0885959338   -0.6009677695    0.9051214747
 C    1.4100858990   -2.0287745282    0.4565472702
 C    0.1092992898   -2.7111028226    0.0226799978
 N   -0.7742965010   -1.8497349227   -0.7806336026
 C   -1.3640888558   -0.6487018401   -0.0638776743
 C   -1.5810899006   -0.0322931957   -1.4684479790
 C   -0.1528071394   -0.6245821063   -1.4459755154
 H    0.8952891632    1.7540156175    0.1338953487
 H    1.9975051136    0.0163534429    0.8881697322
 H    0.7186196108   -0.5759289439    1.9378496099
 H    2.0922469824   -1.9890645994   -0.4011611235
 H    1.9231131250   -2.5980303013    1.2387680039
 H    0.3267934446   -3.6112044797   -0.5637954032
 H   -0.4690355678   -3.0387081910    0.8965632243
 H   -2.0821296216   -0.7699046171    0.7511319232
 H   -2.2885403552   -0.5721510331   -2.0977198463
 H   -1.6669897725    1.0497550180   -1.5251965969
 H    0.5569365450   -0.7137325119   -2.2716608686