17

 C   -0.3766610951    1.3909764016   -0.0545336926
 N   -0.0730165582   -0.0354673762    0.0309266729
 C    0.3844679207   -0.6265847658   -1.1654923316
 C    0.2807667358   -1.9103803889   -1.5317344066
 C   -0.2487291755   -2.9708686275   -0.6984781994
 C   -0.2029355025   -2.9471961101    0.6392298022
 N    0.3663595946   -1.9239308037    1.4158345804
 C    0.1285728675   -0.5479912197    1.3046802690
 O    0.1116421802    0.1440994107    2.3020268908
 H    0.5190459540    1.9772259460   -0.2992915793
 H   -1.1281553903    1.5572104518   -0.8313133153
 H   -0.7562319756    1.7258315372    0.9081352985
 H    0.8292867326    0.0956273607   -1.8454780686
 H    0.6515316695   -2.1725381113   -2.5178858140
 H   -0.6785292052   -3.8437374492   -1.1774213824
 H   -0.5913035870   -3.7758192501    1.2236263246
 H    0.4717377145   -2.1429950757    2.3955085315