17

 C   -0.0812090479    1.5557659314   -0.0130024017
 C    0.0690344250    0.0333350902    0.0038771814
 N    0.7064541321   -0.4856097482   -1.2003731076
 C    0.0860743108   -0.8153276162   -2.3773363240
 C    1.0861000077   -1.1989579105   -3.2389369659
 N    2.3051220856   -1.1123004582   -2.6316145929
 C    2.0551483134   -0.6770776642   -1.4039128867
 C    3.0115162913   -0.4280304748   -0.3929539511
 C    3.8082069584   -0.2062756966    0.4828745585
 H    0.8979977916    2.0377628806   -0.0758813652
 H   -0.6819204651    1.8820953145   -0.8668702049
 H   -0.5738290473    1.8935413509    0.9037969740
 H    0.6776607848   -0.2792807680    0.8559286542
 H   -0.9063790713   -0.4527035209    0.0994046269
 H   -0.9847542938   -0.7547847256   -2.4854956347
 H    0.9882874314   -1.5375672683   -4.2592727718
 H    4.5259690433   -0.0184967262    1.2426429117