12

 O   -0.1051375184    0.0466716452    0.0028158547
 C   -0.0346679134    1.2436868006    0.0085566383
 C    1.3420266567    1.9544507618   -0.0020039764
 O    2.3706296007    1.3207523508   -0.0165788643
 C    1.3477127169    3.4291744385    0.0056447358
 C    2.3775742310    4.3253891360   -0.0006548255
 C    1.7209118440    5.5781526879    0.0129083940
 N    0.4118894307    5.4503198321    0.0262539000
 O    0.1690100663    4.0916871466    0.0216240850
 H   -0.9274901430    1.8979185051    0.0215792769
 H    3.4313507012    4.1056488637   -0.0130370688
 H    2.1487587773    6.5701799017    0.0135639301