19

 C    0.0061279449    1.5337201117   -0.1281716241
 C   -0.0723790621    0.0290162303    0.1408783139
 O    0.2337400155   -0.6427048521   -1.0968170327
 C    1.1891072015   -1.5827611799   -1.2679393910
 O    1.3477570736   -2.0449773933   -2.3666126240
 C    2.0338105617   -2.0362220045   -0.0782816382
 C    3.5300078497   -1.9498528950   -0.4460505342
 C    1.7202522833   -1.3224602953    1.2023591568
 C    0.7771333390   -0.3952881828    1.2952115117
 H    1.0368789386    1.8301161694   -0.3422750737
 H   -0.6207764821    1.7942837212   -0.9842538033
 H   -0.3433475862    2.0929294427    0.7451059401
 H   -1.1203352002   -0.2281849048    0.3540950553
 H    1.7971155378   -3.1039328878    0.0408622006
 H    3.8399579347   -0.9082944727   -0.5753348353
 H    4.1401659488   -2.3894473106    0.3486273135
 H    3.7150254811   -2.4874244886   -1.3771597216
 H    2.3116533432   -1.5979118620    2.0722308125
 H    0.5694414371    0.1081836141    2.2352098436