19

 O    0.0132719049    1.2728021558   -0.5538054621
 C    0.0572192648    0.1103714292    0.2568528823
 C   -1.3062097097   -0.5263330706    0.3616661680
 O   -1.7691788369   -1.1587837258   -0.8467736878
 C   -1.5431067556   -1.9741256922    0.3143315197
 C   -0.4474098929   -3.0449827518    0.2074161206
 C   -1.1904565799   -4.3203836067    0.5203089645
 C   -2.4453231308   -4.0975599386    0.9083550465
 C   -2.7866809191   -2.6291116329    0.9317254657
 H   -0.3572476293    1.0005313602   -1.4013161162
 H    0.7836635510   -0.6204842157   -0.1266011035
 H    0.3975315717    0.4368964274    1.2458675638
 H   -2.0604627738    0.1018273362    0.8406992055
 H   -0.0053013732   -3.0372531975   -0.7950624523
 H    0.3730767503   -2.8724966252    0.9172407471
 H   -0.7231609173   -5.2951945043    0.4404544862
 H   -3.1575145776   -4.8636192031    1.1928298865
 H   -2.9720332482   -2.2713918926    1.9537823075
 H   -3.6751241786   -2.3765545119    0.3417237481