17

 C   -0.1683603447    1.3986094385    0.4336389753
 C    0.0798411150   -0.0721553461    0.1871317029
 C    1.4270254426   -0.5509733934   -0.3270371528
 C    1.0011963644   -0.8642777594    1.0717410361
 O    1.7243184329   -0.1917701037    2.0847905201
 C    1.1737140244   -0.2620580580    3.3292335978
 N    1.9282779098    0.4713850532    4.2023999032
 O    0.1651197700   -0.8638997649    3.6066632992
 H    0.7270458620    1.8906908015    0.8229285218
 H   -0.4577715381    1.9073351373   -0.4918596774
 H   -0.9719438220    1.5426684906    1.1636622442
 H   -0.7864987446   -0.6249489485   -0.1666017947
 H    1.4734191030   -1.3588762342   -1.0486640897
 H    2.2022454573    0.2001081670   -0.4382859436
 H    0.7260525042   -1.8745306602    1.3497571883
 H    2.8603251920    0.7344018555    3.9303904817
 H    1.7513368017    0.3110488648    5.1791177477