18

 C   -0.1824257443    1.5065917509    0.2627226328
 C   -0.1036402642   -0.0027796214    0.0612440493
 N    0.6065800840   -0.6311326218    1.1637530727
 C    0.9738576807   -1.9404302914    1.1300716184
 N    0.8242668803   -2.6687558967    0.0918593285
 C    1.6602095973   -2.3727086240    2.4498071549
 O    1.1423923065   -1.7203862109    3.5991199418
 C    1.6325711470   -3.8365371433    2.6059664576
 N    1.5910847679   -4.9815126742    2.7544730695
 H    0.8165070072    1.9501844114    0.3165579268
 H   -0.7195687340    1.9717383876   -0.5679692804
 H   -0.7178783305    1.7592124383    1.1854422610
 H   -1.1104575501   -0.4322240971   -0.0424639350
 H    0.4277018714   -0.2493506985   -0.8627099319
 H    0.5773592449   -0.1946328387    2.0714439863
 H    1.1791149079   -3.6111224882    0.2403213244
 H    2.7088829034   -2.0574041763    2.3945401469
 H    0.2564244645   -2.0645387456    3.7668570462