19

 C   -0.0530122105    1.4923749352   -0.0659337894
 C    0.0520346104   -0.0084653416   -0.0305996756
 C    0.7052866379   -0.9424278113   -1.1126368501
 C    0.1997277117   -1.8959703856   -0.0154401588
 C   -0.0275204616   -3.2478938548    0.6208439238
 O   -0.7056500228   -2.7983565582    1.8246761577
 C   -0.7616157247   -1.3532354367    1.7058139349
 C    0.5875531770   -0.9006741715    1.1362340450
 C   -1.0913902695   -1.0392283746    0.2422095859
 H    0.9378965702    1.9578208623   -0.1121096395
 H   -0.6195994997    1.8292894217   -0.9412281078
 H   -0.5603917618    1.8693721451    0.8287341876
 H    0.2046572574   -0.9955955580   -2.0850284697
 H    1.7899661809   -0.8647661356   -1.2408601285
 H   -0.6855705001   -3.9146187526    0.0521445319
 H    0.8890313534   -3.7846728886    0.8906070454
 H   -1.2641218076   -0.9592659113    2.5884444785
 H    1.5691981587   -0.8586629190    1.6107822135
 H   -2.0282904693   -1.1555415650   -0.3048527850