14

 O    0.1509845712   -0.1334296029   -0.0261905658
 C    0.0713259774    1.0631448479    0.0734511635
 C    1.2714131413    1.9950596615   -0.0025694600
 C    1.4808321794    2.8376278491    1.3016133516
 N    2.6066527760    2.2082586517    2.0009033288
 C    3.0925461711    1.3517678273    1.1858271557
 N    2.5275744483    1.2517602057   -0.0858036234
 C    4.2259276986    0.5255906961    1.5041648697
 N    5.1271002247   -0.1606207350    1.7312196589
 H   -0.9042287947    1.5763894352    0.2215569088
 H    1.1242591406    2.6477142048   -0.8720439849
 H    1.7392976520    3.8749499668    1.0634022796
 H    0.5954033026    2.8630123366    1.9456764864
 H    2.4389700516    0.3131344851   -0.4617046890