18

 C    0.0743413642   -1.0821872465   -0.1294201584
 C    0.0344991374    0.0673143966    0.2179966560
 C   -0.0303696379    1.4700772108    0.6171307708
 N    1.2376713543    2.1528092926    0.3215269816
 C    1.5682014330    2.6126738397   -1.0185547108
 C    0.4537607642    2.8102163715   -2.0291392833
 O   -0.5508586640    3.5852748412   -1.3740068356
 C    0.0476776491    4.3390194091   -0.3226216446
 C    1.3028135037    3.5887242914    0.0822343196
 H    0.1099859397   -2.1010786453   -0.4259077594
 H   -0.9036245366    1.9361301921    0.1406130446
 H   -0.1796620704    1.5333416599    1.7020540924
 H    2.5617589631    2.3666772706   -1.3820968973
 H    0.8508581807    3.3320584473   -2.9143552173
 H   -0.0173705528    1.8789399223   -2.3611264749
 H    0.3244503761    5.3520340440   -0.6565079578
 H   -0.6987583690    4.4376464470    0.4739492523
 H    2.0820111551    4.1303002857    0.6116103621