17

 O   -0.0056323264    1.4005389286    0.0812670106
 C    0.0776636382   -0.0037601801    0.0111439774
 C   -1.3421123268   -0.5785759655   -0.0798576354
 C   -1.3466330110   -0.3587682997   -1.6243137556
 C   -2.0253500939   -1.7273420509   -1.8194903794
 C   -1.2516286609   -2.1055109266   -0.5132900434
 C    0.1683756794   -2.0656385842   -1.0756064857
 O    0.9958478004   -2.9289534485   -1.1773695788
 C    0.2176561094   -0.5855782068   -1.4427475435
 H    0.8759545474    1.7615793293   -0.0571336822
 H    0.7671102247   -0.4047342071    0.7683092473
 H   -2.1470257567   -0.2743461954    0.5872498295
 H   -1.6714126139    0.5598710155   -2.1046862598
 H   -3.1039095598   -1.6620417246   -1.6526568726
 H   -1.8242317092   -2.3185176909   -2.7185829648
 H   -1.5315936316   -2.9417226734    0.1231323660
 H    0.9799550708   -0.2441890296   -2.1400062495