18

 C   -0.0270595789    1.1830641135   -0.7844787035
 C   -0.1084598980   -0.1151764108    0.0084507417
 O    1.0001453734   -0.9725580059   -0.2631032534
 C    0.8625558298   -1.8275660628   -1.3014685934
 N    1.8426145721   -2.5106363716   -1.6893842805
 C    1.7007040465   -3.4662405863   -2.7745284335
 C    0.3408951136   -3.6099941888   -3.4669437572
 H    0.9194244200    1.6926946875   -0.5847059166
 H   -0.0922412760    0.9925624697   -1.8603954724
 H   -0.8486158362    1.8506780417   -0.5050086487
 H   -0.0675363809    0.0828693430    1.0831758383
 H   -1.0506266887   -0.6424165254   -0.1965385116
 H   -0.1548743460   -1.8560983894   -1.7146640953
 H    2.4601762383   -3.2104675910   -3.5255738805
 H    2.0086083438   -4.4446173149   -2.3813565453
 H   -0.4413681121   -3.9338979924   -2.7718408053
 H    0.0172254769   -2.6716022893   -3.9303156355
 H    0.4116098824   -4.3622940669   -4.2583631571