19

 C    0.0853195274    1.4777427182    0.0641512936
 N   -0.1283969415    0.0470452560   -0.1532913009
 C    0.6911479634   -0.5300867817   -1.2144824199
 C    2.1386641601   -0.5257143793   -0.8802102177
 N    3.2544526821   -0.4930994071   -0.5787006979
 C    0.2059302090   -1.9456532427   -1.5281713233
 O    0.0240213747   -2.7324179906   -0.3846279801
 C   -0.7109491945   -2.1682766302   -2.7008375808
 C    0.7250132547   -2.6576711259   -2.7349848297
 H    1.1324301348    1.7471308672    0.2719701710
 H   -0.2410381309    2.0328234949   -0.8218237980
 H   -0.5298068425    1.8033922523    0.9068952327
 H    0.0735199018   -0.4595061323    0.7031697060
 H    0.5673534236    0.0867708988   -2.1120342458
 H   -0.8209054599   -2.4751375028    0.0027855577
 H   -1.4865930836   -2.9154193926   -2.5750724077
 H   -0.9904315298   -1.3213058906   -3.3179134468
 H    1.4366850846   -2.1451653459   -3.3732530384
 H    0.8954224363   -3.7218188556   -2.6250869940