16

 C   -0.3952148798    0.3558857914    0.5907868894
 O    0.0976332879    0.6756103087   -0.7067429552
 C    0.6252668271   -0.3229422491   -1.4358716022
 C    0.8381380706   -1.6863471096   -1.2483960857
 C    1.4608379947   -2.1527250151   -2.4648995020
 C    1.5969446996   -1.0939886255   -3.3122263409
 N    1.0822925153    0.0202297159   -2.6721313071
 C    0.5330550584   -2.4957650541   -0.1314806394
 C    0.2982610082   -3.2397193088    0.7888804873
 H   -1.2019193956   -0.3809498068    0.5352959945
 H    0.4014580095   -0.0373359665    1.2290766457
 H   -0.7737372377    1.2930770600    1.0014171594
 H    1.7598377863   -3.1717632665   -2.6506581585
 H    2.0074162203   -1.0201344763   -4.3050979424
 H    1.0365656029    0.9566466761   -3.0345928763
 H    0.0884210623   -3.8872292738    1.6028088434