20

 C    0.5225893122    1.3048202727    0.3580707031
 C   -0.3026762191    0.1523612126   -0.2310660766
 C    0.3890053428   -0.5333869186   -1.3998472471
 C    0.5145139845    0.2967584817   -2.6633505814
 O    1.5859859232   -1.2638754224   -1.0609171494
 C    0.4477400056   -2.0028028849   -1.5414721675
 C   -0.1038920943   -3.0323344053   -0.5864107549
 O    0.7837668968   -4.1351277674   -0.4810876057
 H    1.5085962224    0.9464141601    0.6679976587
 H    0.6683950933    2.1169407494   -0.3602980087
 H    0.0217835659    1.7266555367    1.2342444279
 H   -0.5047846470   -0.5744684279    0.5589011723
 H   -1.2769946263    0.5240634038   -0.5728344977
 H    1.0613637416    1.2248332803   -2.4717583989
 H    1.0532131108   -0.2575999299   -3.4352479876
 H   -0.4750112645    0.5631321995   -3.0503874222
 H    0.5840264160   -2.3941765809   -2.5524661970
 H   -0.3029710077   -2.5904644755    0.3983541151
 H   -1.0469556440   -3.4337469226   -0.9736453669
 H    1.6361322979   -3.7752657814   -0.2098476955