22

 C   -0.0874885155    1.5201140543   -0.2654999336
 N    0.0456398661    0.1135690177    0.0798769883
 C    0.0780259770   -0.2494407595    1.3912192058
 O    0.0333742255    0.5078677522    2.3415614524
 C    0.0557503530   -0.8796424373   -0.9962928382
 C    1.2658560901   -1.8736968198   -0.9951693858
 C    0.6672924759   -3.2757428049   -1.2658539693
 C   -0.7266985354   -3.0016294360   -1.8620493439
 C   -1.2047438203   -1.7754722085   -1.0760793857
 H    0.7482368670    1.8489171061   -0.8941287099
 H   -1.0231337090    1.7084315304   -0.8057363987
 H   -0.0887924759    2.0924430578    0.6619362849
 H    0.1558666461   -1.3461068743    1.5171992282
 H    0.1060306210   -0.2939916194   -1.9180428488
 H    1.9776275326   -1.5897905437   -1.7758038838
 H    1.8112878098   -1.8347123588   -0.0502339071
 H    1.2984917018   -3.8853116041   -1.9175439106
 H    0.5571112421   -3.8247630240   -0.3237382921
 H   -0.6409314824   -2.7547791754   -2.9279291179
 H   -1.4042411453   -3.8558702769   -1.7806439422
 H   -1.5082622398   -2.0745855490   -0.0662095131
 H   -2.0541253245   -1.2585253871   -1.5315457789