16

 N    0.0176519171   -1.1132819761    0.2517706220
 C   -0.0070802886    0.0336625386    0.1165108527
 C   -0.0141973959    1.4952618531   -0.0803606787
 O   -0.7657822580    2.1203828410    0.9744229992
 C   -0.0006878950    3.2125720478    1.4597232033
 C    0.7501734729    3.2384276727    2.8429507616
 C    2.0469106274    3.6882534704    2.0607648752
 C    1.3538378197    3.0942103911    0.8539123156
 C    1.4052203758    2.0692151633    0.0147831544
 H   -0.5069377495    1.6956489411   -1.0443690457
 H   -0.5436985354    4.1507286265    1.2892445654
 H    0.3660389916    3.9201969256    3.6041183649
 H    0.8584650091    2.2309956730    3.2472914260
 H    2.1353042053    4.7776243890    2.0278825090
 H    3.0046468975    3.2556574585    2.3510865865
 H    2.2586587061    1.5639559645   -0.4155354414