21

 C    0.0242445795    1.6064945235   -0.0797866230
 C    0.0804474005    0.0928032156    0.0537809728
 C    1.0313943148   -0.7280137220   -0.8728443178
 C    1.4242859570   -1.6251699654    0.3389764612
 C    2.8763249103   -2.0131813653    0.5225587917
 O    3.2156303643   -2.9222561473   -0.5148147373
 C    0.8168467165   -0.5441973857    1.2397162868
 C    1.3999379628    0.1106763963    2.4153036899
 O    0.2647899326   -0.7602141779    2.5245671140
 H    1.0276396427    2.0448288079   -0.0423156250
 H   -0.4325979828    1.8997249165   -1.0310171711
 H   -0.5707442757    2.0539655475    0.7240584724
 H   -0.9320098605   -0.3262534138    0.0108826321
 H    0.5831428414   -1.2259733934   -1.7332013624
 H    1.8792753108   -0.1264966016   -1.2160836284
 H    0.8047029308   -2.5280267335    0.3697794489
 H    3.5076598541   -1.1099455280    0.4839706081
 H    3.0148229927   -2.4705612461    1.5161785543
 H    4.1376351033   -3.1731722670   -0.4064347954
 H    2.3216699627   -0.2688567778    2.8551304796
 H    1.1999453223    1.1643251375    2.6059430286