21

 C   -0.2683994179    1.5123404379    0.1667623199
 C    0.0177599933    0.0239250947   -0.0072294932
 C   -1.2501146250   -0.8171517516    0.1585929221
 C    0.8750159511   -0.3718721106   -1.2570636033
 C    1.9051073526   -1.0167937101   -0.2915900129
 N    1.1490104087   -0.4523122209    0.8262090040
 C    1.1354608081   -0.7506210656    2.1595496280
 N    2.2292508001   -1.4951781497    2.5904415232
 O    0.2312694389   -0.4152208835    2.9091268513
 H    0.6439471813    2.1021329769    0.0370926457
 H   -1.0072056649    1.8500532096   -0.5681131745
 H   -0.6612383385    1.7012429072    1.1693453325
 H   -2.0025000342   -0.5114742900   -0.5764141085
 H   -1.0389442339   -1.8808026112    0.0066864360
 H   -1.6593646606   -0.6901952695    1.1627331304
 H    0.3910990728   -1.0563702343   -1.9546602638
 H    1.2678257538    0.4855656271   -1.8060808732
 H    1.9223188614   -2.1140054229   -0.3054216743
 H    2.9358671695   -0.6509767992   -0.3780844132
 H    3.0980711358   -1.3908569488    2.0879459604
 H    2.3287736578   -1.4846178355    3.5944006033