17

 O   -0.2089064802    1.5496630565    0.1298509300
 C   -0.0227268044    0.1617939390    0.0497974000
 C    0.1952832750   -0.6748707247    1.3389603749
 C   -0.5027705822   -0.0426000186    2.5387428323
 C   -1.9091277284    0.4444018012    2.1592291116
 O   -2.5625290133    1.1429290885    2.8924454480
 C   -2.4357974572   -0.0299836423    0.7981397729
 C   -1.3182035879   -0.6654223951   -0.0251102187
 O   -0.6758409508   -1.6966806733    0.7785013382
 H    0.6489053030    1.9844676140    0.1573228199
 H    0.6831462671   -0.1268442950   -0.7366322181
 H    1.1921314290   -1.0628722345    1.5656992489
 H   -0.6041674555   -0.7901171088    3.3342047496
 H    0.0543190886    0.8023288831    2.9555152392
 H   -3.2220568041   -0.7731266747    0.9746916176
 H   -2.8951417146    0.8227588177    0.2898553468
 H   -1.6519311640   -1.0429560329   -0.9945082030