17

 C    0.0044950034    1.3620104762    0.0705121235
 O   -0.0350117988   -0.0473796668   -0.0157348202
 C    0.6555869553   -0.5540093174   -1.1220691039
 C    0.6380927832   -2.0883513482   -1.0190391355
 C    1.2556192163   -2.7266329915   -2.2904812395
 C    1.0951060376   -4.1772106316   -2.3388502419
 N    0.9515243419   -5.3221449927   -2.3846617684
 C    1.3443474967   -2.5306284789    0.1869100807
 N    1.9304954096   -2.8770889198    1.1197443893
 H    1.0368333023    1.7314778126    0.1587538242
 H   -0.4627888362    1.8350899198   -0.8065290341
 H   -0.5526468435    1.6435567177    0.9658085505
 H    0.1726522219   -0.2539665665   -2.0679576295
 H    1.6962802800   -0.1904751863   -1.1488363059
 H   -0.4076463725   -2.4026375986   -0.9333460627
 H    0.7707576222   -2.2949209106   -3.1727403035
 H    2.3213546407   -2.4829702374   -2.3526563029