18

 C   -0.0175634244    1.4647458735   -0.0635504529
 C   -0.0920378691   -0.0301726987    0.0713230875
 C   -1.1373607053   -0.8682395584   -0.5148032644
 C   -0.9062496069   -2.1616210795   -0.1613841797
 C   -0.0548028831   -2.9088651800   -1.1996791052
 C    1.0955038738   -2.2536729638   -0.3315683247
 C    0.1950385699   -2.2111651700    0.9203416146
 C    0.6313511769   -0.7702004219    1.1278231998
 N    1.3120416220   -0.7394403764   -0.2181625579
 H    0.9571906181    1.8365855072    0.2599119196
 H   -0.1684597443    1.7724342854   -1.1030473652
 H   -0.7932077967    1.9392102854    0.5473312717
 H   -1.5743725517   -0.5968739562   -1.4722249568
 H    0.0181468536   -3.9986538827   -1.1043711326
 H   -0.1802727934   -2.6238431579   -2.2452007867
 H    2.0743518385   -2.7376476897   -0.3290572040
 H    0.1851916465   -2.9806159584    1.6878432757
 H    1.0688706558   -0.3135528280    2.0085077112