20

 C   -0.3051876645    1.7160937994   -0.2715270831
 C    0.1534192847    0.2683055908   -0.0527254815
 C   -1.0310700295   -0.6365064607    0.3440243757
 C    0.8641830274   -0.2990381896   -1.2552259562
 N    0.6303175746    0.1630234854   -2.4606988190
 O    1.4183922059   -0.5918443826   -3.3238656057
 C    2.1075071397   -1.4856818405   -2.5989802327
 C    1.8180603209   -1.3727346790   -1.2780483063
 C    2.3662003233   -2.1574089694   -0.1282502186
 H    0.5373052463    2.3657564314   -0.5230362768
 H   -1.0249811068    1.7768980945   -1.0920281841
 H   -0.7814402414    2.1012121693    0.6355090930
 H    0.8729200854    0.2547102269    0.7773651274
 H   -1.7834617117   -0.6487258182   -0.4509131879
 H   -0.7141074109   -1.6685664500    0.5221277504
 H   -1.5047091866   -0.2659956066    1.2587001286
 H    2.7685093659   -2.1337106915   -3.1547302886
 H    2.8121484341   -1.5031081493    0.6292917775
 H    1.5899004392   -2.7463696542    0.3729460277
 H    3.1415394340   -2.8516448360   -0.4629296600