16

 C   -0.0366628407    1.5532727555    0.0107537210
 C   -0.0496045598    0.0136840418    0.0026431925
 C   -1.3946171121   -0.5463081817    0.0124092524
 C   -2.5113250981   -1.0021861958    0.0204960761
 C   -3.8491911484   -1.4919755392    0.0304169116
 N   -4.0201696613   -2.7775949525    0.0253280692
 O   -5.3587974709   -3.1190250989    0.0363524446
 C   -4.9149849010   -0.5405852450    0.0457559284
 C   -5.7949607963    0.2795159349    0.0587016145
 H    0.9928369724    1.9225317773    0.0029733024
 H   -0.5532037626    1.9511055054   -0.8666782750
 H   -0.5364424361    1.9416433126    0.9020232795
 H    0.4871853283   -0.3565177279   -0.8804793579
 H    0.5037850388   -0.3658852898    0.8714250885
 H   -5.3257870998   -4.0825842545    0.0310388881
 H   -6.5755281725    0.9998465379    0.0705440242