19

 O    0.0000258350    1.4353568382    0.0308615717
 C    0.0185590996    0.0105259741    0.0139888446
 C    0.9465864334   -0.5265683761    1.1244837350
 O    0.6796308324   -1.8641191077    1.5108759656
 C   -0.6842009292   -2.0920516208    1.8113770233
 C   -1.4468243234   -0.9843312031    2.6224739308
 C   -2.2519819262   -0.6642072564    1.3655182304
 C   -1.6599868101   -1.8784117569    0.6392373266
 C   -1.4036407157   -0.4945875219    0.1233042328
 H    0.8720853296    1.7491982324   -0.2301566728
 H    0.3951332665   -0.3473567603   -0.9580054371
 H    1.9871007193   -0.5165649438    0.7831421566
 H    0.8722828155    0.1582411484    1.9798253634
 H   -0.7255636509   -3.0816286000    2.2674448635
 H   -2.0727644633   -1.4522057426    3.3869487614
 H   -0.8702131017   -0.1854240746    3.0939051751
 H   -3.2811515425   -0.3257114670    1.3589075310
 H   -2.1417408980   -2.6547358643    0.0579406613
 H   -2.0055993302   -0.2249823076   -0.7410504234