20

 C   -0.0301277044    1.5944483599   -0.0004469971
 C    0.0296135401    0.0631361294    0.0284579018
 C    0.7901120061   -0.5613664251   -1.1735484210
 C    1.5513491699   -1.7906698405   -0.6147872524
 C    2.9264768562   -1.9876260682   -1.2469729635
 O    3.5001274467   -3.1638536332   -0.6937783071
 C    1.5897663248   -1.5090781553    0.8711626488
 C    0.7742332497   -0.5146181046    1.2138718681
 H    0.9781327103    2.0234873312   -0.0010509739
 H   -0.5496943673    1.9522966820   -0.8958877277
 H   -0.5619559863    1.9886297728    0.8722591969
 H   -1.0062527525   -0.3105639225    0.0440824347
 H    0.1302780825   -0.8133396073   -2.0081379737
 H    1.5171750690    0.1711378194   -1.5489150834
 H    0.9871554886   -2.7173114315   -0.7977889194
 H    2.8217265500   -2.0722306353   -2.3412240403
 H    3.5512243666   -1.1031382733   -1.0410905211
 H    4.3883876648   -3.2624474205   -1.0481468921
 H    2.2015144295   -2.0957152137    1.5462983454
 H    0.6122070556   -0.1559696737    2.2257658970