18

 O    0.0358592161    1.3487545943    0.2276770253
 C    0.0706411267   -0.0274375105    0.0964431005
 C    0.5045634304   -0.9193581525   -1.0982446299
 N   -0.0291731875   -1.9368570837   -0.0780163074
 C    0.7511795284   -1.1134293225    0.9696370925
 C   -1.1797190681   -0.9292254002    0.1238282513
 C   -2.1252164387   -1.0856510560    1.2848461332
 C   -2.5239018828   -2.4089103193    1.7856198371
 O   -1.6837325488   -1.5476712613    2.5614653899
 H    0.9394607774    1.6825830866    0.2529283727
 H   -0.0767051882   -0.8737345736   -2.0228863025
 H    1.5737916926   -1.0354864299   -1.2923760664
 H    1.8342170767   -1.2304287387    0.8704396892
 H    0.4087133459   -1.2647986437    1.9887700791
 H   -1.8047378469   -0.8579599283   -0.7759170326
 H   -2.8584062771   -0.2787555698    1.3426155494
 H   -3.5264822926   -2.5597240179    2.1818350111
 H   -2.0305876635   -3.2899441232    1.3813550475