15

 N   -0.0541725550   -1.1881132535   -0.1542650099
 C   -0.0310492718   -0.0347876220   -0.0762728542
 C   -0.0306342285    1.4169049399    0.0296299719
 C   -0.0338241408    2.0791151201    1.4204238269
 C    1.4649127887    1.6615924697    1.5539227978
 C    2.2192564673    2.7893361554    2.2198870837
 C    1.6730237261    3.8786332813    1.6764902736
 C    0.6388979175    3.3069722864    0.7340565280
 N    1.3528850126    2.0931010016    0.0484898308
 H   -0.6961482714    1.8437134106   -0.7258668220
 H   -0.8220601756    2.0622298747    2.1815190252
 H    1.7477794607    0.6238165109    1.7224771390
 H    3.0240179135    2.6896751210    2.9330084516
 H    1.9026819529    4.9243911615    1.8174312321
 H    0.0753517838    3.9560411525    0.0632771155