19

 C   -0.2449663227    1.3163289576   -1.1806903773
 C   -0.0388009336    0.2812060523   -0.0897009294
 C    0.9220724471   -0.8878524159   -0.4191513500
 C    1.8052883222   -0.2952518999    0.6955944122
 O    0.8548660842    0.7651140828    0.9536442339
 C   -1.3945755475   -0.1383826657    0.5244533920
 O   -2.1909022062   -0.7619088976   -0.4458475282
 C   -1.2259890040   -1.0444447912    1.7274717641
 O   -1.7398021215   -2.1390776388    1.7614384934
 H    0.7110144105    1.5866204339   -1.6379722305
 H   -0.9121778654    0.9204026248   -1.9512039068
 H   -0.6940332186    2.2230196824   -0.7618373935
 H    0.5201836445   -1.8850383843   -0.2336567350
 H    1.3479407455   -0.8579752302   -1.4226571028
 H    1.9570851771   -0.9299747697    1.5771488388
 H    2.7753012423    0.1025342956    0.3774158079
 H   -1.8764070290    0.7830689483    0.9024831253
 H   -2.4377300540   -1.6196556632   -0.0628171386
 H   -0.6232027109   -0.6484552113    2.5638002646