23

 C   -0.1787162940    1.5154549438    0.0999891690
 C    0.0126576982   -0.0045774577   -0.0205650485
 C    0.7185685575   -0.4099671596   -1.3260094469
 C   -0.0642738728   -0.1051303887   -2.5981367142
 O    0.6667698839   -0.6493711180   -3.6878749281
 C    0.7857667236   -0.5414566129    1.1844474771
 C    0.0938765777   -0.5144666001    2.5673829026
 O    0.2610857956   -1.9362601894    2.7328999464
 C    0.8210818589   -2.0708113280    1.4111762496
 H    0.7856509199    2.0345985443    0.0457869754
 H   -0.8156892775    1.9126010085   -0.6953404628
 H   -0.6462522327    1.7809689592    1.0538793706
 H   -0.9818463748   -0.4769313796   -0.0089583716
 H    1.6966605062    0.0846015774   -1.3886918763
 H    0.9168035814   -1.4886241301   -1.3193396619
 H   -1.0699733447   -0.5531622741   -2.5299223979
 H   -0.1986635401    0.9804213661   -2.7194629711
 H    0.2012803181   -0.4321483425   -4.5006901271
 H    1.7845875923   -0.0933822306    1.2091962463
 H    0.5948708578    0.0528995049    3.3607661731
 H   -0.9673631198   -0.2273122162    2.5438502210
 H    0.1643879812   -2.6492203609    0.7456480989
 H    1.8092134740   -2.5452142657    1.4304536764