25

 C   -0.2063135400    1.3606264636   -0.0942006847
 O   -0.2516499037   -0.0397219593   -0.2036077032
 C    0.8145666492   -0.5653980781   -0.9753678581
 C    0.7203104164   -2.0779065012   -0.9679788327
 C    0.8360926097   -2.6397477647    0.4415693713
 C   -0.2422066208   -2.7269663400   -1.9420824733
 C    1.2480120060   -2.8693101956   -2.1645098547
 C    1.8778905829   -2.1594880951   -3.3548255093
 C    1.8899128448   -4.2274864830   -1.9263883209
 H    0.7211278651    1.7057152347    0.3912420262
 H   -0.2768114185    1.8525503810   -1.0781862128
 H   -1.0590919461    1.6708833839    0.5150485113
 H    0.7631900110   -0.1569944337   -1.9942838403
 H    1.7797681116   -0.2421531073   -0.5447654556
 H    0.1529633998   -2.1002364346    1.1028028119
 H    0.5831414580   -3.7000629910    0.4942133789
 H    1.8520857476   -2.5164995403    0.8369327687
 H   -0.7986744911   -3.5950972565   -1.6022119006
 H   -0.8016811160   -2.0799960004   -2.6109427860
 H    1.3571187634   -1.2413836340   -3.6333886891
 H    2.9277290089   -1.9065514968   -3.1619758486
 H    1.8587952299   -2.8178596906   -4.2314655213
 H    1.8310906670   -4.8343913032   -2.8375644874
 H    2.9514461210   -4.1257349884   -1.6696083638
 H    1.4069112238   -4.7924107694   -1.1274487658