20

 C   -0.0390547648    1.3107151686    0.0905822152
 O    0.0075370388   -0.0934398810    0.0162108557
 C    0.6541791877   -0.5597878271   -1.1463583693
 C    0.6434647722   -2.0829756684   -1.1195243719
 C    1.3266572113   -2.6771426717   -2.3404861899
 O    1.2595891604   -4.1054870601   -2.2155140861
 C    1.8370205385   -4.7969716007   -3.2291230179
 N    1.6646041462   -6.1390586824   -3.0317370687
 O    2.3923343405   -4.2945086814   -4.1777591109
 H    0.9695485626    1.7540587369    0.1075300388
 H   -0.5893861668    1.7481524312   -0.7578583647
 H   -0.5546952769    1.5726651733    1.0176623065
 H    0.1405416814   -0.1846536971   -2.0492438660
 H    1.6905124220   -0.1802330436   -1.1887266920
 H    1.1459752282   -2.4286772033   -0.2099835615
 H   -0.3926805721   -2.4335280891   -1.0686465697
 H    0.8350590684   -2.3735420752   -3.2711541827
 H    2.3756501183   -2.3698753449   -2.4114785448
 H    1.3936790770   -6.4630001607   -2.1189156533
 H    2.2302588771   -6.7458203431   -3.5995790368