16

 C   -0.2059393960    1.5911630194    0.0445822985
 C    0.0307873076    0.0926082342    0.0197487382
 C    1.0973012960   -0.5143283839   -0.9549583472
 O    1.9338259498    0.3550407452   -1.6901368735
 C    1.7697611941   -1.0912953638    0.2769218452
 C    2.0969400576   -0.0231422538    1.2393372822
 N    0.7126129945   -0.5273354246    1.2198814706
 H    0.7248223395    2.1618449267    0.0133362479
 H   -0.8069600165    1.8945034692   -0.8200355577
 H   -0.7567799877    1.8698995804    0.9487492592
 H   -0.9243372140   -0.4290551849   -0.0941169259
 H    0.6660013617   -1.2874461978   -1.6024548626
 H    1.4527278781    0.6497993687   -2.4700581815
 H    2.1403339605   -2.1058790297    0.3745162303
 H    2.6287123726   -0.3175082111    2.1387986682
 H    2.3283230522    0.9748088659    0.8822109781