20

 C    0.1244161029    1.5257771761    0.0554590282
 C   -0.0391705647    0.0511898577   -0.0905649956
 C    0.7299046658   -1.0000341633   -0.8017345885
 N    0.7233659248   -0.9649196057    0.7046780487
 C   -0.5311776085   -1.7958845766    0.9466951222
 C   -0.4829378868   -2.9833507365   -0.0247722224
 C   -0.5006792334   -1.8795653598   -1.1175439150
 C   -0.9013768775   -2.1140072185   -2.5498516301
 C   -1.2600033606   -0.9120249562   -0.1075207382
 H    1.1866850172    1.7801745490    0.1257919704
 H   -0.3009106951    2.0593262282   -0.8020186451
 H   -0.3713534121    1.8922413096    0.9616088324
 H    1.6908290758   -0.9619962795   -1.3030666367
 H   -0.7893272750   -1.8832277524    2.0009436598
 H    0.3707055206   -3.6661369176    0.0249872780
 H   -1.4214862411   -3.5480172128   -0.0105425481
 H   -1.8703072870   -2.6201790971   -2.6162151410
 H   -0.9770722033   -1.1685212115   -3.0989770873
 H   -0.1633746100   -2.7385357492   -3.0678943566
 H   -2.3235886119   -0.6893102240   -0.1584283850