11

 O   -0.0327904275   -0.0686284989   -0.0016126588
 C   -0.0360629254    1.1217838898    0.0072495976
 N    1.1757752924    1.9126145333    0.0002757801
 N    2.3315651122    1.2106107000   -0.0172246106
 N    3.4267315751    1.8455944491   -0.0241356453
 C    3.3706577994    3.2408446222   -0.0131293915
 N    2.3218403217    3.9858063823    0.0035595224
 C    1.0876142209    3.3424076771    0.0119120279
 O    0.0224057548    3.8993306271    0.0274685705
 H   -0.9126079732    1.7801225755    0.0217590386
 H    4.3505186495    3.7123887524   -0.0201500410