17

 C   -0.0025490038    1.4489132049    0.0123727490
 N   -0.0621022650    0.0027513029   -0.0273320107
 C   -1.2184216252   -0.7009045581    0.0077377519
 N   -1.1059105607   -2.0492251363    0.0558636341
 C   -2.2542060748   -2.6915275250    0.0642926344
 C   -3.4899671368   -2.0219136357    0.0260548639
 C   -4.8085954740   -2.7423745118    0.0284292018
 N   -3.5088121611   -0.6902365386   -0.0085845652
 N   -2.3718154458   -0.0084995650   -0.0140436645
 H    1.0373589416    1.7562400503   -0.1145920941
 H   -0.6023657958    1.8816563310   -0.7928191563
 H   -0.3798674157    1.8520513023    0.9600486680
 H    0.7775888672   -0.5403477418    0.0780351279
 H   -2.2118601669   -3.7794897054    0.1051601434
 H   -4.9249386311   -3.3673742129    0.9210443432
 H   -5.6182625288   -2.0108418058    0.0080107820
 H   -4.9101482634   -3.3992575951   -0.8429005689