16

 O    0.1725398960    1.3577184931    0.1395763645
 C    0.0909866845   -0.0281167134    0.0691213579
 C   -1.3303680278   -0.6164821958   -0.1634370923
 N   -1.1405030406   -0.2225948216   -1.6004060765
 C    0.2951018562   -0.6301900660   -1.3848282366
 C    0.1860106447   -2.1044739858   -1.0677537071
 O    0.9192318184   -3.0322088390   -1.2939498465
 C   -1.0959183501   -2.1383530065   -0.1935875509
 O   -0.8445888615   -2.7191069017    1.0641230966
 H   -0.3764640977    1.7010889393   -0.5787402926
 H    0.6827263237   -0.4480799857    0.8815636585
 H   -2.2080311121   -0.2350324065    0.3581793358
 H   -1.6462313735   -0.8019408072   -2.2721631529
 H    1.0622549879   -0.2720195568   -2.0682455760
 H   -1.9285451994   -2.6412092287   -0.7126742771
 H   -0.2735838586   -3.4834436875    0.9122133953