20

 C   -0.0126703345    0.8534222510   -0.3556955634
 O   -0.7442037625    0.2675257180    0.7141585666
 C   -1.7399481259   -0.6663488765    0.3238225599
 C   -1.2449809581   -2.0904576143    0.0551940397
 O   -0.4178183038   -2.0603797779   -1.0993005532
 C   -0.2475434072   -3.3143663909   -1.7423667114
 C   -0.5027809693   -2.7987568093    1.2146968193
 N    0.1689083285   -1.9945609687    2.0736416430
 O   -0.5120426530   -4.0160117518    1.2941450687
 H    0.6102136419    1.6355302165    0.0852742967
 H    0.6140640223    0.1197195183   -0.8703373739
 H   -0.6948339354    1.3113342253   -1.0857057631
 H   -2.4632697694   -0.6996954364    1.1458952478
 H   -2.2563448847   -0.3092395089   -0.5783016125
 H   -2.1339401257   -2.7121037474   -0.1367869130
 H    0.3688552501   -3.1286260094   -2.6251522727
 H    0.2427550321   -4.0474727463   -1.0936380397
 H   -1.2169499225   -3.7267377162   -2.0595587097
 H    0.1803051022   -0.9938494890    1.9349587774
 H    0.7183971247   -2.4279455860    2.7978152737