20

 O   -0.1439185058    1.2826074960    0.2097882932
 C    0.0413411525   -0.1179951384    0.0227174662
 C    0.8234518506   -0.3629874193   -1.2918849308
 C    2.1242449618    0.3024073082   -1.2686233872
 N    3.1361123700    0.8575336136   -1.1994418178
 C    0.6887836131   -0.7508198076    1.2704145882
 C   -0.4715792216   -0.7883921154    2.2743000113
 C   -1.6720086422   -1.2472861559    1.4183707469
 C   -1.3767968105   -0.7349519119   -0.0192225736
 H    0.7214170061    1.6849472640    0.3549667069
 H    0.9698192293   -1.4349015422   -1.4611140453
 H    0.2445390651    0.0329515768   -2.1330489596
 H    1.0238036237   -1.7698375244    1.0370310129
 H    1.5630233905   -0.1891892411    1.6139661202
 H   -0.2803203267   -1.4436994204    3.1277117896
 H   -0.6464908075    0.2206506774    2.6589415563
 H   -1.7368255691   -2.3402935260    1.4197660660
 H   -2.6235780866   -0.8740321730    1.8041161934
 H   -2.0779434185    0.0356762190   -0.3468216315
 H   -1.4231026844   -1.5508404592   -0.7465544852