18

 C   -0.0321207475    1.4784856550    0.0840284137
 C    1.3668733447    2.1289455950   -0.0172104252
 C    2.1965920760    1.4344170801   -1.0615522274
 C    1.9738441366    0.0920432270   -1.3192029863
 N    2.9178487756   -0.3233773922   -2.2276241082
 C    3.7299356912    0.7325800195   -2.5583509037
 C    3.3098333923    1.8357880042   -1.8411240249
 C    0.9370771833   -0.6841093149   -0.6799402510
 C   -0.0023423186   -0.0352958759    0.0270654739
 H   -0.5332588137    1.8165883996    0.9970147564
 H   -0.6538882885    1.8374621347   -0.7525492905
 H    1.2612181731    3.1982170892   -0.2282263538
 H    1.8714209281    2.0578049018    0.9590768204
 H    2.9748555115   -1.2443616521   -2.6262083495
 H    4.5260203854    0.6171337744   -3.2760950693
 H    3.7581708241    2.8175023884   -1.8803190858
 H    0.9327673422   -1.7668796000   -0.7704371493
 H   -0.8006450659   -0.5836934537    0.5167289105