18

 C    0.3427836410    1.2801756962    0.2749427397
 N    0.0494047589   -0.1344873240    0.1293397864
 C    0.0498411443   -0.8230014378   -1.0488081149
 O    0.3583794668   -0.1348722673   -2.1788634726
 C   -0.2775100763   -2.1404515235   -0.8202838261
 C   -0.4885820017   -2.2521427945    0.5841271560
 C   -0.2925152030   -1.0156546212    1.1538196038
 C   -0.3809595960   -0.5866816470    2.5747226515
 O    0.8692377998   -0.1483826597    3.1263990955
 H    0.8391743364    1.4392185071    1.2332497808
 H    1.0021902872    1.5932903489   -0.5356851663
 H   -0.5687591256    1.8879992569    0.2331493507
 H    0.4004285881   -0.7604255738   -2.9080611151
 H   -0.3522995379   -2.9188926723   -1.5636835190
 H   -0.7669350910   -3.1467381336    1.1214497868
 H   -1.0522268911    0.2701450877    2.7083814921
 H   -0.7999852003   -1.4199961426    3.1563156996
 H    1.5152603806   -0.8322101497    2.9169344111