17

 C   -0.0180384490    1.5363754551    0.0157678526
 C   -0.0064764395    0.0392110627    0.0205593909
 C   -0.0280381221   -0.7925559987   -1.0826562187
 N   -0.0077539174   -2.1220436264   -0.6935775327
 C    0.0274015605   -2.1683928335    0.6812529704
 C    0.0286747325   -0.8500305842    1.1340415789
 N    0.0639552454   -0.8940826212    2.5107406674
 C    0.0845168829   -2.2190286466    2.9064489114
 C    0.0625489834   -3.0441088328    1.7994096049
 H    0.8737852329    1.9570586423    0.4978477994
 H   -0.0488604983    1.9232866784   -1.0069445916
 H   -0.8886688558    1.9434965593    0.5458223583
 H   -0.0567273338   -0.5295223826   -2.1289493718
 H   -0.0180696157   -2.9053280277   -1.3200487335
 H    0.0736710408   -0.1088448985    3.1351575588
 H    0.1132395633   -2.4749234063    3.9537944042
 H    0.0713200498   -4.1223494793    1.8181777711