21

 C   -0.6670986662    1.3086114559   -0.0259438942
 C   -0.0352536327   -0.0719152711   -0.1090235279
 C    1.1974007911   -0.2465633430   -1.0373246365
 O    2.0655998345    0.9060396079   -1.0703483723
 C    2.9618982424    0.3211219327   -0.0949018935
 C    2.0228546962   -0.8750561305    0.1247715795
 C    0.8408671709   -0.5871237920    1.0612697264
 C    0.9208848539   -0.0530682772    2.4628855609
 C    0.3839259190   -1.4418917014    2.2056849876
 H   -1.2102586814    1.5461508699   -0.9470845342
 H   -1.3810480956    1.3685955192    0.8029092581
 H    0.0994229317    2.0738240177    0.1187037870
 H   -0.7931666675   -0.8227823378   -0.3670125073
 H    1.0518099174   -0.6822308097   -2.0296483006
 H    3.9264860381    0.0642760091   -0.5524178418
 H    3.1325937962    0.9804789384    0.7644894752
 H    2.4453779279   -1.8797003105    0.1203632983
 H    1.9005679215    0.0407179480    2.9213013314
 H    0.2188338980    0.7204693030    2.7569638187
 H   -0.6828818557   -1.6082139956    2.3228586421
 H    0.9997916704   -2.2893788329    2.4908454231