16

 N    0.1234325932    1.5059149008    0.3838236981
 C    0.0584131331    0.1252280647    0.0956053799
 C   -1.0932038638   -0.6138727767   -0.1248475726
 N   -0.6817697787   -1.8971529280   -0.3200499456
 N    0.6440060872   -2.0555720684   -0.2073928847
 C    1.1027648592   -0.8265851309    0.0274977954
 C   -2.5135199546   -0.2332598217   -0.1560953642
 C   -3.3901953487   -0.4992579932   -1.3152650350
 O   -3.4425402902   -1.3267826539   -0.1518008511
 H    1.0746054995    1.7988166953    0.5694526130
 H   -0.2360146187    2.0795956517   -0.3705691422
 H   -1.2862984672   -2.6953648067   -0.4224389516
 H    2.1637311701   -0.6600288793    0.1510797752
 H   -2.7779166627    0.5987025338    0.4967194377
 H   -4.2676429979    0.1240417284   -1.4821867095
 H   -2.9668678500   -0.9659164060   -2.2030613228