18

 C    0.0771310055    1.5312764310   -0.0245135335
 C    0.1954851876    0.0203269092    0.0579588586
 O    0.4215565615   -0.4803238936   -1.2602901405
 C    0.5945118420   -1.8391257927   -1.3202951778
 C    1.8592460749   -2.5523520764   -0.8777469867
 C    1.3750369613   -2.6674320094   -2.3005502400
 O    0.3434719560   -3.6540113408   -2.3988466948
 C   -0.5223597091   -2.8646690529   -1.5359268453
 H    0.9948245244    1.9664691562   -0.4302223763
 H   -0.7541101920    1.8175541905   -0.6749227683
 H   -0.0982917540    1.9530270950    0.9696029540
 H    1.0276838185   -0.2764658678    0.7127657448
 H   -0.7235201733   -0.4193251373    0.4744042614
 H    2.7048821170   -1.8834921363   -0.7461458729
 H    1.8356706708   -3.4207808942   -0.2244956161
 H    1.9499856544   -2.4306917565   -3.1874807101
 H   -0.8869367379   -3.4358218372   -0.6744841478
 H   -1.3641855975   -2.4533750568   -2.1044472388