18

 C   -0.2929586557    1.6432563366   -0.2400458637
 C    0.0085415680    0.1700156252   -0.0372668967
 C    0.7544310599   -0.5917663874   -1.2047722086
 C    1.8769878918   -0.7875845592   -0.1984744532
 C    3.0782692056   -1.1783775805    0.3500554013
 N    4.1805686380   -1.8329010645   -0.2165205325
 N    3.1181465539   -0.7437771603    1.6557153587
 C    1.9801470033   -0.1043730322    1.9056754992
 N    1.2071052216   -0.1229864333    0.7972144077
 H    0.5899680614    2.1732412826   -0.6091672267
 H   -1.1017717933    1.7632746549   -0.9680959946
 H   -0.6103874088    2.1124417828    0.6965520883
 H   -0.8723858447   -0.3647613479    0.3311541880
 H    0.2442715673   -1.4944232402   -1.5536720145
 H    0.9827476828    0.0408043061   -2.0681522428
 H    3.9174682734   -2.6140344862   -0.8037259447
 H    4.8015275736   -2.1534174175    0.5164910146
 H    1.7109988519    0.3568240511    2.8423163603