16

 O    0.0784302841   -0.1020571311    0.0032087534
 C    0.0720356127    1.0876285396   -0.1067413840
 O   -1.1500799066    1.7309434795   -0.2189802504
 C   -1.2075563002    3.0727650413   -0.5397838955
 N   -0.2718999643    3.8683175585   -0.8099563522
 C    1.0961365762    3.3985084402   -0.7504627439
 C    1.8619315420    4.0140848164    0.4550136041
 C    1.6184290693    2.7022621092    1.2490449501
 C    1.2692707380    1.9881986319   -0.1009145716
 H   -2.2476803964    3.3878139168   -0.5531916696
 H    1.5524216025    3.5454705351   -1.7330906617
 H    2.9186334555    4.1726487828    0.2263555515
 H    1.4386538970    4.9347986418    0.8591581505
 H    2.4557375348    2.2791335294    1.8051482337
 H    0.7563387337    2.7699911511    1.9169602673
 H    2.1203833320    1.4280418576   -0.4891219817