16

 N   -0.0550837324   -1.1737414958   -0.1388756460
 C   -0.0446764910   -0.0208241992   -0.0508486102
 C   -0.0359063782    1.4277535985    0.0519601439
 C   -0.2568660498    2.2247657249   -1.2693603104
 O    0.9107649560    3.0250872936   -1.0209266360
 C    1.3288848000    2.2006718690    0.0855036765
 C    1.3906152926    2.9680578543    1.4099629382
 C   -0.0057634515    2.8126793070    1.9645650215
 C   -0.7649007208    1.9768255695    1.2578783526
 H   -0.1569585061    1.6142101673   -2.1747040984
 H   -1.1725996476    2.8223179800   -1.3175680833
 H    2.2288260191    1.6270209077   -0.1543730467
 H    2.1469541735    2.5610571221    2.0931148056
 H    1.6584548233    4.0128612461    1.2156475340
 H   -0.3373884390    3.3343098606    2.8554129878
 H   -1.7900521081    1.7030775345    1.4752434809