20

 C    0.1651900800    1.5325152424   -0.1094878829
 C   -0.1271181867    0.0411646308    0.0992070413
 C    0.6271289264   -0.5523841769    1.2555766608
 C    2.0585905981   -1.0126508789    1.1966822154
 C    0.9622879263   -2.0049892153    1.5471652270
 N    0.7119168878   -2.2023025194    2.9542108770
 C    0.3387972282   -1.0704387857    3.4112332475
 C    0.0026696277   -0.7414343494    4.8238111938
 O    0.2259533684   -0.0341175995    2.5253739843
 H    1.2282830889    1.6997192772   -0.3104760903
 H   -0.4063608450    1.9286787206   -0.9540208217
 H   -0.1018791125    2.1070834908    0.7819292725
 H   -1.2009026359   -0.1112339113    0.2624804165
 H    0.1374051190   -0.5238051615   -0.8020770177
 H    2.4914285436   -1.0977947931    0.2054758702
 H    2.7475383333   -0.7143509927    1.9800460819
 H    0.7480102365   -2.8371394224    0.8866099490
 H    0.0265669308   -1.6503566390    5.4242322455
 H    0.7186243937   -0.0203087361    5.2315032470
 H   -0.9896558487   -0.2836344107    4.8816148129