20

 C   -0.0866683299    1.5281231395    0.0109187982
 C    0.0786623254    0.0171844414    0.0023018517
 O    1.1703337965   -0.5041969889   -0.0116699581
 C   -1.2072860799   -0.8009944067    0.0099165591
 C   -0.9800548278   -2.3118638018   -0.0006824212
 C   -2.2880285867   -3.1072475036    0.0073387725
 C   -2.0617695938   -4.6130794511   -0.0032500503
 O   -3.3319482005   -5.2474457049    0.0053166377
 H    0.8924871495    2.0081731352    0.0040354495
 H   -0.6637428872    1.8541342694   -0.8617727180
 H   -0.6474203453    1.8459079761    0.8971661344
 H   -1.7959576718   -0.4975561662    0.8879430278
 H   -1.8125689763   -0.4878322232   -0.8532837953
 H   -0.3816876494   -2.5750253413   -0.8806279152
 H   -0.3650693026   -2.5847554349    0.8647201968
 H   -2.8841353977   -2.8533631907    0.8930768435
 H   -2.9008950945   -2.8435209157   -0.8639686943
 H   -1.4806418158   -4.8944602083   -0.8970308832
 H   -1.4637210358   -4.9043887914    0.8760687050
 H   -3.1929662465   -6.1988253231   -0.0011420805