17

 C    0.0307473142    1.5641628770   -0.0166366290
 C    0.0441859078    0.0458710006    0.0026748115
 O   -1.2533183426   -0.5039063726    0.1591387264
 C    0.7458047246   -0.7232277796   -1.1121313528
 C    2.2306441916   -0.8166712195   -0.6487991931
 O    2.3519174549   -0.1065533343    0.5850826129
 C    1.0666892934   -0.6659879373    0.9551172053
 C    1.2184942866   -1.7985607506   -0.1628222774
 O    1.0437574543   -3.1488411524   -0.2259270758
 H    1.0481117179    1.9544623438   -0.0832326958
 H   -0.5529575787    1.9296104477   -0.8671765108
 H   -0.4250653031    1.9592955727    0.9005655152
 H   -1.6461793074   -0.1040009110    0.9431046298
 H    0.4581306971   -0.8177295606   -2.1515044135
 H    3.0755033432   -0.8697087015   -1.3223603567
 H    0.9037293367   -0.7515305558    2.0290813520
 H    1.7652128096   -3.5746318667    0.2523361519