19

 C   -0.0429888439    1.5690541536   -0.0073954633
 C   -0.0061422873    0.0307797152    0.0143257388
 C    0.6604721400   -0.4803080927   -1.2508810751
 O    0.1137896580   -1.1545675062   -2.0863920226
 C    0.7473151425   -0.5337331309    1.2500747972
 O    2.0745106602   -0.0510483348    1.3302844864
 C    0.0008640664   -0.2397892219    2.5458195799
 C    0.6834592325   -0.2875740681    3.8417068599
 O    0.4034849265    0.9705611341    3.2018265048
 H    0.9675458657    1.9815092080   -0.0863081299
 H   -0.6206607411    1.9275553933   -0.8638533172
 H   -0.4990770999    1.9670868431    0.9028554407
 H   -1.0249340544   -0.3736987843    0.0173894304
 H    1.7254207872   -0.1778514268   -1.3578072704
 H    0.8159448249   -1.6240701291    1.1390163710
 H    2.0211414092    0.7838833593    1.8176146066
 H   -1.0766273683   -0.4009937310    2.5190324840
 H    0.1097038734   -0.4783162818    4.7458708487
 H    1.7356877883   -0.5583226990    3.8744097503