15

 O   -0.0774634133    1.4632792098    0.0538688643
 C    0.0319144444    0.0512513440    0.0809059819
 C   -1.3779251151   -0.5192504342   -0.0955294825
 C   -1.4044804007   -2.0156248273   -0.0562284707
 C   -1.5423469653   -2.9029128259   -1.0780553035
 O   -1.4953342076   -4.1669754406   -0.6321309754
 N   -1.3185497323   -4.1494198435    0.7470717485
 C   -1.2664619027   -2.8819803146    1.0702525149
 H    0.8020447096    1.8378949092    0.1571373785
 H    0.6811316988   -0.3233524121   -0.7259715454
 H    0.4584350041   -0.3036358451    1.0328840671
 H   -2.0148523813   -0.1031043489    0.6931226362
 H   -1.7805761076   -0.1574784144   -1.0468466588
 H   -1.6846942249   -2.7844812905   -2.1414601355
 H   -1.1366606360   -2.6131568860    2.1099539603