16

 N   -0.0889856349    1.4095273112    0.1205611932
 C   -0.0664762728    0.0378790253    0.0178362896
 N   -1.1345217437   -0.6610386415    0.0408876973
 C   -1.0873051363   -2.0619518288    0.0245256859
 C    0.1348895672   -2.7809142587    0.0018480885
 N    1.1516105172   -3.3465270823   -0.0162792609
 C   -2.2764204289   -2.7517626052    0.0219352813
 N   -3.4745699161   -2.0895776988   -0.1159982661
 N   -2.3718972309   -4.1213196049    0.1638422547
 H   -3.0668284523   -4.5533368269   -0.4306004712
 H   -1.4849522446   -4.6062207266    0.1374027592
 H    0.6875165949    1.9058325672   -0.2871707223
 H   -0.9897178386    1.8387416228   -0.0359252929
 H    0.9402258554   -0.3899683194   -0.0294211989
 H   -3.3488078786   -1.0869315733   -0.0442405250
 H   -4.2252257072   -2.4500643302    0.4571848876