18

 C    0.0104950036    1.5878324034    0.0515311353
 C    0.0711246446    0.0904145797    0.0216890802
 C    0.6326261036   -0.7638774123   -1.1270800855
 C    1.2443233818   -1.7720381852   -0.0945448685
 C    0.6091538804   -0.9484370847    1.0157760621
 O    1.1498483982   -0.7097547716    2.2780805545
 C   -0.8775448734   -0.7834530845    0.8280445839
 O   -1.5322962437   -0.1756188895    1.9013325029
 H    1.0050572793    2.0384247371   -0.0381847560
 H   -0.6017615511    1.9627283069   -0.7776770305
 H   -0.4463106746    1.9333882282    0.9821926588
 H   -0.1153107449   -1.1766330101   -1.8125243819
 H    1.3981901498   -0.2488766362   -1.7117689467
 H    0.9365649412   -2.8209683253   -0.1699400742
 H    2.3357599341   -1.7201334024   -0.0750230538
 H    1.1462757389   -1.5422287045    2.7677718983
 H   -1.4938930699   -1.5422024997    0.3423437117
 H   -0.8839278279   -0.1149894991    2.6171299994