21

 C   -0.0714404807    1.4851739652    0.3491868203
 C   -0.0848374576   -0.0341541118    0.1646475152
 C   -1.4894319717   -0.5886681470   -0.1031871670
 C   -1.5017467828   -2.1023227464   -0.2549321522
 O   -1.1467259410   -2.8218024496    0.9556514602
 C   -2.3721246989   -3.5974914256    0.9872534206
 C   -3.1597999053   -3.4619790964    2.2776740322
 C   -2.8586399283   -2.8195376687   -0.2453512531
 O   -3.8676609409   -2.7590872263   -0.8800723938
 H    0.9418002084    1.8523020132    0.5389839705
 H   -0.4507895955    1.9977786469   -0.5418499661
 H   -0.6983694714    1.7867152797    1.1955588399
 H    0.5758524428   -0.3123883197   -0.6669383420
 H    0.3207759294   -0.5234807279    1.0573314878
 H   -2.1644312838   -0.3047098125    0.7137721242
 H   -1.9040425143   -0.1557362971   -1.0229539175
 H   -0.8644929073   -2.4119882212   -1.0975674034
 H   -2.1740211899   -4.6555566407    0.7604843850
 H   -3.3848849624   -2.4137601887    2.4922350457
 H   -4.1014960273   -4.0136467662    2.1967332959
 H   -2.5879489314   -3.8724169691    3.1149815275