18

 O   -0.0353654053    1.3574618073   -0.3377390744
 C    0.0007309623   -0.0618178068   -0.3737691663
 C   -1.3658237682   -0.5587288506    0.1014244621
 C   -2.4938946149   -0.0832581680   -0.8549197808
 C   -2.7658838486   -1.2878553804   -1.7186355874
 C   -2.2146958758   -2.3964857026   -1.2349018666
 C   -1.4813369093   -2.1230231084    0.0711227648
 C   -0.2126322146   -2.8451831493    0.1934103734
 N    0.7803561987   -3.4294760307    0.2901886302
 H    0.8139611038    1.6862853841   -0.6457078284
 H    0.1976675851   -0.4331334674   -1.3921405691
 H    0.7899032704   -0.4562338796    0.2806470044
 H   -1.5171622031   -0.1840587032    1.1166559000
 H   -3.3969880873    0.2062483334   -0.3011955376
 H   -2.1815683924    0.8010110522   -1.4178606333
 H   -3.3756579060   -1.2421772707   -2.6140378121
 H   -2.2855543610   -3.3936387152   -1.6507088000
 H   -2.1027252737   -2.4577813941    0.9144434413