21

 C    0.0124577431    1.5688280941    0.0885387112
 C    0.0607106233    0.0512613041    0.0326642507
 C    1.0176420342   -0.6463131149   -0.9744353058
 C    1.3646544847   -1.6892321908    0.1208433519
 C    0.7932154588   -0.7248199583    1.1905108732
 O    1.8550190584    0.0121838168    1.7635552409
 C   -0.0777123222   -1.3071732629    2.2815440975
 C    0.4774326627   -1.7309313662    3.5714496355
 O   -0.2160744365   -0.4785372874    3.4475498760
 H    1.0099104150    1.9777512364    0.2741138542
 H   -0.3548958147    1.9818896850   -0.8571428216
 H   -0.6528773717    1.9211696197    0.8850366709
 H   -0.9511287088   -0.3569657870   -0.0796612566
 H    0.5814822381   -1.0172035172   -1.9047115731
 H    1.8761931548   -0.0144241747   -1.2167085040
 H    0.7705658989   -2.6039039662    0.0347351012
 H    2.4138105360   -1.9544527221    0.2635084386
 H    1.4596837256    0.5253376524    2.4827070014
 H   -1.0097876117   -1.7627701474    1.9457433424
 H   -0.0413267204   -2.4857690843    4.1591816537
 H    1.5483951824   -1.6471324291    3.7370600117