14

 C   -0.0066917806    1.4361463314    0.0490069211
 N   -0.0544074034   -0.0135947725    0.0705748578
 C   -1.2603402544   -0.6648764111    0.0151132868
 N   -2.3725318416   -0.0482260719    0.0895855937
 C   -3.6261138170   -0.7685789470    0.1110625969
 C   -1.1235807542   -2.1146786070   -0.1028335472
 N   -1.0347923660   -3.2624788559   -0.2111241399
 H    1.0331958668    1.7519493000    0.1505978996
 H   -0.4260135916    1.8526891865   -0.8758580130
 H   -0.5871296172    1.8360219156    0.8838042502
 H    0.7488083956   -0.5196994864   -0.2633681264
 H   -4.2644398038   -0.4021298192   -0.7010638867
 H   -3.5311961422   -1.8590821757    0.0137795669
 H   -4.1531054403   -0.5509927465    1.0477414001