16

 O   -0.0297870232    1.4000835573    0.0838644741
 C    0.0329444147   -0.0024263220    0.0151067275
 C   -1.3759432553   -0.6191474285   -0.1807287793
 C   -1.2288924789   -0.2514003516   -1.6874627203
 C    0.2797998131   -0.5946456232   -1.4306283062
 C    0.1785633521   -2.0759962854   -1.1166017241
 O    0.8810231114   -2.9833207731   -1.4735913319
 C   -1.0567228810   -2.1247585992   -0.1858221020
 H    0.8654416292    1.7461492587    0.0109214813
 H    0.6515620414   -0.4129089766    0.8254759852
 H   -2.2165468500   -0.2726889873    0.4189392091
 H   -1.7706522912   -0.8531870429   -2.4216185710
 H   -1.3696895325    0.8114811649   -1.8729301207
 H    1.0960998043   -0.2719030088   -2.0744659719
 H   -0.7907462358   -2.5375756066    0.7927888912
 H   -1.8557178883   -2.7396352758   -0.6109191609