17

 C   -0.1106642133    1.5794651133   -0.0511896048
 C   -0.0582549663    0.0502051285   -0.0065589666
 C    1.1105145051   -0.5577869873   -0.8460047509
 N    1.9381621487   -0.5838715936    0.3780354096
 C    0.7297462128   -0.5358278616    1.2375881926
 C    0.8229109219    0.2531192852    2.4514689768
 C    0.8833616419    0.9002778777    3.4625125089
 C   -1.3702353132   -0.5395919389   -0.2287171472
 N   -2.4098720664   -1.0134838409   -0.4068341906
 H    0.8914169054    1.9826914572    0.1098054942
 H   -0.4793872745    1.9166031915   -1.0238709254
 H   -0.7715269921    1.9692910061    0.7265194251
 H    0.8522411831   -1.5427628335   -1.2548447732
 H    1.5026782809    0.0766365667   -1.6464089494
 H    2.5175119700   -1.4062973129    0.5047095910
 H    0.3257574732   -1.5295433433    1.4783387097
 H    0.9432496527    1.4716969358    4.3560739001