19

 C   -0.5681629754    1.4347425964   -0.0379422450
 C    0.1061986201    0.0746679212   -0.0471674953
 O    1.1076350374    0.0490205425   -1.0582720072
 C    1.9134398661   -1.1002125307   -0.8065589382
 C    2.0457232769   -1.1744622749    0.7095341896
 O    2.9730077115   -0.2020093507    1.2341033569
 C    1.9115638369    0.5843283580    1.8114462469
 C    0.8333474124   -0.3706066481    1.2405349914
 O    0.0140778087   -1.0402581612    2.1622232128
 H    0.1540081929    2.2344783276    0.1456015548
 H   -1.0478066204    1.6244723042   -1.0016062504
 H   -1.3429873873    1.4759686683    0.7358672789
 H   -0.6482292400   -0.7086158890   -0.2443127690
 H    1.4259962251   -2.0121721089   -1.1886089146
 H    2.8729229128   -0.9643601075   -1.3106126578
 H    2.2136626944   -2.1774366721    1.1121411189
 H    1.9446678213    0.5810812717    2.9077264665
 H    1.9206234792    1.6151231032    1.4403583108
 H   -0.6950660425   -0.4456368800    2.4308318000