10

 N   -0.0386749154    1.3084854124    0.1538537083
 C   -0.0474842625   -0.0409665386    0.0362274728
 N   -1.0892369516   -0.8274533922   -0.0392479397
 C   -0.4792971285   -2.0546603637   -0.0778428320
 O   -1.1818433755   -3.1847624471   -0.1562540973
 N    0.8280489946   -2.0718949252   -0.0365084420
 O    1.1251162208   -0.6725673963    0.0417554217
 H    0.8204112169    1.7803703099   -0.0782625694
 H   -0.8907915169    1.7778861063   -0.1051015728
 H   -2.1132722618   -2.9338666255   -0.1672310195