18

 C   -0.0783634672    1.5328838273    0.0369700534
 N    0.0885900675    0.0869521107    0.0112223696
 C    0.7829808093   -0.5277396479   -1.1116918585
 C    2.3361233965   -0.5810827938   -0.7937570684
 O    3.2805617555   -0.7908641466   -1.7725670182
 C    2.5011093896    0.0764893027    0.5738402891
 C    1.1053234988   -0.5476104788    0.9012047466
 C    1.3792962890   -1.6088906646   -0.2603484827
 O    1.4078155542   -2.9713669701   -0.3130765534
 H    0.8345754084    2.1106280174   -0.1793431494
 H   -0.8336697708    1.8145367656   -0.7047608799
 H   -0.4501551049    1.8338730867    1.0221271192
 H    0.4113365706   -0.5572272081   -2.1296914487
 H    3.3511024875    0.0080311417   -2.3066302838
 H    3.2839282293   -0.4231502460    1.1502273281
 H    2.6161263025    1.1622102057    0.6529370751
 H    0.8098029782   -0.7433193557    1.9310542801
 H    0.4995470358   -3.2955974559   -0.3229819782