20

 C    0.0229809081    1.3823564377    0.0612400265
 O    0.0186599932   -0.0260833267   -0.0086551544
 C   -1.2747018352   -0.5736475877    0.0192654684
 C   -1.1440144430   -2.1026275556    0.0583117555
 C   -0.4543160263   -2.5302337223    1.2792828800
 N    0.0181034274   -2.9029317401    2.2665332963
 C   -2.5349386220   -2.7961426976   -0.0195025704
 C   -2.4299196213   -4.3128897887   -0.1625832375
 O   -3.3488913072   -2.4158720282    1.0766477355
 H    1.0664897780    1.7038565322    0.0460100540
 H   -0.5025673055    1.8340502143   -0.7946077994
 H   -0.4498289875    1.7435413857    0.9869863873
 H   -1.8433262912   -0.2284899555    0.8942634756
 H   -1.8448124576   -0.2906976233   -0.8818173789
 H   -0.5389452380   -2.4127791373   -0.8018341716
 H   -3.0404410567   -2.3839821909   -0.9004056135
 H   -1.8986213640   -4.7509645081    0.6894774206
 H   -3.4319270745   -4.7466911541   -0.2062804386
 H   -1.8907395524   -4.5886762021   -1.0745456221
 H   -2.9828407344   -2.8208559715    1.8730350767