21

 C   -0.0903836778    1.6089824467    0.1436070584
 C    0.0268212595    0.1002116523   -0.0470310324
 O    1.1274987050   -0.3938839887   -0.1897728623
 C   -1.2141174737   -0.7430147411   -0.0223736277
 C   -2.4571539756   -0.1656881266    0.6537295712
 C   -2.4088527055   -0.2275201099   -0.8355191760
 C   -1.0811038119   -2.2453680600    0.0342683599
 C   -0.0698534904   -3.0610716943   -0.7351719488
 C    0.0033016559   -2.9922803272    0.7719311081
 H    0.8296262491    2.0696245214   -0.2177674168
 H   -0.9509591393    2.0565923969   -0.3585790857
 H   -0.1860204715    1.8281879158    1.2135537665
 H   -3.0807530858   -0.8776962387    1.1826799296
 H   -2.3865310871    0.8021038932    1.1347253809
 H   -2.3010499625    0.6927825853   -1.3968525916
 H   -2.9868309434   -0.9901453188   -1.3454738014
 H   -2.0618532236   -2.7117398722    0.1011781901
 H   -0.4178632669   -3.9785862741   -1.1980198502
 H    0.6998933075   -2.5323961356   -1.2798897166
 H    0.8220031532   -2.4217790087    1.1894252340
 H   -0.2920153553   -3.8612135859    1.3504620009