21

 C   -1.3522032930    0.9773162002   -0.0156995305
 C   -0.4217323316   -0.2274454133   -0.0336646168
 C    0.5625853999   -0.4442861602   -1.2463693773
 C    0.5794219490    0.5644209046   -2.3801889226
 O   -0.5887795809    0.3397931830   -3.1622291633
 C    1.7713820737   -0.4838026096   -0.2639255333
 C    2.3895206403    0.8692481646    0.1219103874
 O    1.3624986585    1.1143397125    1.1099504974
 C    0.8004196952   -0.2045796144    0.9191227493
 H   -0.7824006358    1.9095592392    0.0156334386
 H   -1.9880522396    0.9822710884   -0.9051493051
 H   -1.9952940503    0.9578664568    0.8706759881
 H   -1.0000700343   -1.1429012491    0.1304497455
 H    0.4018546494   -1.4258117599   -1.7014608168
 H    0.5968527664    1.5934499085   -1.9939612208
 H    1.4931191640    0.4242402156   -2.9823638858
 H   -0.6490231649    1.0386751393   -3.8201395148
 H    2.4401382021   -1.3410351180   -0.3303105665
 H    3.3776860561    0.7830493529    0.5934358950
 H    2.4342056365    1.6556660846   -0.6406237970
 H    0.7542515693   -0.7681470957    1.8555937493