17

 C   -0.0907683474    1.6323412300    0.5940638412
 C    0.0271882943    0.2412939908   -0.0525476368
 C    0.7872514544   -0.7777157774    0.8205109163
 C    2.1776588157   -0.4177462503    1.0431651335
 C    3.3293764957   -0.0888526579    1.2048845038
 C    4.7076430860    0.2646212937    1.4228202990
 O    5.2234460470    1.2868486302    1.0309739659
 C   -1.3499590245   -0.2826605903   -0.4118551589
 O   -1.7943530816   -1.3474008783   -0.0666134948
 H    0.9021314940    2.0503371447    0.7753278998
 H   -0.6372387389    2.3232334348   -0.0552063631
 H   -0.6197297613    1.5759615415    1.5514285740
 H    0.5620816129    0.3619520528   -1.0067575573
 H    0.2771853843   -0.8823783693    1.7865981195
 H    0.7305176511   -1.7692110082    0.3569964031
 H    5.2846864926   -0.4903572907    1.9947345940
 H   -1.9509874045    0.4145662036   -1.0394187592