21

 C   -0.2060932187    1.7101064162   -0.1485072070
 C   -0.1884153055    0.1802981059   -0.0949802165
 C    0.6978154276   -0.4603489560   -1.1921281961
 C    2.1586249505   -0.0766251336   -1.0906787488
 C    2.9980194678   -0.4485026062   -0.1037338553
 C    2.7522554326   -1.4175591657    0.9368132942
 C    1.8878054722   -2.4620434075    0.8673182882
 C    1.0501447263   -2.7992999451   -0.2582261187
 C    0.5916062628   -1.9687274050   -1.2153345065
 H    0.7953455969    2.1249284844    0.0025908109
 H   -0.5747008334    2.0710598729   -1.1160199264
 H   -0.8572416865    2.1219356890    0.6287748011
 H    0.1571838265   -0.1565116640    0.8870093549
 H   -1.2072446724   -0.2079744374   -0.2171234278
 H    0.3262631977   -0.0869821830   -2.1538477165
 H    2.5464615279    0.5796906310   -1.8661846721
 H    3.9902192179   -0.0002453513   -0.0971896059
 H    3.4036755683   -1.3631554551    1.8059779523
 H    1.9006237929   -3.1780979746    1.6857897089
 H    0.7935581918   -3.8535283770   -0.3479869151
 H    0.0649493570   -2.4067072077   -2.0602456177