18

 C    0.2953759301    1.6251457358   -0.0021563930
 C    0.0567648897    0.1289798255    0.0594210126
 N    0.8900300768   -0.6864970244   -0.8847744631
 C    1.2696265120   -1.6422134846    0.1999184598
 C    2.6113145518   -1.2210368548    0.8422259165
 O    1.9439777934   -0.2392477079    1.6731276723
 C    0.6418613939   -0.6686292939    1.2487653305
 C    0.9494826608   -3.0291991473    0.0122723563
 C    0.6812717791   -4.1887793874   -0.1648448279
 H    1.3450650832    1.8454623959    0.2042045495
 H    0.0448577682    2.0130921020   -0.9945482547
 H   -0.3243304235    2.1481784132    0.7344329508
 H   -1.0146961723   -0.0994277479   -0.0331132499
 H    0.3555323496   -1.1295475424   -1.6235391109
 H    3.0871677826   -1.9977906521    1.4520801079
 H    3.3281781688   -0.7717011477    0.1490970569
 H   -0.0084874387   -0.9445047352    2.0811233842
 H    0.4459256943   -5.2137633968   -0.3134112679