18

 O    0.2936548976    1.1816029859    0.3026351831
 C    0.0827405593   -0.2057460275    0.2073150148
 C   -1.4025093741   -0.5425832597   -0.0322001335
 C   -1.7737448878   -2.0219528275   -0.2779899748
 N   -2.7824419487   -2.4511215019    0.7359692474
 C   -2.2438823562   -2.4488547597    2.0851541336
 C   -3.0662799421   -1.2924315799    1.6060368033
 C   -2.2560609218   -0.1173395963    1.1660075874
 O   -2.2606231419    0.9893596487    1.6595113270
 H   -0.3784078934    1.5290257638    0.9069836956
 H    0.6811577196   -0.5666222918   -0.6367800802
 H    0.4401883642   -0.7389070408    1.1063627555
 H   -1.7298280131    0.0763113753   -0.8756123862
 H   -2.2247226587   -2.1537000464   -1.2639823301
 H   -0.9070366627   -2.6889550035   -0.2207121510
 H   -2.6996405717   -3.1507549823    2.7770805800
 H   -1.1742881137   -2.3014271329    2.2249201370
 H   -4.0740165150   -1.1378649935    1.9753377911