21

 C   -0.1722052312    1.5257418430   -0.0090945776
 C    0.0759507422    0.0404222704   -0.1050781398
 C    1.3114552882   -0.5307487000   -0.8618523973
 C    1.1474453565   -1.7675559674    0.0702545969
 C    2.3132105266   -2.6680023807    0.3976018888
 C    0.5496690963   -0.7893896227    1.1265503644
 O    0.1033261394   -2.5829697262   -0.4899830867
 C   -1.1562474001   -1.9520390426   -0.4371245494
 O   -1.0921208106   -0.5658422999   -0.6855982302
 H    0.7166549893    2.0387556512    0.3696063214
 H   -0.4159016618    1.9337084859   -0.9949497666
 H   -1.0113360275    1.7352507530    0.6615483627
 H    1.1946796196   -0.7038426580   -1.9330982539
 H    2.2258402013    0.0316050327   -0.6510290429
 H    3.1580735187   -2.0807716501    0.7691346238
 H    2.0331482628   -3.4018681864    1.1597058136
 H    2.6340280987   -3.2125048938   -0.4958903482
 H    1.3484425938   -0.2646876803    1.6556510428
 H   -0.1822317408   -1.1529057198    1.8508669269
 H   -1.7806214856   -2.3976698139   -1.2166547386
 H   -1.6231619259   -2.1335423845    0.5446827800