18

 C   -0.1074905315    1.5287426316   -0.1579975414
 C    0.0087538949    0.0319760741    0.0130037382
 C    1.3176969792   -0.6774212080   -0.1807445527
 C    0.7218806476   -0.6012573837    1.2082173453
 C    1.3564024308    0.1971554228    2.2710471206
 N    2.2879269684    1.1213542912    2.0598076848
 N    2.5415235965    1.5704169676    3.3139223591
 C    1.7834416214    0.9093111128    4.2081411154
 N    1.0184107760    0.0332079779    3.5905191632
 H    0.7870423377    2.0396792392    0.2062516367
 H   -0.2384477476    1.7847121975   -1.2153411883
 H   -0.9698630450    1.9241172407    0.3903272390
 H   -0.8730867275   -0.5218232583   -0.2997211408
 H    1.3325066712   -1.6433896006   -0.6736796419
 H    2.1941263233   -0.0629599798   -0.3569707461
 H    0.2592988902   -1.4987309380    1.6023956506
 H    3.2317951446    2.2881174994    3.4598504031
 H    1.8239928198    1.0942366938    5.2712566552