19

 C   -0.9047863347    0.5643586648   -0.0705088547
 N   -0.5828836630   -0.7407471887   -0.6353335943
 C    0.5296171911   -0.9137212643   -1.1823829715
 O    1.5908733584   -0.0411453350   -1.3653876622
 C    2.4147457961   -1.0949793165   -1.9530855598
 C    1.2380189633   -2.0919397825   -1.8539704104
 N    1.4999688485   -3.3344436874   -1.1628037261
 C    1.4956151943   -3.3456184232    0.3003463186
 C    0.3816770935   -3.9705637891   -0.4654934716
 H   -0.0668809661    1.2707722414   -0.0739909119
 H   -1.7349205752    1.0041453003   -0.6346934239
 H   -1.2534873825    0.4314442024    0.9589034873
 H    2.7519150909   -0.8192645512   -2.9543674575
 H    3.2649370053   -1.3351590369   -1.3101618407
 H    0.7938262790   -2.3308390650   -2.8249040548
 H    2.2655524258   -3.9613574005    0.7556568471
 H    1.2677854949   -2.4236398722    0.8294658362
 H   -0.5685985371   -3.4436211852   -0.4507660382
 H    0.3244431575   -5.0501834911   -0.5718895514