21

 C    0.1131654313    1.4829504000   -0.0697634652
 C    0.0288213526    0.0327735854   -0.0514154550
 C   -0.0617526965   -1.1708193482   -0.0331879501
 C   -0.1530104913   -2.6185573187   -0.0150759808
 O   -1.2233065968   -3.1878186807    0.0568691128
 C    1.1813414571   -3.3500476000   -0.0669337596
 C    1.0731904211   -4.8764601587   -0.1868903532
 C    0.5612826720   -5.2968036707   -1.5717300187
 C    2.4211931320   -5.5370771030    0.1291874261
 H    1.1202577944    1.8248179004   -0.3298502927
 H   -0.5891659427    1.9055238775   -0.7962834589
 H   -0.1402186172    1.8959404999    0.9128571009
 H    1.7735502095   -2.9259780114   -0.8898543966
 H    1.7237943919   -3.0669004462    0.8471362245
 H    0.3386962832   -5.2077787936    0.5567730793
 H    0.4648871802   -6.3855026365   -1.6362545804
 H   -0.4174733266   -4.8586808318   -1.7792893877
 H    1.2570738154   -4.9794190323   -2.3585906050
 H    2.7702183246   -5.2799288455    1.1352380963
 H    2.3449875179   -6.6276600349    0.0696108628
 H    3.1942799080   -5.2213490910   -0.5820436490