17

 O    0.0221774088    1.3926787900   -0.1528284920
 C    0.0184179856   -0.0153450874    0.0130504956
 C   -1.3791916172   -0.5568409679    0.1095154416
 C   -2.3800070347   -0.0888418746    1.1848834032
 C   -3.3697600948   -1.2166987761    0.8496469925
 O   -2.5957552790   -2.4011845558    1.2158488739
 C   -1.8074944387   -2.1063453597    0.0667084144
 C   -2.9566533816   -1.4344443765   -0.6827478612
 O   -2.1696095357   -0.3266378891   -1.1121070019
 H   -0.5080083475    1.5805375607   -0.9358168992
 H    0.5496147041   -0.5190005463   -0.8092870578
 H    0.5591734931   -0.2274590042    0.9414722816
 H   -2.0253238085   -0.1768126719    2.2133561821
 H   -2.7301642300    0.9225381886    0.9762894811
 H   -4.3869092392   -1.2158125681    1.2349697529
 H   -1.1233165129   -2.8820541699   -0.2725641638
 H   -3.6409085320   -1.8602055218   -1.4136435330