20

 C    0.0389063891    1.5398520853    0.0458702593
 C   -0.0284062783    0.0480945005    0.0085308960
 C    0.8813328967   -0.9995653094   -0.5651659655
 C    0.5195337606   -1.0416097301    0.9239350565
 C   -0.7502040558   -1.9295327555    0.8304573488
 C   -1.5688222300   -2.2113201690    2.0629414420
 C   -0.4147158361   -2.9618691727   -0.2689176674
 N   -0.1980758049   -1.8056691589   -1.2146253756
 C   -1.1506087941   -0.9617845234   -0.3438947903
 H    1.0463888842    1.8749162914    0.3156180993
 H   -0.2059696627    1.9748870618   -0.9298825688
 H   -0.6563381219    1.9568325838    0.7835882715
 H    1.8883614997   -0.9295094379   -0.9574221122
 H    1.2438258240   -0.9655423669    1.7251322032
 H   -1.8201108320   -1.2851424829    2.5920097742
 H   -2.5059355561   -2.7198880205    1.8109304165
 H   -1.0203822834   -2.8519316519    2.7638656847
 H    0.4448890244   -3.6272137003   -0.1379354006
 H   -1.2882133326   -3.5363737338   -0.5953249763
 H   -2.1602988808   -0.7696090395   -0.7062171452