16

 O   -0.0882938486    1.4047049654    0.0167509257
 C   -0.0116478928   -0.0189622048   -0.0062591786
 C    0.5834029953   -0.5518484802    1.3386305377
 N   -0.5808481105   -0.6284941907    2.1910591973
 C   -1.7852817803   -0.6422713766    1.5384005959
 O   -2.8742787283   -0.7605671012    2.0504119803
 C   -1.4701418499   -0.5127899374    0.0450191844
 C    0.7523302362   -0.4823504835   -1.1641328253
 C    1.4072875796   -0.8332956922   -2.1089780384
 H    0.8003222684    1.7519616412   -0.1187884064
 H    1.0661820600   -1.5274177502    1.1939519826
 H    1.3304982190    0.1517668328    1.7199624501
 H   -0.5372972400   -0.7741584848    3.1866544822
 H   -2.1419733424    0.1890722623   -0.4483710671
 H   -1.5784181626   -1.4941261321   -0.4249117361
 H    1.9736847970   -1.1480686381   -2.9509284041