22

 C   -0.0576099449    1.5429254536   -0.0703244592
 C   -0.0160605375    0.0120325732   -0.0353107423
 C   -1.3927277935   -0.5700494971   -0.3417779932
 C    1.1816333972   -0.5451937477   -0.8727915401
 C    2.0196257117   -0.6609595457    0.4272836054
 C    0.7012612822   -0.5742848238    1.2351391430
 C    0.6730136488    0.2066609578    2.5557618393
 C    1.4613383736   -0.4502600389    3.5974848979
 N    2.0899642953   -0.9865955595    4.4056246180
 H    0.9232094622    1.9901210845    0.1222630166
 H   -0.3825433187    1.8860216509   -1.0585928599
 H   -0.7629519914    1.9472524816    0.6648372191
 H   -1.7450618582   -0.2477259551   -1.3285248048
 H   -1.3721395667   -1.6648564962   -0.3358296215
 H   -2.1377298963   -0.2445707862    0.3944603820
 H    0.9548638702   -1.5248064704   -1.3030748077
 H    1.5685713044    0.1010221915   -1.6650389739
 H    2.6290294768   -1.5560449906    0.5632460435
 H    2.6572534568    0.2138799072    0.5866579527
 H    0.3172248427   -1.5824185176    1.4225549236
 H    1.0643245380    1.2203179671    2.4169079469
 H   -0.3568051628    0.3119456516    2.9185201448