20

 C   -0.2648928495    1.6515531358    0.5108983133
 N   -0.2747641351    0.1924568704    0.4782564207
 C    0.7545289868   -0.5031205607   -0.2554004566
 C    0.7457726785   -0.5498459514    1.2490526781
 C    1.8552775320    0.1630664444    2.0094164727
 O    1.4084982648    0.7072939498    3.2351780078
 C    0.1865244716   -1.7453361537    1.9862666766
 C   -0.8698955881   -2.5889343739    1.3099994122
 O    0.5847235834   -1.9993225503    3.1085926802
 H    0.7161250321    2.1011347162    0.3020348203
 H   -0.9701848638    2.0134982552   -0.2433560794
 H   -0.5942146040    1.9881523334    1.4965342042
 H    0.4405332346   -1.3585870097   -0.8476215321
 H    1.5595393514    0.0840667610   -0.6992042305
 H    2.6795566171   -0.5495780024    2.1602654287
 H    2.2504487008    0.9936836101    1.4193781530
 H    1.1575858391   -0.0566038934    3.7711679734
 H   -0.4046862752   -3.2196410150    0.5431884458
 H   -1.3447783548   -3.2334168731    2.0501838223
 H   -1.6041949516   -1.9511499724    0.8125721694