18

 C   -0.0175860344    1.4788990669    0.1747204833
 N    0.0272755990    0.0278631164    0.1523203807
 C   -1.0510313594   -0.6138416098   -0.0339080031
 N   -2.3370318182   -0.0977530791   -0.1514228182
 C   -1.0356173759   -2.1544095831    0.0305942949
 C    0.3740310478   -2.7369267143    0.0374583018
 O   -1.6781662261   -2.5783832053    1.2274164588
 C   -1.7979098623   -2.6788237933   -1.1384857413
 N   -2.4304886493   -3.0462094093   -2.0340742403
 H    1.0015667027    1.8717163901    0.1652060972
 H   -0.5465095081    1.9065989211   -0.6928899830
 H   -0.5097226556    1.8551994611    1.0832729103
 H   -2.4071979201    0.9019829063   -0.2679616912
 H   -2.9674475068   -0.6079468449   -0.7565784517
 H    0.9253866089   -2.3026009391    0.8704854749
 H    0.3103814304   -3.8207810328    0.1545104891
 H    0.8947812433   -2.4982901806   -0.8909272020
 H   -2.4530556661   -2.0182517304    1.3604191199