19

 C   -0.1164804685    1.5251801330   -0.0343511297
 C   -0.0399139345    0.0061839619   -0.0254185142
 C    1.2240376777   -0.5886220884   -0.7074398478
 O    1.9732295349   -0.3507373803    0.5246518086
 C    0.6894359831   -0.6438450714    1.1952100125
 C    0.5896839145   -0.1428954302    2.6075010874
 C    0.5698318246   -2.1592457671    0.9188437545
 C    0.9667311492   -2.0959340537   -0.5739016818
 O    1.0431596967   -2.9698004931   -1.3905004082
 H    0.8533852394    1.9654342915    0.2102507685
 H   -0.4212217293    1.8897560472   -1.0204245903
 H   -0.8527687513    1.8846118308    0.6923835562
 H   -0.9992834296   -0.4451998481   -0.3029427510
 H    1.6788946062   -0.1999962026   -1.6165772193
 H    0.7268342955    0.9404352520    2.6540948978
 H   -0.3898555747   -0.3899485026    3.0296540434
 H    1.3567301548   -0.6134539730    3.2307449240
 H    1.2886314946   -2.7396034944    1.5034065334
 H   -0.4287476032   -2.5837853714    1.0569005960