21

 C    0.0348060066   -1.1995216062    0.0190675297
 C    0.0015508295   -0.0032639634    0.1341493469
 C   -0.0044825569    1.4501811642    0.2688750427
 C    1.3944014644    2.0585691130    0.0937459015
 C    2.0020155317    2.0790500729   -1.3450551443
 C    1.1772424310    3.3770861770   -1.5896674077
 C    1.4783463079    3.6096478829   -0.0794761299
 C    3.0053143303    3.8243429077   -0.1002175136
 C    3.4050907792    2.6547798343   -1.0673493562
 H    0.0511607065   -2.2563190025   -0.0804966610
 H   -0.7156922814    1.8742970137   -0.4484932953
 H   -0.3858706399    1.7190435884    1.2631507842
 H    2.0499902778    1.6376115263    0.8646408320
 H    1.9320683778    1.2127929751   -2.0032353312
 H    1.5757388310    4.1049658677   -2.3030616584
 H    0.1245258046    3.1968481493   -1.8088031581
 H    0.8831908086    4.2891402122    0.5332798673
 H    3.2792794882    4.8080960437   -0.4919533782
 H    3.4534425560    3.7214194064    0.8923188137
 H    4.0668386951    1.9247390474   -0.5925111537
 H    3.8954040319    3.0103175699   -1.9780413503