17

 N   -0.3493189669   -1.0542721018    0.5866373029
 C   -0.1662095270    0.0520752157    0.3053147905
 C    0.0605581745    1.4234519037   -0.0846337341
 N    0.7128373517    2.2970519569    0.9134069098
 C    1.4404086600    1.9594462545   -0.3114953673
 C    2.6848540254    1.1146909063   -0.1524420937
 C    3.8610598867    1.9666415425    0.2640400853
 C    5.2111118694    1.7516788343   -0.2662662455
 O    4.4005999684    2.8263578868   -0.7475390209
 H   -0.7374636638    1.8388540669   -0.6939474895
 H    0.3079013673    3.2280502945    0.8618996763
 H    1.5111653442    2.7259062260   -1.0810812184
 H    2.5069063084    0.3382624588    0.5989058639
 H    2.9106419782    0.6189956506   -1.1030740590
 H    3.7622768432    2.4419574113    1.2406724341
 H    6.0785979964    2.0467662568    0.3218689192
 H    5.3848372139    0.9435766362   -0.9758848735