15

 C    0.0623673562    1.5300626826    0.0032151240
 C   -0.0900404599    0.0142269510   -0.0478297919
 N    0.6422407675   -0.5455935966   -1.1725267178
 C    0.8130759635   -1.8939504221   -1.3108713426
 N    0.4666301588   -2.7400426009   -0.4160031570
 C    1.4895387152   -2.2943393239   -2.6045921807
 O    1.7370366368   -3.4371907119   -2.8834081600
 H    1.1131224700    1.8176754159    0.1060000338
 H   -0.3346446929    2.0033973281   -0.9027400302
 H   -0.4894743028    1.9371494079    0.8544930281
 H    0.3017330925   -0.4528151694    0.8607227950
 H   -1.1518194054   -0.2682595803   -0.1007548486
 H    0.7085473196    0.0192415089   -2.0050022547
 H    0.7486038379   -3.6700328866   -0.7319957027
 H    1.7505017529   -1.4597126627   -3.2959107248