12

 N   -0.0098446883   -1.0404455288    0.4331767068
 C   -0.0034489674    0.0724337746    0.1233768987
 C    0.0115233620    1.4836653420   -0.2688600969
 C    1.4008934390    2.0994248958   -0.2066136018
 C    1.5399656422    3.5393810133    0.1201459570
 N    1.9818953790    2.5077775471    1.0745239165
 H   -0.3901136216    1.5632190503   -1.2864426073
 H   -0.6753038946    2.0347049438    0.3850372410
 H    2.1181853441    1.6410353045   -0.8830586160
 H    2.3375920175    4.1257140924   -0.3258934651
 H    0.6331156584    4.1000216404    0.3351864885
 H    1.3039127797    2.4025222746    1.8258771285