17

 O   -0.0412030861    1.4045962439   -0.2114267586
 C   -0.0103116766    0.0073997109    0.0570757499
 C   -1.4489728019   -0.4816700194    0.0447581334
 N   -2.0428942893   -0.2159488605   -1.2547674542
 C   -3.3829153415   -0.5367997025   -1.4277259174
 C   -4.2101628112   -1.3169226588   -0.6725840627
 O   -5.4261394594   -1.4121971549   -1.2606354741
 N   -5.4244043645   -0.6716192550   -2.4244463778
 C   -4.2217388915   -0.1628554277   -2.5216546820
 H    0.8580231256    1.7077329818   -0.3643579777
 H    0.5634944920   -0.5302550583   -0.7113310033
 H    0.4398282176   -0.2042405883    1.0379859686
 H   -1.4599397412   -1.5623377868    0.2333207930
 H   -2.0064278117    0.0023442047    0.8650627538
 H   -1.8054961119    0.7163659063   -1.5690608791
 H   -4.0911092693   -1.8549309942    0.2526020921
 H   -3.9747435091    0.4611748089   -3.3693896939