19

 O   -0.0057599274    1.3671709657   -0.4202861801
 C    0.0494698433    0.0626850593    0.1406346061
 C   -1.3123688206   -0.5939758725    0.1613108035
 C   -1.8953938367   -1.3210178863   -1.0175143500
 O   -0.8825598513   -1.9883263144   -1.7738413173
 C   -0.5890915080   -2.8502569220   -0.6381397453
 C   -1.5757205822   -2.0894727027    0.2493284465
 C   -2.4548356495   -2.7232669665    1.2796408172
 O   -3.0674899214   -3.8720003184    0.7068916316
 H   -0.2830285671    1.2677252595   -1.3371990665
 H    0.7689755703   -0.5675189404   -0.3970085924
 H    0.4210482792    0.1950122253    1.1622443643
 H   -2.0622188931   -0.0181101075    0.7019373525
 H   -2.8300016892   -1.0862293004   -1.5143240134
 H   -0.9276846847   -3.8706962530   -0.8385908668
 H    0.4736013866   -2.8474459051   -0.3709832765
 H   -1.8548383280   -2.9987646127    2.1630888752
 H   -3.2069196750   -1.9924725564    1.6170729651
 H   -3.5088268254   -4.3586288714    1.4093110662