12

 N    0.4618139552   -1.0428437309    0.0132387795
 C    0.1935768642    0.0806358219    0.0240032807
 C   -0.1518928625    1.5380671446    0.0369524329
 O   -0.7389233076    1.8938005844    1.2583953797
 C    0.3201673665    2.3351819498    2.1202978475
 C    1.5503008668    2.4407664006    1.1893098099
 O    0.9919498857    2.3228558966   -0.1225147297
 H   -0.8493182743    1.7499333993   -0.7780079937
 H    0.0220872938    3.2967542867    2.5460008054
 H    0.4776520015    1.6152056629    2.9295674713
 H    2.0652298104    3.4007518666    1.2456528501
 H    2.2669453403    1.6316288475    1.3739852564