16

 N   -0.0450381863    1.2791214295   -0.0598907721
 C   -0.0040158980    0.0211125689   -0.0205602205
 O    1.1140905082   -0.7666917974   -0.0158267207
 C    0.6241814945   -2.1152792835    0.2135680868
 O   -0.6187181903   -2.1426407115   -0.4423375006
 C   -1.2039629283   -0.9220015414    0.0294737139
 C   -1.7061510828   -1.1257344335    1.4701080807
 C   -0.6634632062   -1.8651594918    2.2764865857
 C    0.4423573643   -2.3349625040    1.7012211786
 H    0.8959085802    1.6761251575   -0.0644536813
 H    1.3101657497   -2.8116346859   -0.2685324607
 H   -1.9944648712   -0.6160430740   -0.6543552626
 H   -1.9282399214   -0.1526538870    1.9222221107
 H   -2.6467877916   -1.6919536582    1.4584759576
 H   -0.8476852763   -2.0031750143    3.3380893919
 H    1.2238189155   -2.8442801933    2.2536213525