20

 C    0.1140785107    1.5223600643    0.0648329022
 C   -0.0269155437   -0.0104988517    0.1005169471
 C    0.7376119670   -0.6231084018    1.2900262269
 O   -1.3929154285   -0.4281639816    0.0700754428
 C   -2.2587190389    0.0374932458    1.1007842320
 C   -3.5384241337   -0.7755490152    0.9589843914
 O   -3.2991892906   -2.1554614912    1.1338387923
 C    0.5382117356   -0.5638351199   -1.1517466574
 N    1.0133719419   -0.9825907070   -2.1172674023
 H    1.1622450932    1.8017359920   -0.0666066701
 H   -0.4651477321    1.9376609325   -0.7630394672
 H   -0.2392280322    1.9571816984    1.0032244149
 H    0.4000833965   -0.1832819104    2.2315801984
 H    0.5779363280   -1.7030256607    1.3240622243
 H    1.8085766272   -0.4296646642    1.1904249972
 H   -1.8241917454   -0.1374945201    2.0934667925
 H   -2.4709954171    1.1101322139    0.9900877883
 H   -4.2500904200   -0.4687880440    1.7323999950
 H   -3.9901646976   -0.5615153175   -0.0222038953
 H   -2.6049540904   -2.3855696416    0.5053614171