17

 O    0.1355944180    1.2762082631   -0.2868926401
 C    0.0776114739   -0.0799345551    0.1352545669
 C   -1.3514105440   -0.5833213691    0.1004556321
 C   -1.9458070682   -1.1984850000   -1.1141809293
 C   -1.7125496780   -2.0951337672    0.1105324220
 C   -0.6124206083   -3.1083362700   -0.0050771717
 O    0.3004488073   -3.0445991287   -0.7924547859
 C   -2.8339192081   -2.5011829695    0.9097008784
 C   -3.7568767032   -2.8706379112    1.5868243623
 H   -0.0835832361    1.2993929071   -1.2241549487
 H    0.7304732350   -0.7237311755   -0.4632018546
 H    0.4506639493   -0.0835232348    1.1644738052
 H   -2.0282167580    0.0000131603    0.7174885918
 H   -2.9780383110   -0.9917064151   -1.3689004657
 H   -1.2827201675   -1.4201856610   -1.9448985628
 H   -0.7077193654   -3.9559105970    0.7042204488
 H   -4.5770923658   -3.1885321864    2.1817116812