20

 C   -0.3310376574    1.3495203027   -0.5100677721
 N   -0.2717365203   -0.1003141674   -0.4103702372
 C    0.6976659658   -0.7182962397   -0.9199375738
 C    0.8837291148   -2.2293826511   -0.9089062711
 C    2.1008798055   -2.4684605257   -1.7823049377
 C    2.0733316806   -1.9799827751   -3.2263777512
 C    0.8072925795   -1.6776457928   -3.9971618380
 C    2.6111476923   -1.0956752480   -2.1328770948
 O    1.7445013613   -0.1207924620   -1.5910248289
 H    0.2625314891    1.7628590217   -1.3338619355
 H   -1.3749734129    1.6547120582   -0.6328210418
 H    0.0264211533    1.7999840233    0.4245546124
 H    1.0657293419   -2.5694881846    0.1154776944
 H   -0.0302867723   -2.7203640001   -1.2529165812
 H    2.7788962412   -3.2707103193   -1.5183999986
 H    2.8604623052   -2.4237187131   -3.8323905609
 H    0.0475629476   -1.1897092390   -3.3827154678
 H    1.0213304387   -1.0133502674   -4.8408368861
 H    0.3697473593   -2.5977186730   -4.3988595396
 H    3.6483904868   -0.7862316076   -2.0913541107