15

 N    0.0475521748    1.3394752299    0.1675029526
 C    0.0226264537   -0.0331234562    0.0557872170
 N   -1.1647981880   -0.6352405580    0.1098646510
 C   -1.1479355116   -1.9728472045    0.0542695453
 C    0.0074357992   -2.7334380749   -0.0571336808
 N    0.0342856558   -4.1310595308   -0.1852813420
 C    1.1863601987   -1.9697450536   -0.1082595985
 O    2.3607682131   -2.6295220171   -0.2121795065
 N    1.2116923831   -0.6525623553   -0.0560050394
 H    0.8725379769    1.7876638248   -0.1972270554
 H   -0.8273024472    1.7928849359   -0.0427765724
 H   -2.1164986063   -2.4691666776    0.0987941654
 H   -0.7283079291   -4.5912798769    0.2939198062
 H    0.9201639113   -4.5274031876    0.0989784264
 H    3.0518355056   -1.9526788881   -0.2146047189