20

 O   -0.0020467190   -0.0233721025   -0.1871492835
 C   -0.0145538623    1.1559256883   -0.0080533869
 C   -1.1023927942    2.2223454149    0.1848981335
 N   -0.0309045402    3.1593792045    0.6063463659
 C    1.0507436356    2.2503435883    0.1509003600
 C   -0.0569589352    4.4914357686    0.0531193114
 C   -1.1449054633    5.4615117156    0.5841732816
 C   -0.0758064327    6.5884306351    0.5843944390
 C    1.0216611946    5.4896603085    0.5499269178
 H   -1.5812900752    2.4788871037   -0.7753638966
 H   -1.8810866000    2.0259002669    0.9287103452
 H    1.8573721871    2.0745137271    0.8696808764
 H    1.4922590138    2.5188526445   -0.8238951117
 H   -0.0742266580    4.4724661137   -1.0548498644
 H   -2.0451772112    5.6019802934   -0.0184161614
 H   -1.4330189946    5.1807105409    1.6010709158
 H   -0.0980028147    7.1731098663   -0.3392749574
 H   -0.0713941016    7.2780931943    1.4303895744
 H    1.3489605690    5.2168556855    1.5570974549
 H    1.8984897222    5.6532171922   -0.0807517038