20

 C    0.2221900393    1.4893237406    0.0104585177
 C   -0.0249447704   -0.0063822406   -0.0873562771
 O    0.7891770645   -0.5331428169   -1.1168083712
 C    0.6219464457   -1.9253986793   -1.3225703972
 C    1.4065460147   -2.2845742523   -2.5569109792
 O    0.9979784677   -1.5664240600   -3.6875591162
 C    2.8650855723   -2.6581401564   -2.4417259349
 C    1.8205158948   -3.6975621516   -2.8080030304
 H    1.2734723966    1.6911190408    0.2344134249
 H   -0.0282394347    1.9828749741   -0.9331124329
 H   -0.3922067054    1.9260525351    0.8033220442
 H    0.2112518708   -0.5006413863    0.8698680466
 H   -1.0870644115   -0.2122339392   -0.3017654854
 H    0.9738396378   -2.4980371288   -0.4496602003
 H   -0.4449646148   -2.1576934394   -1.4755029021
 H    1.0056323872   -0.6388499456   -3.4196455872
 H    3.5156942275   -2.3105102209   -3.2355143982
 H    3.3201846218   -2.7029551344   -1.4581054100
 H    1.5609058534   -4.4573842210   -2.0784219452
 H    1.7847034329   -4.0269950279   -3.8399778659