19

 O   -0.3696374345    1.4661299267   -0.1625983031
 C   -0.1728577069    0.0899541993   -0.2292794433
 C   -0.5337801509   -0.7841949053    0.9552783261
 C   -1.3769182524   -0.7996433720   -0.3065550989
 O   -2.5853948150   -0.0976471357   -0.3114435027
 C   -3.6552871550   -0.7630957107    0.3468046663
 C   -4.9128046641    0.0883535947    0.1886564660
 C   -5.3902421168    0.1746372459   -1.2479102517
 O   -6.5426093703    0.0800692491   -1.5841511153
 H   -1.3236369175    1.6076941208   -0.2182404873
 H    0.7030881871   -0.1720585111   -0.8151348564
 H    0.0738758407   -1.6529885228    1.1844387037
 H   -0.9474576349   -0.2669925180    1.8146909098
 H   -1.3693362468   -1.6849814516   -0.9414258754
 H   -3.8017057135   -1.7608860578   -0.0948502297
 H   -3.4193281363   -0.9062645757    1.4102818809
 H   -5.7274829303   -0.2967316097    0.8077618151
 H   -4.6808410297    1.1074062292    0.5281233544
 H   -4.5820192428    0.3392878348   -1.9930562985