21

 O    0.0383369391    1.2630363900   -0.6693224669
 C   -0.0861252991    0.0272644757    0.0062194613
 C   -1.5411659509   -0.4035169326    0.1068926494
 O   -2.0243099162   -0.5130402513   -1.2229369078
 C   -3.3955466328   -0.8053089476   -1.3149687428
 C   -4.4246266065    0.3213459719   -1.0067608412
 C   -5.2136557657   -0.1512938853   -2.2597616936
 O   -5.8594647523    0.7863944849   -3.0794486735
 C   -3.9293549141   -0.8689254039   -2.7592256128
 H   -0.4737008382    1.1650664688   -1.4806453822
 H    0.4881177490   -0.7669790649   -0.4969625801
 H    0.3312070857    0.1610960099    1.0095510133
 H   -1.6300343280   -1.3666129297    0.6356323764
 H   -2.1176457162    0.3510834958    0.6629425342
 H   -3.6237712939   -1.7207306098   -0.7495385972
 H   -4.9358869564    0.3354538861   -0.0422889530
 H   -3.9628937681    1.2986260826   -1.1886725130
 H   -5.9857886982   -0.8756254032   -1.9852900499
 H   -5.2115669387    1.4478303898   -3.3444583405
 H   -3.3358462928   -0.2004937588   -3.3927859602
 H   -4.0199684056   -1.8411489483   -3.2467513899