15

 O   -0.0701391917   -0.0886698071   -0.0017127794
 C   -0.0555556363    1.1182490340    0.0076344335
 N    1.1249171309    1.8654722931    0.0006194560
 C    2.3643711365    1.2041842790   -0.0181897865
 C    3.5209682517    1.8568182243   -0.0256872395
 C    3.5862539227    3.3516452290   -0.0145443763
 N    2.2450931860    3.9214473949    0.0050614439
 C    1.0443580040    3.2817212229    0.0127140773
 O   -0.0202641639    3.8649892681    0.0287173043
 H   -0.9408338307    1.7653113990    0.0225007062
 H    2.2658550611    0.1269791263   -0.0256668057
 H    4.4540258936    1.3084430371   -0.0402922656
 H    4.1521680261    3.7035444961    0.8618597794
 H    4.1324671264    3.7175356738   -0.8977011382
 H    2.1480155437    4.9249657696    0.0137249205