14

 C    0.0632357120    1.5131802935    0.0076639894
 C    0.0326028855   -0.0017534624    0.0020188897
 O    1.0496695424   -0.6765263214   -0.0092061341
 C   -1.2758185655   -0.6524612164    0.0098137727
 C   -2.5929538329   -0.2308946028    0.0219275653
 N   -3.4462350822   -1.2963114338    0.0245925108
 C   -2.6629372724   -2.3633563789    0.0141387599
 N   -1.3548231472   -2.0305960472    0.0050259360
 H    1.0998656904    1.8507786938   -0.0013643533
 H   -0.4614611616    1.9111627868   -0.8672866587
 H   -0.4435496657    1.9039105329    0.8963557000
 H   -2.9627855074    0.7837792207    0.0288542971
 H   -3.0030884270   -3.3882587939    0.0128329209
 H   -0.5399062285   -2.6247315710   -0.0037960659