16

 C   -0.4840107881    1.3213190046    0.1158386875
 N   -0.0778354201   -0.0655509469   -0.0012991543
 C    0.8453387548   -0.5774877798   -0.8626048759
 N    0.9904902624   -1.8763105993   -0.7257376254
 C    0.1175669746   -2.2278719421    0.2753339221
 C    0.0087093324   -3.6632729697    0.7113668699
 C   -0.9652657199   -3.8581517320    1.7836404913
 N   -1.7384743122   -3.9954254602    2.6310063441
 C   -0.5537290930   -1.1262100021    0.7385484443
 H   -0.2817736669    1.7025237086    1.1210758711
 H    0.0807574694    1.9169807376   -0.6035575746
 H   -1.5511005889    1.4342962738   -0.0972114277
 H    1.3765437678    0.0495068844   -1.5640427096
 H   -0.2724422669   -4.2962811231   -0.1392234866
 H    0.9849669256   -4.0300453962    1.0514363972
 H   -1.3029290709   -1.0031732976    1.5028570766