15

 O   -0.0787577732    1.2859482496   -0.0023641069
 N    0.0135112411   -0.0968504224   -0.0040114317
 C   -1.1213619864   -0.6684182782    0.0211138654
 C   -1.3380286571   -2.1626279170    0.0248167881
 C   -2.4503704751   -2.3293096463   -1.0538333758
 C   -3.2574879494   -1.5673410892    0.0376626921
 N   -2.4072703390   -2.2344901320    1.1093503651
 C   -2.5656844609   -0.1911592522    0.0302404409
 O   -3.0402889395    0.9088296649    0.0136332189
 H    0.8470022282    1.5553607358   -0.0153966223
 H   -0.4614829682   -2.8014256979    0.1036844540
 H   -2.3115900436   -1.8783256671   -2.0420902615
 H   -2.7807934519   -3.3675400503   -1.1475469898
 H   -4.3409971334   -1.5776336576    0.1306584194
 H   -2.7140968418   -3.2082337401    1.1612874742