19

 C   -0.0393909702    1.5636947475   -0.1444083637
 C    0.0287066987    0.0935201287    0.2623522579
 N   -1.2893437470   -0.5225401644    0.1194231453
 C   -1.6183138924   -1.1702505659   -1.1288278847
 C   -1.4140715892   -1.9932126900    0.1190188334
 C   -0.2373552749   -2.9364052538    0.2412389345
 C   -2.6611185526   -2.4291720314    0.8240266293
 O   -2.8179998282   -3.5134273223    1.3267976016
 H    0.9323340707    2.0461327938   -0.0021046919
 H   -0.3167362884    1.6652214780   -1.1987009558
 H   -0.7850450094    2.0941615595    0.4538552831
 H    0.8026033733   -0.4180350211   -0.3314935009
 H    0.3215614815    0.0095271715    1.3150494203
 H   -2.6142777107   -0.9871508344   -1.5260596276
 H   -0.8384047394   -1.2758574828   -1.8832893560
 H    0.5836971926   -2.6646531864   -0.4239251030
 H    0.1387032705   -2.9613848259    1.2690050859
 H   -0.5631973585   -3.9498688855   -0.0057495141
 H   -3.4499485665   -1.6450830052    0.8454354864