16

 N   -0.0173295971    1.4826719979    0.1108358081
 C    0.0320464383    0.0685516102   -0.0390664856
 C    1.2123987454   -0.6350408906    0.6894745772
 N    0.9657519753   -2.0930329245    0.6760988123
 C    1.5592190931   -1.4413504398   -0.5110732978
 C    0.3864385768   -0.8047742958   -1.3182398034
 N   -0.9384495296   -1.4012435181   -1.2043998310
 C   -1.3004805074   -0.7425856724   -0.0317849733
 O   -2.2801265688   -0.8007511379    0.6552071506
 H    0.8758046954    1.9181616921   -0.0963981247
 H   -0.7221645204    1.9021929529   -0.4856934574
 H    1.8344286237   -0.1737195850    1.4472972424
 H    1.7230370067   -2.5341580350    1.1963605688
 H    2.5253082266   -1.7435746950   -0.8958939799
 H    0.6391150986   -0.3652092472   -2.2833524233
 H   -1.2313960067   -2.3329102518   -1.4654180629