24

 C   -0.7346015205    1.5291099513    0.7390506850
 C   -0.0950813954    0.2632378675    0.1517130406
 C    0.8616867336   -0.4456153606    1.1036633732
 C    2.0901360048    0.3528877756    1.5312726320
 C    3.0452714444    0.7023713588    0.3832092527
 C    0.2615491035   -1.3693163331    2.1439591882
 C    1.0616023121   -1.9471744411    0.9981155684
 C    0.4197356958   -2.8308752432   -0.0504447660
 H    0.0092464929    2.3025581063    0.9540030048
 H   -1.4596686420    1.9580021968    0.0401233312
 H   -1.2597048369    1.3056014424    1.6738456201
 H   -0.8950022315   -0.4253103259   -0.1379367019
 H    0.4277331273    0.5195075031   -0.7788180025
 H    1.7773351309    1.2737399402    2.0399182944
 H    2.6366254439   -0.2297206202    2.2831017293
 H    3.9358089248    1.2163256324    0.7586382935
 H    3.3746890280   -0.2005217641   -0.1421439606
 H    2.5743748230    1.3609630867   -0.3534383833
 H    0.6863328376   -1.3807662537    3.1429082338
 H   -0.8145224020   -1.5184599351    2.1223298537
 H    2.0660066913   -2.2717732820    1.2642784301
 H   -0.6170639944   -2.5500048945   -0.2541049302
 H    0.9667875129   -2.7933091677   -0.9996014880
 H    0.4104609656   -3.8745462398    0.2838462016