17

 O   -0.0522745111    1.3524229962    0.1615436260
 C   -0.0200951660   -0.0238169653   -0.0015671759
 C   -0.6309909118   -0.8898510294    1.0853144645
 C   -1.3385704673   -0.7694570085   -0.2299576848
 C   -2.6075907562    0.0600499847   -0.3618779832
 C   -3.7995227213   -0.6838165098    0.0320218725
 C   -4.7694176577   -1.3156955680    0.3549216139
 C    1.1658107044   -0.5065879411   -0.7337369370
 O    1.9948055475    0.2593286702   -1.1744714650
 H    0.7149216364    1.6773752161   -0.3372731238
 H   -0.1487678231   -1.8260738500    1.3457612078
 H   -1.0285180344   -0.3286886803    1.9240658067
 H   -1.2962638761   -1.6365807281   -0.8833287326
 H   -2.5086076669    0.9689333215    0.2406936654
 H   -2.7119309281    0.3992331059   -1.4002722143
 H   -5.6340305892   -1.8609755757    0.6418434426
 H    1.2459441411   -1.6045420584   -0.8675166627