18

 C    0.2661242628    1.3087992188    0.2924871996
 O   -0.0916976119   -0.0248554118   -0.0411477726
 C    0.5245255895   -0.5355081528   -1.2039890782
 C    1.9923435826   -0.6252573241   -1.0410862586
 N    3.1397230691   -0.6697373753   -0.9143226014
 C   -0.0960373909   -1.9236840620   -1.4514574566
 O    0.0134416241   -2.7276882637   -0.2884967048
 C   -1.5651947934   -1.8300082184   -1.8857813756
 O   -2.1100007253   -3.1221810067   -2.0217203229
 H    1.3390757471    1.3951415389    0.5037644479
 H    0.0023485183    2.0018387423   -0.5182701186
 H   -0.3017728407    1.5686760431    1.1871814916
 H    0.3255454269    0.1160183879   -2.0702721122
 H    0.4736421835   -2.4361328067   -2.2331170040
 H   -0.2338664201   -2.1658124182    0.4583532158
 H   -2.1207229584   -1.2221699372   -1.1541135911
 H   -1.6429037004   -1.3374458955   -2.8619146607
 H   -1.8192199929   -3.6104906487   -1.2403793277