19

 C   -0.0637627342    1.5707328358    0.0392959257
 C    0.0385132075    0.0526327847   -0.0153650864
 O   -1.2882151552   -0.4709430225   -0.0214033827
 C    0.7776361713   -0.4303893821   -1.2714710021
 O    0.8304802824   -1.8534382846   -1.2623923545
 C    1.7396255668   -2.3547838229   -0.2920257033
 C    1.5856074282   -1.7062030618    1.0725894121
 O    2.1740263379   -0.4058630083    1.2331164729
 C    0.7477110010   -0.5056202938    1.2135277898
 H    0.9291197437    2.0198481629    0.1309356815
 H   -0.5482203607    1.9541501861   -0.8635382309
 H   -0.6653315629    1.8745483877    0.9009105710
 H   -1.2075014853   -1.3877739674   -0.3168152528
 H    0.2078629971   -0.1464257163   -2.1600741596
 H    1.7859556827    0.0005799324   -1.3283080155
 H    1.5392957642   -3.4279954452   -0.2174946455
 H    2.7773716742   -2.2223289640   -0.6367995337
 H    1.7286848605   -2.3617284252    1.9311263638
 H    0.2523353907   -0.3025654054    2.1629514602