17

 C    0.0169917117   -1.1466029874   -0.1068605143
 C    0.0178070728    0.0541272164   -0.0537411000
 C    0.0483320921    1.4864584361    0.0571132406
 C   -0.3988058426    2.2695519516    1.3231825273
 C    0.3957825966    3.4008120754    0.6623978701
 C   -0.0616434670    3.4432395429   -0.8577980055
 C    1.3889512535    3.1274407721   -1.2854099546
 C    1.3932161824    2.3589764412    0.0406339860
 O   -0.7008298151    2.1629374771   -0.9765333269
 H    0.0091463388   -2.2070858110   -0.1620652828
 H   -1.4766450811    2.3630203712    1.4728927846
 H    0.0977404635    1.9117186937    2.2283078178
 H    0.7037271293    4.3212444106    1.1531388248
 H   -0.6773630647    4.2259495774   -1.2970483539
 H    1.5219275592    2.5950015723   -2.2299184493
 H    2.0464191105    3.9997207727   -1.2294695026
 H    2.2683989603    1.9580185277    0.5468556187