21

 C   -0.7823852144    0.8450497800    0.9195592576
 C    0.0265863526    0.0541021791   -0.1127999285
 N   -0.7631579546   -0.8027386862   -1.0144710173
 C   -1.3909710232   -1.9253776635   -0.4437961798
 C   -2.6939435282   -2.1894039006   -0.0602801444
 C   -3.8579467017   -1.2470335032   -0.1274288426
 C   -2.7178733207   -3.5435770168    0.3989620318
 C   -1.4474418387   -4.0521342316    0.2968337846
 N   -0.6466391122   -3.0630921784   -0.2195369814
 H   -0.1204962343    1.4233681717    1.5733652001
 H   -1.4649191775    1.5483594089    0.4289894971
 H   -1.3776745245    0.1711170348    1.5425984621
 H    0.6098092111    0.7385556702   -0.7397767957
 H    0.7488819303   -0.5907373001    0.3997785139
 H   -1.4287409256   -0.2502878736   -1.5406305152
 H   -4.5874937433   -1.5415598234   -0.8925879097
 H   -4.3976820835   -1.2033227651    0.8255759829
 H   -3.5346357277   -0.2274415810   -0.3613940360
 H   -3.5807580017   -4.0715012315    0.7777064911
 H   -1.0452796811   -5.0193382882    0.5510708317
 H    0.3129040889   -3.1614611414   -0.5013686724