16

 C   -0.3920964015    1.0508822842   -0.1951855438
 C    1.0670441356    1.0660497099    0.2189763508
 C    0.3645362123   -0.2286732954   -0.0104198179
 O    0.1224024813   -0.9916306905    1.1614866752
 C   -0.8706415162   -1.8753089260    1.1215034937
 C   -1.3403950616   -2.7039998299    2.0997769545
 C   -2.3789537254   -3.3984721320    1.4347164608
 N   -2.5326072931   -3.0373313711    0.1832342051
 O   -1.5466556781   -2.0428051953   -0.0190984686
 H   -1.1237324981    1.3031559060    0.5634648636
 H   -0.6617801604    1.3411119295   -1.2040205140
 H    1.8191048382    1.3725331395   -0.4985888644
 H    1.2856477747    1.3240480837    1.2486928573
 H    0.6078421752   -0.8389032244   -0.8733026527
 H   -0.9941543171   -2.7929798392    3.1138391314
 H   -3.0332114057   -4.1629459089    1.8315996689