25

 C    0.1154973385    1.3009100834   -0.0527932899
 O   -0.0874638902   -0.0913022556   -0.1222767355
 C   -1.4339604673   -0.5798265617    0.0365100417
 C   -2.0736717182   -0.0588782258    1.3251552460
 C   -2.2635509614   -0.2761371330   -1.2354305998
 C   -1.8339996210   -1.3658618979   -2.2223599140
 C   -1.8077152162   -2.6342072935   -1.3486462923
 C   -1.0143924651   -3.8007075419   -1.9352974370
 C   -1.2766523403   -2.1278227765    0.0182495620
 H    1.1638407678    1.4743507862   -0.3111706539
 H   -0.5084494749    1.8641156233   -0.7620485146
 H   -0.0617795446    1.7049612407    0.9538632086
 H   -2.2671382633    1.0177558184    1.2860086420
 H   -3.0320699757   -0.5584948051    1.4948046649
 H   -1.4260828004   -0.2607887059    2.1846557688
 H   -3.3311630037   -0.3799522976   -1.0035802198
 H   -2.1147701371    0.7428147793   -1.6029814413
 H   -2.4950414781   -1.4571664990   -3.0895958118
 H   -0.8247416905   -1.1483042992   -2.5919438536
 H   -2.8482513896   -2.9613304539   -1.2135241008
 H    0.0327594410   -3.5185669486   -2.0947375753
 H   -1.0263786599   -4.6693303693   -1.2678239867
 H   -1.4262855694   -4.1182921397   -2.8995878623
 H   -0.2127047898   -2.3520220048    0.1342881412
 H   -1.8014280206   -2.5953902823    0.8563010532