17

 C    0.0085725902    1.5307905710    0.0319557622
 C    0.0244786433    0.0311426583    0.0179773758
 C   -0.8584846195   -0.8366078092    0.8343887155
 C    0.6511355956   -0.9437565940    1.0602077945
 C    1.2594607457   -1.7280715388   -0.0480696406
 O    2.0852762611   -2.5888415447   -0.1170129034
 C    0.5993604687   -0.8106879357   -1.1527629333
 C   -0.3068343861   -1.3822786756   -2.1236198443
 C   -1.0728992140   -1.8779834381   -2.9074621766
 H    0.9846957791    1.9439033253   -0.2441573985
 H   -0.7310510959    1.9167471486   -0.6786497046
 H   -0.2536516829    1.9119384129    1.0237928377
 H   -1.3788007912   -0.3500053130    1.6536557364
 H   -1.4043213347   -1.6592437850    0.3830191143
 H    1.0905688211   -0.7527967209    2.0316703043
 H    1.4224337231   -0.2813190701   -1.6488627865
 H   -1.7408728935   -2.3151006111   -3.6077258228