19

 C    0.0152832227    1.5482711515    0.2295974835
 C   -0.0234024981    0.0560694994   -0.1456525161
 C   -1.3958584296   -0.5414301971   -0.0933649374
 C   -2.1049231223   -1.0965162052   -1.0729490141
 C   -3.4451139202   -1.5830892468   -0.6047117296
 N   -3.3693250501   -1.4186246143    0.8560176793
 C   -2.2212181133   -0.5736955702    1.1918999039
 C   -1.4572646811   -1.1188388364    2.3359797834
 N   -0.8437806315   -1.5150214764    3.2317046760
 H    1.0351215484    1.9353289960    0.1514863831
 H   -0.6248904499    2.1388657394   -0.4333260630
 H   -0.3192271690    1.7113573903    1.2589123515
 H    0.3825597850   -0.0831157304   -1.1529229639
 H    0.6341264317   -0.4961213204    0.5386790453
 H   -1.7747055764   -1.1954311844   -2.1002439123
 H   -4.2622397404   -0.9990539576   -1.0610631291
 H   -3.6245995197   -2.6340170280   -0.8731880344
 H   -4.2279505979   -1.0814344157    1.2665762721
 H   -2.5060309885    0.4532185962    1.4804268517