19

 O    0.0183877144    1.3534687368    0.0989309633
 C    0.0651506455   -0.0193798706   -0.0021600788
 C   -0.9527821498   -0.8658203951    0.7688996298
 C   -1.0697280870   -2.2077447879    0.0480221877
 C    0.4573980406   -2.0637471471   -0.2240178282
 C    0.5382387512   -1.0552484803    0.9981904823
 C    0.5363243069   -0.8522121431   -1.1711111071
 C    0.2649223112   -0.7387107613   -2.6352338492
 C    1.6648390497   -0.4977764231   -2.0858625741
 H    0.9232071454    1.6852226857    0.0779328041
 H   -1.6607121551   -0.3792125109    1.4279012361
 H   -1.2845732954   -3.0184385720    0.7501558735
 H   -1.7264716691   -2.2862745615   -0.8258552832
 H    1.0970609565   -2.9299846842   -0.3807163191
 H    1.1526900532   -0.9983829045    1.8845556157
 H    0.0949226807   -1.6475969190   -3.2043866026
 H   -0.2932353103    0.1222334864   -2.9892756389
 H    2.0342645207    0.5242240516   -2.0847574433
 H    2.4280777005   -1.2426944699   -2.2881690979