17

 O   -0.0393157661    1.4326825035   -0.1190297524
 C    1.2598841679    0.8209803528   -0.0169708831
 C    0.0504821131   -0.0015970979   -0.0335093685
 C    0.1888230415   -0.7200135268   -1.3758148809
 C    1.7248386901   -1.1348646641   -1.4248156649
 C    1.9558633139   -1.4449036691   -2.8993863551
 C    1.2974331050   -0.4642995333   -3.5207133508
 C    0.7147898368    0.3694685556   -2.3832251270
 C    1.9022594367    0.4453643269   -1.3523817521
 H    1.8370205602    1.0630200593    0.8690431359
 H   -0.4031214809   -0.4605984404    0.8384139153
 H   -0.5805850367   -1.4271813216   -1.6876450749
 H    2.1563489909   -1.7846562189   -0.6616674604
 H    2.5233018225   -2.2711005744   -3.3033057635
 H    1.1763477687   -0.2650377831   -4.5759551281
 H    0.1194598091    1.2493578603   -2.6111560123
 H    2.8482812474    0.9049282112   -1.6407507171