17

 O    0.3099432909    1.2889204049   -0.4253546005
 C    0.1057402151   -0.0399519755   -0.0599879099
 C    0.7488140592   -0.9867145656   -1.1086411891
 O   -0.0947177343   -2.1126726480   -1.2585612416
 C   -1.4323256002   -1.6628611509   -1.0623455515
 C   -1.3328186172   -0.6981368344    0.1117623393
 C   -0.8600184726   -1.3370089804    1.4587001996
 C    0.3171495255   -0.3632637322    1.4169229656
 O    0.9521022235    0.2260651390    2.2496169350
 H    0.5248190146    1.7775713633    0.3797077279
 H    0.8172726012   -0.3982727273   -2.0362003591
 H    1.7470328361   -1.3416370314   -0.8407020774
 H   -1.8124691741   -1.1461051032   -1.9578877580
 H   -2.0519490423   -2.5436712630   -0.8731069354
 H   -2.1510857919    0.0135198670    0.2129386625
 H   -1.5093506181   -1.2490347208    2.3313649254
 H   -0.5508757053   -2.3788129616    1.3299727774