14

 N   -0.8830728481    0.6211349008    0.1169023827
 C    0.1573285228   -0.3792977047   -0.1495877014
 C    1.0876443319    0.0005938658   -1.2331004420
 N    1.7462856277    0.3567926425   -2.1126086740
 C    0.8960572159   -0.6818294881    1.1281408930
 N    2.0881842827   -1.2266905591    1.2645540970
 C    2.2211702319   -1.3139810878    2.6182426731
 N    1.1930285833   -0.8590193140    3.3166832809
 N    0.3492772014   -0.4575556721    2.3387179804
 H   -0.4591792970    1.5404213019    0.2113652646
 H   -1.5209187145    0.6737970347   -0.6708860827
 H   -0.3516794651   -1.2971878840   -0.4724490287
 H    3.0989951080   -1.7192365746    3.0982022258
 H   -0.5488694011   -0.0495678711    2.5437905615