16

 C   -0.5165252773    1.3184613751   -0.0023223349
 N    0.0028176402   -0.0440803463    0.0598322470
 C    1.3953712286   -0.2682257221   -0.2599346668
 C    0.9101790701   -0.4472895667    1.1476848135
 C    1.3525392177    0.4581246855    2.2184491025
 N    1.3131518450    0.2138961400    3.4992113450
 C    1.8427818154    1.3644242067    4.0231248326
 N    2.1888344807    2.2723435878    3.1532871006
 O    1.8656792993    1.6656598821    1.9293536170
 H    0.2156379820    2.0972528156    0.2471449073
 H   -0.8752508812    1.4918820819   -1.0211161769
 H   -1.3689209032    1.4060902488    0.6777919504
 H    1.6196838526   -1.1493035225   -0.8553689590
 H    2.0289286016    0.5964414486   -0.4509280983
 H    0.7189824300   -1.4433925111    1.5332959355
 H    1.9720282884    1.5305429767    5.0828967546