16

 O   -0.0742460711    0.0140388237    0.2121282092
 C    0.0423922399    1.1930652747    0.0098101644
 C    1.3544694661    1.9073432508   -0.0234668485
 N    2.5050362057    1.3926650024    0.1515221700
 C    3.4443819002    2.4777029969    0.0264687034
 C    4.6810281563    2.4658000809    0.8898282114
 C    4.7927573058    2.2004177647   -0.5890851694
 C    2.6180022628    3.7401957012   -0.2625973856
 O    1.2590225397    3.2455569111   -0.2683324140
 H   -0.8238990208    1.8613440483   -0.1719023005
 H    5.0290096484    3.4204660697    1.2718852534
 H    4.7937406602    1.6291231962    1.5689143118
 H    4.9813392860    1.1837781930   -0.9127996646
 H    5.2178457028    2.9727180073   -1.2225894093
 H    2.7021620415    4.5099059345    0.5112614937
 H    2.8260263465    4.1889968448   -1.2393168357