16

 O   -0.0442097510    1.4615026047    0.1508880538
 C   -0.0734453287    0.0708254477   -0.0325105464
 C   -0.4494773309   -0.7761129011    1.1494702111
 O   -0.9554896906    0.0037744307    2.2104765156
 C   -2.3660773523    0.1996497551    1.9930852413
 C   -2.6260480558    0.0967248782    0.4679661841
 O   -2.8320906211    1.3344850647   -0.1785898984
 C   -1.3968563735   -0.6810366030   -0.0203508940
 H   -0.0674999218    1.5938363671    1.1117343737
 H    0.6913096512   -0.2787956264   -0.7194305227
 H    0.0928945363   -1.6655896323    1.4527822117
 H   -2.9203497350   -0.5772117965    2.5369959656
 H   -2.6439271930    1.1816856931    2.3832131526
 H   -3.5368412012   -0.4834674887    0.2915010300
 H   -1.9637510017    1.7583857450   -0.2433680915
 H   -1.5278410310   -1.4967433081   -0.7206494064