12

 C    0.0027390515    1.5087687107    0.1209823551
 C    0.0303684345    0.0263419965   -0.0001825468
 C    0.0055794207   -0.7830798282   -1.1044637445
 O    0.0494294197   -2.0634442930   -0.6912274386
 N    0.1028021080   -2.0242353705    0.7216738806
 N    0.0904115622   -0.8180455400    1.0852127434
 C   -0.0533318228   -0.4996105055   -2.4788742443
 C   -0.1039809927   -0.2350498441   -3.6517345539
 H    0.8980162957    1.8755312307    0.6326795291
 H   -0.0458629316    1.9697084901   -0.8677308519
 H   -0.8651190842    1.8370327098    0.7014327492
 H   -0.1484438211   -0.0076342165   -4.6887470375