20

 C   -0.0604630092    1.5712597226   -0.0004008674
 C   -0.0457509148    0.0298078477   -0.0045310951
 C   -1.4849680334   -0.5221452151   -0.0219180024
 C    0.7617950283   -0.5080678872   -1.1680757140
 C    1.8093005962   -1.2247258116   -0.7770250860
 C    1.8983059591   -1.2999878948    0.7196072636
 N    0.7353899394   -0.5128104493    1.1345810262
 C    0.4515025667   -0.3384379972    2.4459466303
 O    1.1105070377   -0.7991591142    3.3591244591
 H    0.9580876439    1.9661788142    0.0317190495
 H   -0.5500462465    1.9489805240   -0.9039721514
 H   -0.6108992290    1.9583018573    0.8627601085
 H   -2.0064402924   -0.1940573486   -0.9270287204
 H   -1.4788443971   -1.6148822248   -0.0034348249
 H   -2.0562459044   -0.1628801776    0.8396834347
 H    0.4696411837   -0.2990823201   -2.1902073599
 H    2.5301554757   -1.7086773701   -1.4237204795
 H    1.8395059157   -2.3262981520    1.1066031848
 H    2.8279710820   -0.8736743380    1.1203352400
 H   -0.4548982116    0.2755710747    2.6127032142