17

 C   -0.0728245268    1.4472966486    0.0597368952
 C   -0.0039421590   -0.0039410918    0.0067461955
 C    0.0709056796   -1.2088009847   -0.0371579866
 C    0.0927585483   -2.6204682880   -0.0898432266
 C    1.1675650752   -3.4130136821   -0.2710228501
 C    0.7842868834   -4.8461191067   -0.1648520899
 O    0.2360139981   -5.1980839743    1.1317031320
 C   -0.6698563686   -4.8828046234    0.0751325661
 C   -1.1799580550   -3.4494548977    0.0944214046
 H    0.5538615113    1.8457826194    0.8657331540
 H    0.2734304693    1.8949338835   -0.8788810587
 H   -1.0980986009    1.7916122644    0.2336538672
 H    2.1792287425   -3.0644296471   -0.4309246072
 H    1.3424550669   -5.6370691266   -0.6554933487
 H   -1.3101508232   -5.6967089978   -0.2544171693
 H   -1.6865352069   -3.2059838246    1.0344826683
 H   -1.8931110644   -3.2634486710   -0.7174449459