19

 C   -0.1379245425    1.3768008683    0.2801313730
 C    1.3560844931    1.7425048707    0.0403006953
 C    1.6206624680    0.2165944366    0.1640002966
 N    0.1588593599   -0.0734198936    0.0864182648
 C   -0.2929636727   -0.6674604580   -1.1602293173
 C   -0.1813191266    0.1815006431   -2.4323542252
 O    1.1542729501    0.6005738443   -2.7617319632
 C    1.6070537926    1.8300065466   -2.3607270342
 N    1.6856864756    2.3679805664   -1.2229876203
 H   -0.4705248026    1.5747332920    1.3050434880
 H   -0.8561789728    1.8255579938   -0.4101300535
 H    1.8020435282    2.3567979729    0.8262675483
 H    2.2355069735   -0.2348670002   -0.6168183462
 H    2.0215238310   -0.0645236214    1.1447223402
 H    0.2665655565   -1.5996243516   -1.3014087937
 H   -1.3522790438   -0.9480530544   -1.0647457640
 H   -0.5142662484   -0.4176674492   -3.2866450770
 H   -0.8271264323    1.0651212673   -2.3800991672
 H    2.0049877330    2.3742000165   -3.2200678243