22

 C   -1.2326209253   -3.1062936273    2.2069306077
 N   -0.6953697647   -2.3512072782    1.0871754093
 C   -1.5222149034   -1.9215929552   -0.0386883440
 C   -0.8557486108   -2.0842800796   -1.3934491655
 C   -3.0149892789   -2.2067025983   -0.0897170004
 C   -0.9680124644   -0.9043734411    0.9490075836
 C   -1.8730471819   -0.1553259260    1.9212003125
 C    0.1851471697   -0.1096524587    0.5785802703
 C    1.1131856510    0.5996507561    0.2908225126
 H   -2.2494213498   -2.8415459266    2.5275801975
 H   -1.2323792214   -4.1678163124    1.9383099267
 H   -0.5655936381   -2.9810636231    3.0657934179
 H   -0.9875728821   -3.1104093586   -1.7554098221
 H   -1.3017504071   -1.4078428541   -2.1312422751
 H    0.2123829293   -1.8757665474   -1.3303806567
 H   -3.5215811956   -2.1218807515    0.8713002753
 H   -3.5039845501   -1.5174401690   -0.7859619459
 H   -3.1839528559   -3.2227167005   -0.4648378026
 H   -2.7600810960   -0.7196719298    2.2067631491
 H   -1.3191948776    0.0935533608    2.8318816106
 H   -2.2014171028    0.7848902222    1.4685897990
 H    1.9438866359    1.2081863884    0.0321816402