15

 C    0.0337549650    1.5573490230    0.0221106146
 C   -0.0400329330    0.0636617734    0.0145573828
 C   -1.1703732458   -0.6767474591   -0.0841395136
 O   -2.4016898275   -0.1505942235   -0.1903805788
 C   -1.1251134579   -2.1476353307   -0.0814601083
 O   -2.1907647176   -2.7525358991   -0.1741653182
 N    0.1108101183   -2.7656861163    0.0249341469
 C    1.1587767374   -2.0087664377    0.1164432889
 N    1.1466217095   -0.6560889485    0.1167211429
 H    0.6348730164    1.9343007549   -0.8144339351
 H   -0.9704962303    1.9725285955   -0.0646318651
 H    0.4819375141    1.9329143339    0.9501916453
 H   -2.9698889473   -0.9490014032   -0.2403914373
 H    2.1444688139   -2.4614869403    0.2013731459
 H    2.0174366449   -0.1533478123    0.1927624089