18

 O   -0.2015475884    1.3358597662    0.6619301291
 C   -0.0443723897    0.0915609795   -0.0115674267
 C    0.7484685474   -0.9344021512    0.8352165845
 C   -0.3204989330   -1.6144343517    1.7251887445
 N   -1.4885062015   -1.6439256386    0.8477058264
 C   -1.4632133901   -0.5116064844   -0.1179883892
 C   -1.8148312760   -1.5086911917   -1.2529942026
 C   -1.6382078952   -2.5976362204   -0.1720205860
 O   -1.5595604126   -3.7938641084   -0.1500765245
 H    0.6716983232    1.7218682872    0.7832602557
 H    0.4123955499    0.2425036800   -0.9994046309
 H    1.2026647556   -1.6855796258    0.1787874525
 H    1.5534542817   -0.4564808793    1.4014040973
 H   -0.0568335863   -2.6294294861    2.0277583039
 H   -0.5371436260   -1.0218526945    2.6189677622
 H   -2.2010577978    0.2667946425    0.0841544305
 H   -2.8130897077   -1.4140250258   -1.6844541312
 H   -1.0819529735   -1.5916302776   -2.0595392853