25

 C    0.7672020381    0.9613313487    1.1177389002
 C    0.2454347245    0.0987989301   -0.0189328372
 O   -1.1241345069   -0.1639941116    0.2054654554
 C   -1.7111650859   -0.9574241623   -0.7992035663
 C   -3.1748142115   -1.1612039940   -0.4356052279
 O   -3.7614782831   -1.9193579828   -1.4687387597
 C   -5.0727133078   -2.4050910171   -1.2030031345
 C   -6.1205893607   -1.2888312489   -1.2521589938
 C   -5.3448408782   -3.4918002686   -2.2373561895
 H    1.8291816621    1.1814280281    0.9734027546
 H    0.2193978265    1.9068346271    1.1645164025
 H    0.6456434604    0.4478248654    2.0757647510
 H    0.3800825782    0.6108191256   -0.9870706827
 H    0.8093573516   -0.8478863610   -0.0771819954
 H   -1.6419703520   -0.4695911663   -1.7852653071
 H   -1.2089934366   -1.9350322536   -0.8815473220
 H   -3.2468456367   -1.6849904959    0.5312308730
 H   -3.6545156422   -0.1786035297   -0.3149947368
 H   -5.0829014178   -2.8566906081   -0.1957989748
 H   -7.1200198268   -1.6958860290   -1.0681552813
 H   -5.9326794872   -0.5203727377   -0.4970621835
 H   -6.1176285247   -0.8110117832   -2.2373651747
 H   -4.5806816201   -4.2714462957   -2.1816607140
 H   -6.3250497402   -3.9482198252   -2.0708123562
 H   -5.3277078230   -3.0674116443   -3.2463638191