18

 C    0.0198667252   -1.1700101389   -0.5346085462
 C   -0.0075955186   -0.0331687737   -0.1463380212
 C   -0.0061427960    1.3437422147    0.3362898517
 C    1.3782205087    1.9730418492    0.3048967500
 N    1.7716327246    2.6271038137   -0.9571531092
 C    1.5766804432    3.4347799006    0.2354748944
 C    0.6044172525    4.6039704064    0.3630441663
 O    1.5829505028    5.3472785263    1.1268752661
 C    2.5784496759    4.3136527685    0.9808640430
 H    0.0303511289   -2.1720588375   -0.8853100683
 H   -0.6810123015    1.9537059996   -0.2752674181
 H   -0.3936042430    1.3731180106    1.3635117036
 H    2.1408267930    1.4042265351    0.8350814722
 H    2.7603079456    2.4888562291   -1.1528384717
 H    0.3542127464    5.0944190721   -0.5857140954
 H   -0.3136293707    4.4260957734    0.9369783787
 H    2.9363384348    3.9409849637    1.9491842065
 H    3.4384046482    4.6492347572    0.3835895576