23

 C   -0.5749800193    1.3594445732   -0.0671955593
 C    0.1675273292    0.0394309396   -0.0453360144
 O    1.4550356077    0.1202790685   -0.7099487668
 C    2.0998766782   -0.5192590019    0.3884594441
 C    3.1087075295   -1.6009209172    0.1713220720
 C    3.5273959013   -0.2390864677    0.7151595746
 C    0.8346254995   -0.5044406025    1.2619753095
 C    0.9046694168    0.4762713999    2.4320645248
 C    0.3195908067   -1.8681690116    1.7140415047
 H    0.0086849258    2.1611776825    0.3913880491
 H   -0.7852995771    1.6442883539   -1.1031327729
 H   -1.5319707332    1.2738641114    0.4591967575
 H   -0.4501856092   -0.7350932161   -0.5235705980
 H    3.1226689649   -2.4521884180    0.8447074912
 H    3.3694178332   -1.8296337502   -0.8565865656
 H    4.0625712872    0.4249660609    0.0444725407
 H    3.8243299643   -0.1664619881    1.7567342210
 H    1.3222775880    1.4404330100    2.1314602662
 H   -0.0868862250    0.6507921342    2.8640900117
 H    1.5429061297    0.0743935698    3.2269306351
 H    0.9562325348   -2.2923054122    2.4988675190
 H   -0.6936579952   -1.7849082031    2.1240799836
 H    0.2922381222   -2.5790791854    0.8829584825