25

 C    0.1869655745    1.6442067978    0.0431612045
 C   -0.0131201119    0.1216998908    0.0121963193
 C    0.5355163875   -0.4686924148   -1.3012335678
 C   -0.0027233864   -1.8477855540   -1.7275166430
 C   -0.1441277100   -2.9392822741   -0.6373353824
 C   -0.0259686341   -4.3339127624   -1.2674153019
 C    0.8226705262   -2.7901555789    0.5493253114
 O    0.3729255770   -1.8487062496    1.5073340835
 C    0.6690303761   -0.4945630029    1.2467276314
 H    1.2502539166    1.9034834642   -0.0304333354
 H   -0.3273383011    2.1242770083   -0.7950095982
 H   -0.1981989881    2.0824890599    0.9697814501
 H   -1.0888985573   -0.0888322238    0.0858217501
 H    0.3311844566    0.2311122553   -2.1208958685
 H    1.6307033279   -0.5084879714   -1.2213179173
 H   -0.9832315476   -1.7182231526   -2.2026665555
 H    0.6569480499   -2.2251120561   -2.5201120143
 H   -1.1421704536   -2.8542582449   -0.1895411503
 H    0.9889310201   -4.5107574242   -1.6442902387
 H   -0.2578316920   -5.1229400961   -0.5444672536
 H   -0.7120593032   -4.4419994246   -2.1138508658
 H    0.8773968990   -3.7437074597    1.0867939941
 H    1.8435189073   -2.5479773403    0.2100143335
 H    1.7614273795   -0.3537791029    1.1511275182
 H    0.3489272971    0.0412986370    2.1470830165