19

 C   -0.0050889857    1.5707505085   -0.0942396498
 C    0.0479213995    0.0669795437    0.1662343199
 N   -1.2727863169   -0.5406198440    0.0587468227
 C   -1.8910241612   -0.7193314749   -1.2732810884
 C   -1.0654596303   -1.7642616401   -2.0911414240
 N   -1.9698984354   -2.9205612403   -1.7781213538
 C   -0.7033110795   -2.7104228327   -1.0016112295
 C   -1.3991863426   -2.0023121582    0.2068144383
 C   -2.6214885442   -1.9870198926   -0.7513551002
 H    0.9844855147    2.0195632468    0.0332486350
 H   -0.3364997919    1.7854884542   -1.1158190092
 H   -0.7007100324    2.0574580723    0.5952949860
 H    0.7692296829   -0.4084473522   -0.5224753063
 H    0.4111805919   -0.1214967423    1.1841584271
 H   -2.3385881741    0.1399365865   -1.7685133652
 H   -0.5556824206   -1.6813311300   -3.0427058901
 H    0.1115905020   -3.4224436712   -1.0370588980
 H   -1.3437592727   -2.4335380810    1.2051618017
 H   -3.6701519934   -2.0795793923   -0.4839406460