18

 C   -0.0207836112    1.4632501066    0.0299818148
 C    0.0001826572   -0.0301986731   -0.0189338032
 C   -0.0314767137   -0.8164967725   -1.1205881238
 C    0.0073733996   -2.2000231626   -0.6867053084
 C    0.0637352380   -2.2916399367    0.6897643023
 C    0.0640043200   -0.8933425847    1.2433090800
 C    0.0985532515   -3.6660052519    1.0285848977
 C    0.0615818789   -4.3662530841   -0.1641604109
 N    0.0059825716   -3.4619701812   -1.2098705300
 H    0.8739811933    1.8670107725    0.5224060257
 H   -0.0703983589    1.8924297247   -0.9749744717
 H   -0.8821527940    1.8398765372    0.5976421321
 H   -0.0778425084   -0.4647449165   -2.1440598791
 H    0.9618927223   -0.6580231733    1.8311165317
 H   -0.7912487163   -0.6853855111    1.9008774286
 H    0.1447134137   -4.1141454765    2.0098460812
 H    0.0702716246   -5.4271240143   -0.3564356928
 H   -0.0290043180   -3.7090882125   -2.1829190341