21

 C   -0.1271926022    1.5890306473   -0.0399607007
 C    0.0118001734    0.0619849364    0.0685491199
 C    0.7801455697   -0.5203568987   -1.1282006143
 O    0.5591930553   -0.2721515061   -2.2856875698
 C    1.8841644828   -1.4336743751   -0.5943851208
 C    1.7932939766   -1.2725794357    0.9040925750
 C    2.7666973740   -1.9936004874    1.7844669800
 C    0.7828875879   -0.4635065027    1.2640226309
 C    0.3598632266   -0.0818716787    2.6497121814
 H    0.8493511704    2.0780945196    0.0392841449
 H   -0.5600846418    1.8474405346   -1.0098717413
 H   -0.7733829570    1.9884662023    0.7466817122
 H   -1.0030301997   -0.3677863457    0.0481624739
 H    1.7130387200   -2.4672296869   -0.9287113330
 H    2.8561149345   -1.1423133079   -1.0151766608
 H    3.7982059463   -1.7042547569    1.5448544078
 H    2.6031379522   -1.7993181691    2.8464382118
 H    2.7072899121   -3.0785783782    1.6275091290
 H    0.9682521608   -0.5569783647    3.4220340704
 H    0.4190014827    1.0031698441    2.7995920975
 H   -0.6868506944   -0.3617775504    2.8284545460