21

 C    0.2474788690    1.4888682016    0.0586619583
 O    0.0160624406    0.1049886687   -0.1202190479
 C    0.7422870461   -0.4830622803   -1.1919443994
 C    2.1650863000   -0.8163598439   -0.7196688172
 O    2.1494713129   -1.7131887890    0.3679799104
 C    0.0297985129   -1.7419100664   -1.6688473357
 O   -0.6723354610   -2.5383677143   -0.7215873142
 C   -1.4221284420   -1.9567746444   -1.7995589040
 C   -2.5102704233   -0.9696498206   -1.4643285044
 H    1.2905408861    1.7125877044    0.3199327026
 H   -0.0143206530    2.0580431480   -0.8455367749
 H   -0.3944224837    1.8136129854    0.8807633845
 H    0.8032525103    0.2177164089   -2.0424629618
 H    2.7255361898   -1.2898276072   -1.5344413344
 H    2.6939773390    0.1178870402   -0.4679386179
 H    1.3874731955   -1.4725645048    0.9095598623
 H    0.6675917170   -2.3175746725   -2.3455707378
 H   -1.7116845913   -2.6944464598   -2.5530852417
 H   -2.1897791867   -0.2846766253   -0.6820117602
 H   -2.7853532678   -0.3963023883   -2.3570996722
 H   -3.4053530906   -1.5038444704   -1.1278000543