16

 N   -0.2094576324    1.3829766812   -0.0956524515
 C    0.0406925330    0.0519249659   -0.1985855053
 O    1.0958810717   -0.4276766582   -0.5620225649
 C   -1.1732249386   -0.8432544340    0.1181637963
 C   -0.8266810455   -2.3198935837    0.3123908152
 C   -1.8516475107   -2.7715991320    1.3627502578
 O   -2.2284994883   -1.5833566311    2.0923668858
 C   -1.9128865262   -0.4697385851    1.4055161405
 O   -2.2006803542    0.6324542832    1.7947253148
 H    0.5811995425    2.0009144185   -0.1923139351
 H   -0.9944738160    1.6796048791    0.4713665773
 H   -1.8936180211   -0.6962024120   -0.6973163908
 H   -0.8918912093   -2.9055422467   -0.6050570713
 H    0.1967849688   -2.4020936692    0.6843483455
 H   -2.7582750626   -3.1898019224    0.9121265726
 H   -1.4580045611   -3.4869737636    2.0867521732