16

 C    0.0899799792    1.5656286323   -0.2001942458
 C    0.0811358810    0.0363301194   -0.1951595312
 C   -1.3167594586   -0.5586748390    0.0666009211
 C   -2.2797205499   -0.1938112212   -0.9745245615
 N   -3.0185957290    0.1014260294   -1.8127689639
 C   -1.2709068412   -2.0977799042    0.2454614320
 O   -0.2253796512   -2.7005602110    0.2697740287
 C   -2.5516090732   -2.7444612590    0.4262303016
 C   -3.6259015438   -3.2623307080    0.5862682347
 H    1.1023416207    1.9383712280   -0.3783496610
 H   -0.5592510816    1.9686472959   -0.9833383228
 H   -0.2498755094    1.9702755865    0.7595612783
 H    0.4534664512   -0.3547535039   -1.1468305809
 H    0.7473090362   -0.3540997201    0.5786174507
 H   -1.7111535295   -0.1639696770    1.0155717172
 H   -4.5721399409   -3.7289790380    0.7206849327