18

 O   -0.0386411384    1.6487313028   -0.0552977634
 C    0.1615420272    0.2347105042   -0.0077586697
 C    0.9858264038   -0.2394347277   -1.2072383220
 N    0.3781390711    0.2159747067   -2.4408298599
 C    0.2796571627   -0.5559933086   -3.5541966271
 O    0.7165917110   -1.6817727273   -3.6657148757
 C    0.7892762997   -0.1845880377    1.3040377009
 C   -0.0239672129   -0.5750018951    2.4588613115
 O    0.6429058638   -1.5573779742    1.6603323703
 H    0.8153175504    2.0766847071    0.0802161902
 H   -0.8415888012   -0.1989022734   -0.0734309332
 H    2.0169067490    0.1384730304   -1.1137534735
 H    1.0399662424   -1.3301071411   -1.2353094180
 H   -0.0361166729    1.1354564010   -2.4312191738
 H   -0.2565679806   -0.0303845685   -4.3694190359
 H    1.7876600958    0.2229712986    1.4891545732
 H    0.3700568196   -0.4472643241    3.4654937791
 H   -1.1094781704   -0.5630907231    2.3755903870