18

 C   -0.1149959549    1.5390592905    0.0009390967
 C    0.0782189172    0.0281168355    0.0206769418
 C    1.1388712437   -0.5938047533   -0.9581005642
 C    2.4265033664   -0.0585018468   -0.3025930047
 C    2.2295673857   -0.0660103718    1.0149384434
 C    0.8077481706   -0.6071942384    1.2592068283
 C    0.7950247491   -2.0748667990    0.7888503817
 C    0.9914048151   -2.0668738933   -0.5295405171
 H    0.8232178774    2.0795147149    0.1443693591
 H   -0.5495569427    1.8552100245   -0.9541640412
 H   -0.8102787529    1.8446606108    0.7910045860
 H   -0.8916749167   -0.4574691424   -0.1270972490
 H    1.0223847235   -0.3903692680   -2.0230719870
 H    3.3211445344    0.2151205978   -0.8454732951
 H    2.9259251173    0.1999291117    1.7987323190
 H    0.3847651233   -0.4162758871    2.2459966854
 H    0.6851564940   -2.9263407756    1.4468497288
 H    1.0796917794   -2.9102680999   -1.2010564520