18

 C   -0.0058435757    1.4800095972    0.0528600326
 C   -0.0397969524   -0.0083756715   -0.0221815113
 C   -0.0562382323   -0.8327479190   -1.0756760680
 C    0.0063020245   -2.2501586848   -0.4936045892
 O   -0.7095903357   -2.0809464706    0.7336928473
 C    0.0261904885   -0.9504829341    1.1984634752
 C    1.4795791655   -1.5039293588    1.1901153415
 N    1.5495963851   -2.9697482685    1.3897395502
 C    1.4651241553   -2.4047106306    0.0242974499
 H    0.9028387287    1.8348733770    0.5565042720
 H   -0.0363599873    1.9336825267   -0.9414806915
 H   -0.8529447529    1.8688805600    0.6319250862
 H   -0.0355557071   -0.5771472988   -2.1266714820
 H   -0.4125118965   -3.0692045822   -1.0762605280
 H   -0.3718679123   -0.5885284937    2.1462449941
 H    2.3197575449   -0.8647261715    1.4368141309
 H    2.5207797030   -3.2202074048    1.5725585570
 H    2.2929487368   -2.4880108721   -0.6705488769