13

 O    0.0386321299   -0.0419527346   -0.0012471312
 C    0.0007260976    1.1674698435    0.0090906475
 C    1.2202583234    1.9960456256    0.0019063492
 C    1.2069280359    3.3598085796    0.0134861357
 N    2.3641760396    4.0945312227    0.0062716352
 C    3.4913141341    3.4518308362   -0.0121405359
 C    3.6482792154    1.9819986387   -0.0263043918
 O    4.7069004094    1.3882757342   -0.0434608461
 N    2.4137200562    1.3353831057   -0.0174452544
 H   -0.9503063311    1.7335424164    0.0249905357
 H    0.2716861963    3.9069793377    0.0288885237
 H    4.4185236644    4.0207066202   -0.0180738139
 H    2.3921073187    0.3203412340   -0.0256641440