25

 C    0.1377069990    1.3846984215    0.0489686467
 O   -0.0135922002   -0.0199439093    0.0173585949
 C   -1.3528032498   -0.5695208072    0.0348579798
 C   -2.1315954644   -0.0815954485    1.2668834576
 C   -2.0956746946   -0.1880414172   -1.2547215644
 C   -1.1436042072   -2.0995004801    0.0595774506
 C   -0.3460663122   -2.6722792108    1.2434746108
 C   -0.3730290463   -4.1984096264    1.2445906598
 O    1.0163714466   -2.2796526525    1.2025183210
 H    1.2118471954    1.5796902525   -0.0002605525
 H   -0.3409663342    1.8752210250   -0.8082456428
 H   -0.2541450801    1.8301208699    0.9726635878
 H   -2.3975383691    0.9760936422    1.1839183140
 H   -3.0644249589   -0.6443540936    1.3671748993
 H   -1.5512974709   -0.2175042592    2.1829817600
 H   -1.5146135564   -0.4869473294   -2.1318394094
 H   -3.0651775983   -0.6936129346   -1.2950776353
 H   -2.2874246707    0.8870988513   -1.3144105321
 H   -2.1344228503   -2.5685636256    0.0376974360
 H   -0.6272969885   -2.3894578462   -0.8637900220
 H   -0.8104638266   -2.3263977177    2.1840263824
 H    0.0149056581   -4.5889644707    0.2980321655
 H    0.2600558438   -4.5777219859    2.0514278937
 H   -1.3894686385   -4.5771808381    1.3916217275
 H    1.0223635944   -1.3623954196    0.8962570912