22

 C    0.1059148062    1.3723733928   -0.0303527985
 O   -0.0411571684   -0.0351806335    0.0518048474
 C   -1.3613038320   -0.5635967352    0.0436734836
 C   -2.1482058467   -0.1245388438    1.2919891416
 C   -2.0859785096   -0.0968469244   -1.1694100393
 N   -2.6502835882    0.2749939712   -2.1073690408
 C   -1.1738181802   -2.1091567063   -0.0234014119
 C   -2.5013933018   -2.8775979858    0.0216207052
 C   -0.3450699639   -2.5234653895   -1.2469937223
 H    1.1752938182    1.5564270522   -0.1528200544
 H   -0.4280839842    1.7882778762   -0.8943887921
 H   -0.2342008015    1.8830005241    0.8796598951
 H   -2.2176681916    0.9636094952    1.3505933353
 H   -3.1661700761   -0.5170218639    1.2765727949
 H   -1.6345270283   -0.4933474489    2.1842224362
 H   -0.5967362522   -2.3440929002    0.8797093623
 H   -3.1541579507   -2.5888723513   -0.8092477014
 H   -2.3072386129   -3.9502244745   -0.0695567282
 H   -3.0470764815   -2.7224239173    0.9557660377
 H    0.6019257226   -1.9835334013   -1.2842910774
 H   -0.1328684060   -3.5960647400   -1.2068758053
 H   -0.8911689510   -2.3260413458   -2.1758474876