15

 O    0.0608294676    1.4103670318   -0.2715031264
 C   -0.0137618365    0.0307210913    0.0159392422
 C    0.5244890870   -0.3354117666    1.4291667981
 O   -0.2530122950   -1.4455135262    1.8674695065
 C   -1.4488932826   -1.4959225189    1.1904490435
 N   -2.3618308066   -2.3332539191    1.4065361624
 C   -1.4847972806   -0.3968671373    0.1526725644
 C    0.6873960446   -0.7499138364   -1.0226963197
 N    1.2733772406   -1.3275662498   -1.8340770786
 H    0.9709873548    1.6390371812   -0.4929315352
 H    1.5777415118   -0.6220570032    1.4431888253
 H    0.3656318522    0.5320945364    2.0810534932
 H   -2.1083653046   -2.9610999500    2.1711221396
 H   -2.0410262583    0.4661524768    0.5332544335
 H   -1.9499154243   -0.7275103498   -0.7742581687