17

 C    0.0661063487    1.5059789941   -0.3266399126
 C   -0.0090717762    0.0928452039    0.2581538212
 C   -1.4057998185   -0.5015627682    0.1546682222
 N   -1.7654439786   -1.0360207736   -1.1739156032
 C   -1.6068667786   -1.9869338267   -0.0617454965
 C   -0.4893735378   -2.8973445438   -0.1282176755
 N    0.4008782595   -3.6346664624   -0.1480983202
 C   -2.4401854942    0.1556401231    0.9159151274
 C   -3.2997487572    0.7207578730    1.5389491099
 H    1.0832566052    1.8990858656   -0.2473319713
 H   -0.2149913284    1.4997333556   -1.3839803078
 H   -0.6043035289    2.1905340355    0.2016854950
 H    0.6815938518   -0.5698214723   -0.2707677597
 H    0.2887448581    0.0965633898    1.3125767839
 H   -2.7564126621   -0.8990655710   -1.3590305096
 H   -2.4989045688   -2.4185716005    0.3825293816
 H   -4.0572805139    1.2183068879    2.0933878352