15

 C   -0.0291693522    1.4891203476   -0.0271889315
 C    0.0104070218   -0.0064852990   -0.0502738888
 N    0.0172617641   -0.6506757099   -1.1712454092
 C    0.0484817057   -2.0306070757   -1.1587351451
 N    0.1311473773   -2.6244086312   -2.4187584625
 C    0.0556977333   -2.7071594500    0.0126656931
 O    0.0510758799   -2.0516141951    1.2051919532
 C    0.0364053634   -0.6822962053    1.2666071144
 O    0.0384989808   -0.1272829472    2.3361325694
 H    0.8419409036    1.8837421487    0.5067098285
 H   -0.0497200857    1.8779377095   -1.0454716932
 H   -0.9071228860    1.8390484119    0.5262930791
 H   -0.2531308238   -2.0251306137   -3.1365879477
 H   -0.2395002953   -3.5623138136   -2.4747914732
 H    0.0724368232   -3.7820580369    0.1306672136