16

 N   -0.1209974911    1.3275527628   -0.2801716383
 C   -0.1307983198   -0.0628613790   -0.1505459865
 C   -1.1524476275   -0.9357858616    0.0330219540
 C   -2.6237962887   -0.6871085985    0.0770920966
 O   -3.0087454251    0.3946327793   -0.7720067471
 N   -0.5610835764   -2.2055340787    0.2130810503
 C    0.8170644896   -2.1408316067    0.1489465528
 O    1.6335269004   -3.0317217532    0.2770400377
 N    1.0559284836   -0.7879189691   -0.1091154255
 H    0.4276898414    1.6423619817   -1.0745364966
 H   -1.0725280795    1.6658207569   -0.3794394290
 H   -3.1646451803   -1.6119100891   -0.1822041241
 H   -2.9714949395   -0.3903659497    1.0749975271
 H   -2.7265573576    0.1613107076   -1.6639391834
 H   -1.0391196133   -3.0626245775    0.4260933204
 H    1.9834472738   -0.4011693352   -0.0969364485