16

 O    0.2611021169    1.4249867766   -0.1085264314
 C    0.1214234342    0.0577961848   -0.0522212501
 C    0.4072838983   -0.9480403763    1.0898038703
 C   -1.0670383212   -0.9684735811    1.5942393902
 C   -1.1581438275   -0.8858879778    0.0621318252
 C   -1.8553527504   -0.9135758469   -1.2712807053
 C   -0.8073967143   -0.9022099152   -2.1110701575
 C    0.4375442364   -0.8950891942   -1.2130000815
 N    0.0203754694   -1.8686321695   -0.0840036685
 H    0.0891649308    1.7982364272    0.7636069146
 H    1.3198044832   -1.1194878849    1.6616216667
 H   -1.3959143665   -1.9078133701    2.0456883202
 H   -1.4181082587   -0.1055160770    2.1656895046
 H   -2.9135797624   -0.9262716468   -1.4833127367
 H   -0.8082308287   -0.9295948999   -3.1912814334
 H    1.4230471804   -1.0163339390   -1.6650969675