15

 N   -0.0214406532    1.2853703665    0.2678108841
 C    0.0438340049    0.0340020349    0.0997137120
 N    1.1482708064   -0.7717741233   -0.1645496397
 C    0.9024597482   -2.1375761427   -0.2203901409
 O    1.7277563953   -2.9806628196   -0.4621797129
 C   -0.5745923229   -2.3282679669    0.1068726259
 C   -1.1803333453   -0.9003790153    0.1078212676
 C   -2.1109150351   -0.6411282668    1.1943361163
 C   -2.8851860336   -0.4729100232    2.0964463562
 H    0.8941324157    1.7328062505    0.2015317633
 H    2.0814004138   -0.4092737700   -0.2981907402
 H   -1.0402756110   -3.0022713381   -0.6133766922
 H   -0.6505054098   -2.7946625305    1.0929393150
 H   -1.6941211791   -0.7258447662   -0.8462548261
 H   -3.5676298944   -0.3017682793    2.8918431914