20

 C    1.1178917525    0.0023087414    0.4503917404
 C    0.0332023361   -0.0734943077   -0.6257570218
 C   -1.3781644845   -0.3030430897   -0.1101346145
 C   -2.4668564197   -0.2786555133   -1.1665352328
 O   -2.4706300613    0.9388571552   -1.9088992864
 C   -3.0743910008    1.9995274137   -1.3233105062
 N   -3.0367952076    3.1257163093   -1.8899416221
 C   -1.6661042504   -1.0299908682    1.1352263238
 O   -1.7452183054    0.3981900702    1.0927376226
 H    2.0676291092    0.3144632134    0.0078511696
 H    0.8450196949    0.7265317430    1.2221707341
 H    1.2855574522   -0.9655759420    0.9335554278
 H    0.0189487591    0.8563850550   -1.2049535859
 H    0.2634040921   -0.8711995991   -1.3442165488
 H   -2.3005015576   -1.0682363467   -1.9052810819
 H   -3.4434703236   -0.4428718742   -0.6947104790
 H   -3.5600622163    1.7549261108   -0.3712316020
 H   -3.5519201252    3.8065864335   -1.3354928428
 H   -2.6178841432   -1.5472786667    1.2543235997
 H   -0.8489374606   -1.4316993078    1.7293481864