16

 O    0.0078835983   -0.0470978722   -0.0960056025
 C   -0.0348623909    1.1594090338   -0.0403131686
 C   -1.2523516798    2.0165025834   -0.0265758134
 C   -0.9329421333    3.3158694164    0.0923542897
 C    0.5522164690    3.5288134579    0.1455998112
 C    1.2448442562    3.6314869277    1.5285392042
 C    0.8893896225    2.5223843946    2.4291777652
 N    1.8928056278    2.2660643729    1.3757103111
 C    1.1600250492    2.1208154146    0.0425782148
 H   -2.2494575516    1.5967880017   -0.0824789958
 H   -1.6483476681    4.1290624515    0.1637770127
 H    0.9170264598    4.2740741825   -0.5634330002
 H    1.8181850053    4.4933382943    1.8532121597
 H    1.3400831287    2.5300778030    3.4167100093
 H   -0.0899675214    2.0561143857    2.3864991920
 H    1.8893313482    1.9329962320   -0.7453203094