17

 C   -0.1350065691    1.5235538794    0.0515868516
 C   -0.0239438330   -0.0025904230    0.0309577158
 C    0.8625857855   -0.5474562360    1.1580301470
 O    0.3304082209   -0.1719345844    2.4362033382
 C    0.1268595307   -1.3206606812    3.2529804727
 C    0.5197592365   -2.4885170693    2.3927163602
 C    0.9453577040   -2.0500114419    1.2145608158
 H    0.8461442572    1.9929917907   -0.0829156006
 H   -0.7899916012    1.8835027868   -0.7475834685
 H   -0.5399745618    1.8633533841    1.0083411855
 H   -1.0172094712   -0.4579617591    0.1235986620
 H    0.3934795174   -0.3390092019   -0.9272736646
 H    1.8675662960   -0.1001838439    1.0536743423
 H    0.7423834838   -1.2492631417    4.1647854667
 H   -0.9241197242   -1.3679116190    3.5788442552
 H    0.4576187880   -3.5172637404    2.7244633822
 H    1.3035403905   -2.6482302393    0.3861758082