17

 C    0.2981323734    1.4093914286    0.2396197352
 C   -0.0136411020   -0.0530630018   -0.1469421226
 C   -1.5256971633   -0.3645624207   -0.1054548053
 C   -2.0869190693   -0.2379264863    1.2328841589
 C   -2.5282540888   -0.1325723173    2.3461187195
 C    0.5413647955   -0.3353165584   -1.5268398384
 O   -0.1215379330   -0.4392132875   -2.5339417578
 C    2.0639210922   -0.5089537297   -1.6637735884
 O    2.8270149255   -0.5112587919   -0.7345635097
 H    1.3750434966    1.5884808963    0.2634653778
 H   -0.1599549434    2.1059722510   -0.4704822655
 H   -0.1099634290    1.6141728213    1.2321354722
 H    0.5187148091   -0.7011668561    0.5587316448
 H   -2.0478646992    0.3031233129   -0.8005323590
 H   -1.6978920676   -1.3787198113   -0.4844011957
 H   -2.9339656026   -0.0445953984    3.3233774354
 H    2.3789342959   -0.6559003206   -2.7186064515