20

 C    0.4384103089    1.5798718758    0.1188554709
 C    0.0032246783    0.1310378734   -0.1150131001
 C    0.7549254133   -0.5441759995   -1.2677916081
 O    2.1673314774   -0.5254258357   -1.0572123246
 C    0.2475027701   -1.9789764257   -1.5298628132
 C    0.8591965646   -2.5502427332   -2.8082843677
 C    2.1230893774   -3.3698202899   -2.6581607315
 O    0.3622730212   -2.3104430234   -3.8850146174
 H    1.5143671399    1.6385491786    0.3027125401
 H    0.2190516210    2.2005168108   -0.7565228262
 H   -0.0829763551    2.0142703852    0.9767865789
 H    0.1577469587   -0.4622828147    0.7991042406
 H   -1.0721658992    0.0886367730   -0.3249738776
 H    0.6064829761    0.0388703458   -2.1847065744
 H    2.3376324330   -0.9130872894   -0.1907040909
 H    0.4774587847   -2.6062968401   -0.6593428843
 H   -0.8378233527   -1.9530529203   -1.6648519343
 H    1.9431645513   -4.2395020863   -2.0155188279
 H    2.4806044401   -3.6981605222   -3.6347781029
 H    2.8799778808   -2.7508160620   -2.1641605294