19

 C   -0.1162460798    1.8173920701   -0.0029904843
 C    0.0321222381    0.2992984059    0.0646771647
 O    0.7992230394   -0.1211395509   -1.0625704371
 C    2.0184597990   -0.7390363080   -0.6240694841
 C    2.2156663601   -0.3503948134    0.8699904500
 C    0.7749495646   -0.2889113472    1.2412081462
 C   -0.0652114441   -0.9621990018    2.0152848040
 C   -1.4453194209   -0.8866104425    1.4085433254
 O   -1.2605423453   -0.2846146893    0.1247815380
 H    0.8611919212    2.3080998097    0.0117849586
 H   -0.6210390781    2.0828832352   -0.9357813291
 H   -0.7134896377    2.1833736760    0.8368642409
 H    1.9416883702   -1.8309055588   -0.7166449584
 H    2.8288364289   -0.3908441573   -1.2715245735
 H    2.7965469188   -1.0892298574    1.4249152258
 H    2.7145585222    0.6220412590    0.9508552920
 H    0.1715225407   -1.5747431734    2.8762627272
 H   -1.8812164492   -1.8873639183    1.2832149370
 H   -2.1583247281   -0.2927155478    2.0023020365