17

 C   -0.1423152606    1.5587461873    0.2039005597
 C   -0.0597948288    0.1068515920    0.1742925826
 C   -0.0037081209   -1.0960646632    0.1490161482
 C    0.1270983593   -2.5319638100    0.0892807674
 C    1.4475711308   -3.0477782038   -0.4615726256
 C    1.6673979982   -2.6228390760   -1.9040556392
 O    2.7278643591   -2.2716454602   -2.3502444364
 C   -0.6798511012   -3.3847548180    0.9862950959
 O   -1.0328509823   -3.2521901797   -0.3860491260
 H    0.7495716394    2.0127018779   -0.2407785855
 H   -1.0129133562    1.9128503313   -0.3585923360
 H   -0.2330699299    1.9314994019    1.2298703612
 H    2.2943110654   -2.7075379994    0.1406082571
 H    1.4245426602   -4.1452220001   -0.4430647089
 H    0.7587120483   -2.6822698658   -2.5422839748
 H   -0.2895119415   -4.3575466253    1.2843014867
 H   -1.3596376793   -2.9131365289    1.6929319336