18

 C    0.0389052778    1.4436045796    0.0917442548
 N   -0.1413581429    0.0153697601   -0.0819484197
 C    0.5588248370   -0.6635571324   -1.0831408224
 C    1.1828604350   -0.0207784257   -2.1563856534
 N    1.8048707880   -0.6579269399   -3.1553007034
 C    1.8637366556   -1.9872147396   -3.1312527426
 N    2.5851412557   -2.6048786549   -4.1543384387
 C    1.2816042228   -2.7345938699   -2.0926830870
 C    0.6257597021   -2.0670854583   -1.0786254557
 H    1.0927641338    1.7469231407    0.2029832339
 H   -0.3765568381    1.9880985005   -0.7634072954
 H   -0.5096030750    1.7620525398    0.9812002157
 H   -0.1725554171   -0.4925820368    0.7893229888
 H    1.1767870673    1.0626624084   -2.2277556484
 H    2.7194065287   -1.9879875564   -4.9437044750
 H    2.2425173036   -3.5132467468   -4.4316972658
 H    1.3508920414   -3.8174696487   -2.0881790598
 H    0.1581047842   -2.6252589997   -0.2717640959