14

 C    0.0141007404    1.3773606463    0.0071678450
 O   -0.0421272431   -0.0549893655    0.0037533080
 C   -1.2433134272   -0.6143433538    0.0114789385
 N   -2.3126126045    0.1354824523    0.0212892443
 C   -3.5448228956   -0.4722481693    0.0283333147
 O   -4.6187566422    0.0783476623    0.0376204150
 N   -3.4898519637   -1.9008716034    0.0236053452
 C   -2.3222902314   -2.5678211870    0.0130943454
 N   -1.1633489603   -1.9875335137    0.0065048196
 H    1.0764273415    1.6208552962   -0.0005236217
 H   -0.4839529268    1.7848045712   -0.8754639226
 H   -0.4699870474    1.7799928188    0.8997257862
 H   -4.3779254153   -2.3821443401    0.0285707382
 H   -2.3777431942   -3.6542702244    0.0101809942