18

 C    0.0131084441    1.4083262032   -0.0841034144
 C    0.0085512236   -0.1278396519    0.0705295396
 C    0.7469004648   -0.5332253144    1.2633083946
 C    1.3470370655   -0.8604369574    2.2605788575
 C    2.0265102609   -1.2309961495    3.3847965749
 N    2.6054416662   -1.5460673834    4.3418126388
 C   -1.4092307864   -0.6931509404    0.0934159529
 C   -2.1178367906   -0.9697237932   -1.2079100211
 C   -1.6724112787   -2.1130406663   -0.3287784068
 H    1.0332073061    1.7975596289   -0.1297296563
 H   -0.5112466902    1.6845157523   -1.0027480145
 H   -0.4959446903    1.8815095166    0.7603234319
 H    0.5281863307   -0.5615282772   -0.7961559724
 H   -2.0157404911   -0.3074725122    0.9080096919
 H   -3.1766111797   -0.7463561754   -1.2730920288
 H   -1.5714780424   -0.7981973003   -2.1299962072
 H   -0.8276814148   -2.7076467784   -0.6608054036
 H   -2.4254180676   -2.6767012713    0.2096835530