15

 O    0.0824589731    1.5002860560   -0.0355935830
 C    0.0664159608    0.1170596654   -0.0325339034
 C    0.0145652723   -0.6350037037    1.3359770935
 N   -1.3914482190   -0.0718200744    1.4658109188
 C   -1.3073001323   -0.6225141364    0.0513969684
 C   -0.5545104046   -1.8851112565    0.5869476382
 C    0.2786008124   -2.6949321142   -0.2781846808
 C    0.9639868536   -3.3803353337   -0.9904658347
 H   -0.5666523685    1.7619918968    0.6349010905
 H    0.7784749597   -0.2514437535   -0.7688416671
 H    0.7244841522   -0.6166337610    2.1638867488
 H   -1.9670249917   -0.6827335108    2.0521553406
 H   -2.1549283338   -0.5894253599   -0.6343057535
 H   -1.1857900014   -2.5062039806    1.2305059561
 H    1.5700653971   -3.9825068536   -1.6213731826