23

 C   -0.0992337020    1.3084003143    0.0820352121
 O   -0.1069845383   -0.0830655222   -0.1568975211
 C    0.6809183055   -0.5586305568   -1.2502766265
 C    0.2495445047    0.0397701810   -2.5800765230
 C    2.2010090569   -0.5952115608   -0.9018279829
 C    2.0526136102   -2.0620334174   -0.3943085125
 C    2.0061534164   -2.2223442191    1.1216919982
 C    0.6594939208   -2.1155024964   -1.1077945263
 O   -0.4409936443   -2.6828645499   -0.4583395411
 H    0.9203761425    1.7052426253    0.1822998596
 H   -0.6149730950    1.8673559032   -0.7096176290
 H   -0.6295168732    1.4694200326    1.0238501259
 H    0.4739235542    1.1094826729   -2.6464868244
 H    0.7773982946   -0.4559539387   -3.4000359150
 H   -0.8261402201   -0.0993924869   -2.7304754960
 H    2.8318817613   -0.5024435228   -1.7898935450
 H    2.5364331697    0.1365488407   -0.1621143282
 H    2.7840899400   -2.7593647919   -0.8137561353
 H    1.3197872081   -1.5026776608    1.5770514976
 H    1.6689494186   -3.2265209007    1.3959179009
 H    2.9984328238   -2.0632946763    1.5575504485
 H    0.7445773783   -2.5933970629   -2.0893348369
 H   -0.7631948527   -2.0045482863    0.1499323604