19

 C    0.0556824113    1.3780080100    0.1589255649
 O   -0.1213253825    0.0003240845   -0.0873358560
 C    0.6065542692   -0.5052341155   -1.1896964196
 C    2.1021265989   -0.6885089412   -0.8800226150
 C    2.7990769957   -1.4762418869   -1.9547458986
 C    2.1629333631   -2.2974325418   -2.7997447057
 C    0.7033561157   -2.5275230572   -2.7260645810
 O    0.1255045594   -3.2437792647   -3.5181200975
 C   -0.0240776762   -1.8425151233   -1.5739867776
 H    1.0759501946    1.6229004926    0.4881598014
 H   -0.1740841697    1.9812374104   -0.7330001714
 H   -0.6385171902    1.6517283149    0.9569771099
 H    0.5139706608    0.1911151946   -2.0411235515
 H    2.5993433368    0.2792785464   -0.7529538098
 H    2.1967965478   -1.2081972951    0.0849828828
 H    3.8772703479   -1.3560805728   -2.0331371489
 H    2.6887768275   -2.8443259993   -3.5758589894
 H    0.0201916862   -2.5104551610   -0.7021192017
 H   -1.0770509664   -1.7234541946   -1.8371572652