19

 C    0.3945497580    1.2394103746   -1.3776820968
 C   -0.4704071198    0.1829206601   -0.7361149353
 O   -0.8304877958    0.2544220785    0.4232745601
 C   -0.8324926125   -1.0258216562   -1.5932956693
 C    0.0501898627   -2.2226927004   -1.2423908811
 C    0.0387117304   -2.6509954217    0.2270694620
 O   -1.2412994721   -2.5607776898    0.8119663074
 C    0.4084130336   -3.1732462255   -2.3031430144
 O    1.3595181471   -2.2116329577   -1.8263471123
 H    1.2934180988    0.7616450467   -1.7855692066
 H   -0.1328190236    1.6924606062   -2.2253440698
 H    0.6643340262    2.0088288649   -0.6538920874
 H   -1.8714039922   -1.2958309191   -1.3839147994
 H   -0.7225285857   -0.8008663854   -2.6566719756
 H    0.3679561544   -3.6918334017    0.3033273326
 H    0.7765186693   -2.0363235769    0.7630026798
 H   -1.3929852633   -1.6172840920    0.9767034809
 H    0.6245666966   -4.2083593390   -2.0430934461
 H    0.0554716979   -3.0152198157   -3.3216853086