18

 C    0.0718590527    1.5693954135   -0.0358082613
 O    1.3518729679    1.5308951585    0.6258617494
 C    1.4544417443    0.1044290626    0.4376973914
 C   -0.0097552798    0.0226783669   -0.0254654153
 C   -1.0082784563   -0.5923497714    0.9422432799
 C   -2.4122986446   -0.5001743120    0.3366240372
 N   -2.4582193647   -0.9588289230   -1.0485946737
 C   -1.3763737174   -0.9703335860   -1.6994603724
 O   -0.1311343543   -0.5750604169   -1.3168456361
 H   -0.6806023155    2.1141656779    0.5465053682
 H    0.1365803393    1.9900687395   -1.0469697347
 H    2.1655526099   -0.1646934951   -0.3531747542
 H    1.7099474393   -0.4206309324    1.3649077476
 H   -0.7422454818   -1.6440774794    1.1030025216
 H   -0.9487673815   -0.0843568934    1.9097594367
 H   -3.1222960266   -1.0977209665    0.9174763141
 H   -2.7840961986    0.5334613517    0.3754187902
 H   -1.3415578822   -1.3329878244   -2.7248710187