21

 C   -0.0890334546    1.5583669313   -0.3668153489
 C    0.0083521207    0.1174854989   -0.1948428987
 C    0.1057950555   -1.0787981900   -0.0590549999
 C    0.1531971075   -2.4813642556    0.1236746704
 C    1.1644937487   -3.3063049102   -0.1931814309
 C    0.8795444235   -4.7325733157    0.1953106691
 C   -0.6472669206   -4.7319223594    0.4774173290
 C   -1.0970915432   -5.7207039758    1.5514549449
 C   -0.9821538244   -3.2505600070    0.7856316315
 H    0.7684237511    2.0731443539    0.0817693786
 H   -0.1178849413    1.8316914664   -1.4280602177
 H   -0.9964062151    1.9558711065    0.1013413333
 H    2.0989674268   -2.9849175143   -0.6383388716
 H    1.1621862705   -5.4562370658   -0.5782848224
 H    1.4521141983   -5.0097203810    1.0947367681
 H   -1.1483649407   -4.9879383659   -0.4644727552
 H   -0.6197385695   -5.4988720522    2.5130834988
 H   -2.1813462453   -5.6812428559    1.7014970964
 H   -0.8371219269   -6.7496736572    1.2801912963
 H   -0.9861859556   -3.0535527281    1.8674796384
 H   -1.9664324355   -2.9511140529    0.4114413007