22

 C    0.0443674598    1.5166083685    0.1090608960
 C   -0.0293670665    0.0265258788   -0.0073357987
 C   -0.0501486028   -0.7243586057   -1.1208903189
 C   -0.0264317538   -0.2907988127   -2.5531661581
 C   -0.0403756812   -2.1757159589   -0.7564085488
 N    1.2026436234   -2.5748166638   -0.0224647774
 C   -0.0401116318   -2.2682653130    0.7259835533
 C   -0.7270348873   -3.3569680185    1.5083836374
 C   -0.0537158468   -0.8315395729    1.2480866491
 H    0.9700206527    1.8277415062    0.6106992172
 H    0.0099264461    2.0153166454   -0.8625304364
 H   -0.7830739559    1.9057619053    0.7171415721
 H   -0.0733754165    0.7952158478   -2.6634356827
 H    0.8862003614   -0.6404550283   -3.0528924719
 H   -0.8704587210   -0.7189787054   -3.1095104480
 H   -0.5227826247   -2.9150207502   -1.3902460918
 H    1.2897359336   -3.5903082493   -0.0734440033
 H   -0.7452369693   -4.2968826636    0.9459880309
 H   -0.2138560311   -3.5459349237    2.4590330279
 H   -1.7627474804   -3.0855053527    1.7409229166
 H    0.8096580270   -0.6308461319    1.8949885649
 H   -0.9527460950   -0.6325350213    1.8498052608