17

 N    0.3177951655    1.4244767851    0.3708366899
 C    0.0656918480    0.0555150797    0.1138419832
 C   -1.0708353626   -0.6692086195   -0.2019217967
 C   -0.6725586565   -2.0315926520   -0.3512311397
 C    0.6803848664   -2.0960464661   -0.1235324867
 N    1.1179336685   -0.8259545289    0.1509497073
 C   -2.4286185613   -0.1168995237   -0.3438178585
 C   -3.3814849187   -0.5649059450   -1.3762810469
 O   -3.5318214292   -0.9815738324   -0.0213343254
 H   -0.0794984739    2.0238552737   -0.3432390877
 H   -0.0585652063    1.7235474130    1.2652519577
 H   -1.3250451311   -2.8633977875   -0.5663513619
 H    1.3599123174   -2.9327011811   -0.1256165076
 H    2.0636034847   -0.5397587603    0.3382011484
 H   -2.5504076944    0.9028333516    0.0259146522
 H   -4.1458341377    0.1188826033   -1.7464320079
 H   -3.0726805888   -1.3413983600   -2.0749083999