18

 O   -0.0875008809    1.3738803204   -0.1234501989
 C    0.0198724126   -0.0417194904    0.0084301700
 C    0.4529805946   -0.5714116864    1.3910913709
 N   -0.7505725146   -1.2974942379    1.8846596911
 C   -1.3696275399   -1.9978323630    0.6703336144
 C   -2.7589809610   -1.7493545860    1.2892097237
 C   -1.9499566599   -0.4537820820    1.4840675068
 C   -1.3969245253   -0.5933576138    0.0104778199
 O   -2.1670151985   -0.3501127846   -1.1163186075
 H    0.7872241921    1.7366323423   -0.2898546199
 H    0.6113608200   -0.4561947463   -0.8194323444
 H    1.3021879685   -1.2598419769    1.3482842378
 H    0.6954631311    0.2468946251    2.0758376402
 H   -0.9456777111   -2.9217785402    0.2706432343
 H   -3.5960400904   -1.6998310286    0.5933580037
 H   -2.9835208004   -2.3128279623    2.1956619839
 H   -2.2124230753    0.4540249788    2.0294594031
 H   -1.9920305016    0.5653495319   -1.3701027592