16

 C    0.0238953809    1.6115435765   -0.4540057655
 C   -0.0456535987    0.1458254600   -0.0764615044
 N    1.2206821581   -0.5982139068   -0.0601145995
 C    0.5269842391   -0.4108717676    1.2124473562
 C    1.1846800058    0.4935556139    2.2326745780
 N    0.8015148813    0.2311548082    3.5146951758
 O    1.9653405814    1.3767889899    1.9435741627
 C   -1.2177841034   -0.5617635411   -0.5556609180
 N   -2.1447332247   -1.1305045427   -0.9505177625
 H    0.9246649929    2.0481191776   -0.0243583807
 H    0.0529541027    1.7101637331   -1.5428340954
 H   -0.8552757546    2.1461725639   -0.0829903212
 H    1.0975936824   -1.5502698979   -0.3959235910
 H   -0.0104310231   -1.2639820465    1.6217702255
 H    0.1477610799   -0.4930120440    3.7539302740
 H    1.1736756301    0.8104670835    4.2493208557