14

 C    0.0447848621    1.4744677332    0.0820451100
 N   -0.1140507236    0.0382079496   -0.1087124562
 C    0.6759749349   -0.5268808536   -1.1998297318
 C    2.2089824385   -0.5298667654   -1.0082493169
 C    0.2077351900   -1.9009356697   -1.4573062707
 N   -0.1283703660   -2.9894418836   -1.6488986189
 H    1.0681461401    1.8091355987    0.3180775902
 H   -0.2775429723    1.9965346486   -0.8258883737
 H   -0.6100501137    1.7951741855    0.8966618650
 H    0.0797827989   -0.4634803431    0.7515290692
 H    0.4397366804    0.0607730401   -2.0972950243
 H    2.5727916504    0.4909671728   -0.8688140328
 H    2.4841374706   -1.1238388799   -0.1315244308
 H    2.7102091199   -0.9567227433   -1.8814230084