18

 C    0.0118851963    1.5716375965    0.1125549127
 N   -0.0179831641    0.1261318936    0.1250102712
 C   -1.0538870903   -0.5650772077    0.9235699789
 C   -1.5737396933   -1.8241456758    0.2102824115
 O   -0.4370730023   -2.5936241667    0.6909334180
 C    0.0218934959   -1.5104036085    1.5042981475
 C    1.0818628012   -0.5758438564    0.8467368117
 C    2.1410835070   -1.1413966606    0.0328595297
 C    3.0302613768   -1.6088926399   -0.6267975660
 H    0.8779324631    1.9111591709   -0.4644886157
 H   -0.8880023124    1.9565440804   -0.3780298902
 H    0.0750786477    2.0239707197    1.1209507455
 H   -1.7344962955    0.0648259295    1.5000992278
 H   -2.5141721061   -2.2308212058    0.6038025231
 H   -1.6070265418   -1.7648472567   -0.8814926396
 H    0.1768858672   -1.7911554379    2.5475215182
 H    1.5170164694    0.0625767189    1.6358930352
 H    3.8054985209   -2.0322041037   -1.2162434895