18

 O   -0.1461217874    1.1673733998    0.4010942838
 N   -0.0060953222   -0.1956711364    0.0701058878
 C   -1.1370031554   -0.7332848235   -0.1118770169
 C   -2.5748599808   -0.2610228459   -0.1472600173
 C   -2.9175984525   -1.6030021567   -0.8838408216
 C   -1.4866338053   -2.1397701426   -0.5440864031
 C   -4.1046466506   -2.3716061241   -0.3711764814
 C   -4.1199737329   -3.8333621857   -0.2414964804
 O   -3.9704736192   -2.9961465952    0.9090233907
 H    0.7708412495    1.4463394583    0.4945956650
 H   -3.0213104733   -0.2016032671    0.8511496577
 H   -2.7643372149    0.6761295423   -0.6751109567
 H   -3.0378801015   -1.4351708468   -1.9584695810
 H   -0.8990657571   -2.5732578183   -1.3560475898
 H   -1.5120572079   -2.8349910482    0.3013925425
 H   -5.0654994754   -1.8719106910   -0.5128065695
 H   -5.0627596594   -4.3742516515   -0.3058753080
 H   -3.2359155237   -4.4071095672   -0.5161257819