19

 C   -0.0617216009    1.5120225221   -0.0513452151
 C   -0.0553466917    0.0624876066    0.0752150464
 C   -0.0569634682   -1.1363096761    0.1767631298
 C   -0.0331383870   -2.5849011281    0.3138245364
 O   -1.2945220634   -3.1257498798   -0.0549016732
 C   -1.3296439451   -4.5386606865   -0.1139240030
 C   -1.3549008931   -5.2324670609    1.2478293469
 C   -2.5603061253   -4.8792751723   -0.9512422950
 O   -3.1139001951   -5.9465178199   -0.9355042042
 H    0.7336425931    1.8575549993   -0.7206316568
 H   -1.0150507361    1.8632745164   -0.4609326403
 H    0.0821161033    1.9990746301    0.9192049243
 H    0.7571704319   -3.0134968107   -0.3267404636
 H    0.2190654061   -2.8551231335    1.3508938666
 H   -0.4622495880   -4.9077370626   -0.6959111220
 H   -1.5771250794   -6.2923452326    1.1028446468
 H   -0.3973965456   -5.1427387006    1.7667609909
 H   -2.1374657906   -4.7958154834    1.8749252383
 H   -2.8926170948   -4.0406681176   -1.6004657031