22

 C   -0.0369954959    1.5624334889   -0.0737418019
 C    1.4559191604    2.0193217714   -0.0849175805
 C    2.2833063573    0.7115292538    0.0154022932
 C    1.3487153509   -0.3118403785   -0.6572173905
 C    0.0106947709    0.0159869989    0.0322674434
 C    0.0716525939   -0.4638878241    1.4968187288
 C    1.2061421207    0.2251828067    2.2788243624
 C    2.5212251435    0.2858169414    1.4786406655
 H   -0.6073435081    2.0123964725    0.7449977366
 H   -0.5338863448    1.8595992470   -1.0023931939
 H    1.6886644603    2.5395912969   -1.0191355788
 H    1.6878924064    2.7149979735    0.7276816565
 H    3.2454069905    0.8027450611   -0.4981911851
 H    1.2854903050   -0.1314434913   -1.7370195078
 H    1.6673938652   -1.3495242413   -0.5097869295
 H   -0.8445300633   -0.4489821168   -0.4678595775
 H   -0.8861253009   -0.2786997855    1.9981762858
 H    0.2200283414   -1.5518794425    1.5028804206
 H    0.8953058941    1.2468645447    2.5281342035
 H    1.3675397278   -0.2789087705    3.2380854168
 H    3.0072641266   -0.6988317596    1.4821859532
 H    3.2180177582    0.9773850535    1.9677285392