15

 C   -0.0494244520    1.4228919630   -0.0436949678
 N    0.1442236009   -0.0062513406    0.0185283912
 C    0.7135672297   -0.6145835477    1.0847888952
 N    1.1186419994    0.0444069919    2.1121083318
 C    0.8013109254   -2.1299099032    0.8992306336
 C    1.4170524258   -2.9469540106    2.0132659142
 O    0.3832901449   -2.6378658778   -0.1186460545
 H    0.9061706446    1.9541458051    0.0354852641
 H   -0.5233192025    1.6776819147   -0.9934888272
 H   -0.6838169267    1.7711001312    0.7796869153
 H   -0.1391837682   -0.6097496387   -0.7355249249
 H    1.5168262237   -0.5789088318    2.8091699986
 H    0.8585659366   -2.8117494757    2.9454758831
 H    1.4052909676   -3.9991855057    1.7291406800
 H    2.4478093208   -2.6286090942    2.2014136573