19

 O    0.0448608074    1.4709765020   -0.4594890533
 C    0.1411559199    0.0703495059   -0.3120649844
 C   -1.1679163631   -0.5158228595    0.2167142505
 O   -2.2222111147   -0.0718262380   -0.6594352011
 C   -2.8291098532   -1.2255434700   -1.2177405013
 O   -1.8950246035   -2.2701145828   -1.1145306246
 C   -1.2625779786   -2.0326975762    0.1237496305
 C   -0.2422121093   -3.0163698971    0.5778894259
 C   -1.5856676818   -2.9320290540    1.2861805518
 H   -0.7655075666    1.6241067511   -0.9610795689
 H    0.3919738214   -0.4275081393   -1.2621392363
 H    0.9542449136   -0.1222302924    0.3961305980
 H   -1.3692612610   -0.1412077162    1.2270976160
 H   -3.7508567995   -1.4656000416   -0.6608086465
 H   -3.0555996113   -1.0529351306   -2.2738525797
 H   -0.0685493363   -3.8699725770   -0.0673718357
 H    0.6398850024   -2.6501468621    1.0916599803
 H   -1.6182288325   -2.5042975843    2.2828179361
 H   -2.2924152732   -3.7335320381    1.1037500427