18

 O   -0.1060355814    1.3836633136    0.1161922719
 C    0.0289347542    0.0097027902    0.0776082662
 C   -0.0491441945   -0.7724158577   -1.2284102407
 C    0.7772896403   -2.0439849728   -1.3770491200
 N    0.8881106303   -2.5932599238   -0.0128033950
 C    1.8373464984   -1.7224756850    0.7735588030
 C    0.6675591625   -0.8384048993    1.2107243508
 C   -0.2925011537   -1.9713812668    0.7628223375
 C   -1.0775916284   -1.0061644337   -0.1459747423
 H    0.6717602958    1.7808417549   -0.2914375876
 H   -0.3542530993   -0.1882778785   -2.0909398219
 H    0.2502534966   -2.7531591068   -2.0281565182
 H    1.7787048003   -1.8930471583   -1.7931386217
 H    2.2777454161   -2.2957199271    1.5957166381
 H    2.6433843231   -1.2736477188    0.1819956784
 H    0.6144897463   -0.3680479259    2.1941845985
 H   -0.8033489463   -2.6551621964    1.4368990218
 H   -2.1482762602   -0.9004933577   -0.2574809489