17

 C    0.0629336301    1.5109551713   -0.0662737958
 O    1.4320257362    1.5405605316    0.3932559706
 C    1.5076278067    0.0993985712    0.4493950659
 C    0.0575980972   -0.0243905803   -0.0351957567
 C   -1.1016719896   -0.8297142275    0.6170199353
 O   -1.8207910011   -0.6722688233   -0.6524458304
 C   -0.4833213573   -0.8691510371   -1.2233069468
 C   -0.1446051483   -2.2969875624   -0.7591308860
 C   -0.5699660080   -2.2698655309    0.5067654079
 H   -0.6207406065    2.0053610841    0.6351879722
 H   -0.0521070406    1.9691118897   -1.0566068793
 H    2.2731197133   -0.3023301823   -0.2266064814
 H    1.7046860295   -0.2662525993    1.4651728652
 H   -1.6497496600   -0.5015636563    1.4995006534
 H   -0.3833561141   -0.5823354312   -2.2695327136
 H    0.3205491346   -3.0821369582   -1.3361292954
 H   -0.5575818719   -3.0261444989    1.2772484049