15

 N    0.0730362134    1.4043288909    0.0970074439
 C   -0.0316669808    0.0384493698    0.0231315612
 C   -1.1437286615   -0.7540092896   -0.0197388285
 N   -2.4697304156   -0.4068856038   -0.0775578183
 C   -0.7547068248   -2.1748736551   -0.0383030034
 O   -1.5486038142   -3.0943433089   -0.0507419774
 C    0.7665170935   -2.2572039069   -0.0161144088
 C    1.1848463186   -0.7926084879    0.0205523685
 O    2.3129737838   -0.3419314272    0.0286030225
 H    1.0239717602    1.7236273001   -0.0448719605
 H   -0.6150544873    1.9451048441   -0.4066593183
 H   -2.7521164893    0.4134064770    0.4391432034
 H   -3.0803014500   -1.2035701402    0.0598074318
 H    1.1245337536   -2.8097033149    0.8591189966
 H    1.1643458804   -2.7648567373   -0.9012610627