19

 C   -0.0056268812    1.4981853751    0.0282979765
 C   -0.0541720050    0.0047728381   -0.0166139363
 C   -0.0797130873   -0.7782631067   -1.1024957948
 C   -0.0085281474   -2.2321118669   -0.7264996703
 O    1.3702822787   -2.6951082873   -0.4687837479
 C    1.1579633357   -2.6840589403    0.9572137211
 C    1.4611672657   -1.3205051408    1.6296732681
 C    0.0092350531   -0.8262132283    1.2482255106
 C   -0.3227444927   -2.2766318683    0.7855439065
 H    0.9106977547    1.8442051968    0.5243281359
 H   -0.0364799077    1.9374005986   -0.9721464133
 H   -0.8434765965    1.9034963400    0.6096944511
 H   -0.0651045079   -0.4255695672   -2.1277260303
 H   -0.5094226157   -2.9263329317   -1.4067722281
 H    1.5248926199   -3.5959558886    1.4344630938
 H    1.5869392784   -1.4257508427    2.7117676961
 H    2.3008757706   -0.7557851452    1.2189235400
 H   -0.5588703347   -0.4060967051    2.0815315435
 H   -1.1919166006   -2.8073515295    1.1681461679