19

 C   -0.2642688105    1.4999657504   -0.1450830365
 C   -0.2120421807   -0.0061961186    0.0376064750
 O   -0.3790212166   -0.5271553914    1.1169268279
 C    0.0659369830   -0.8325611530   -1.2151803596
 C    0.1220425849   -2.3293226510   -0.9544426379
 C   -1.2171148620   -3.0537358797   -0.6080158504
 C   -0.8698760000   -4.1012043161   -1.6761970581
 O   -1.3054476866   -5.1782664352   -1.9608049138
 C    0.3147602597   -3.2630200176   -2.1915842100
 H    0.6885335235    1.8691925759   -0.5409721452
 H   -1.0359634900    1.7707706069   -0.8744817029
 H   -0.4760930073    1.9821786770    0.8097579463
 H   -0.7063882255   -0.5933795835   -1.9614479334
 H    1.0074735752   -0.4751799669   -1.6561981117
 H    0.8693141465   -2.5351303226   -0.1851943397
 H   -1.3499861552   -3.4181859371    0.4122969514
 H   -2.1092415205   -2.4789442362   -0.8841621654
 H    0.0765581246   -2.7798813858   -3.1467846623
 H    1.2676675077   -3.7874741155   -2.2996886437