18

 C   -0.5396070980    1.3736891498   -0.0285916678
 C   -0.0920001290   -0.0670560518    0.1926888117
 O    0.3080252704   -0.5655189159   -1.1065082779
 C    1.2580110899   -1.5080068219   -1.2675938286
 O    1.5817714975   -1.8419738629   -2.3768600894
 C    1.8903202958   -2.1322197007   -0.0088828784
 N    3.2080788865   -2.7078637614   -0.2549500116
 C    1.9181040527   -1.1472916704    1.1264945744
 C    0.9949741900   -0.1987759123    1.2213807140
 H    0.3064427584    1.9933312861   -0.3387482151
 H   -1.3077770800    1.4168282602   -0.8037944574
 H   -0.9535263455    1.7831069141    0.8977879799
 H   -0.9635132459   -0.6643242690    0.5023136643
 H    1.2218901529   -2.9638290253    0.2715883901
 H    3.1482212531   -3.2680612333   -1.1020968635
 H    3.8524302077   -1.9551013884   -0.4884146747
 H    2.7090434323   -1.2700062561    1.8597228069
 H    0.9742659515    0.5030589391    2.0492031630