23

 C    0.7033723633   -0.9669570575   -1.4222932666
 C    0.2720379122   -0.0946264244   -0.2402739315
 C   -1.2513941122   -0.0323140292   -0.0169895490
 C   -1.8182480551   -1.3846202863    0.4979338083
 C   -3.1832351226   -1.7752175514   -0.0814281344
 N   -1.5069419880    1.1440858772    0.8304737086
 C   -2.8728943753    1.5915725353    1.0234356603
 C   -3.6746565802    0.8535734792    2.0260123271
 N   -4.2601846516    0.2853643901    2.8456212495
 H    1.7919383639   -0.9571363951   -1.5321856564
 H    0.3968112011   -2.0109545122   -1.3036084087
 H    0.2719555441   -0.5993594145   -2.3599578596
 H    0.7513252574   -0.4568134856    0.6806455036
 H    0.6267544724    0.9297085982   -0.3941485004
 H   -1.7200006499    0.1935153908   -0.9863654078
 H   -1.1057880303   -2.1818144875    0.2579522285
 H   -1.8710597312   -1.3507137525    1.5925966524
 H   -3.9653739228   -1.0531820915    0.1686002038
 H   -3.1337746770   -1.8532465919   -1.1734462528
 H   -3.5082228639   -2.7454523274    0.3065141381
 H   -1.0326072037    1.0518366291    1.7226476858
 H   -2.8677840457    2.6430257816    1.3377099389
 H   -3.3986110850    1.5570296353    0.0631327422