14

 O    0.0210313475    1.4257607612    0.0096860503
 C   -0.0214283130    0.0243370279    0.0019936053
 C   -1.4490605637   -0.4420406376    0.0123469957
 N   -2.4910904480    0.2937977770    0.0222149109
 C   -3.6347858803   -0.6201539066    0.0294871518
 C   -3.0668082900   -2.0454890971    0.0209454716
 O   -3.6211729759   -3.1155744725    0.0240249729
 N   -1.6928547254   -1.8201891927    0.0112705548
 H    0.9442649183    1.6942590017   -0.0026582876
 H    0.4673185326   -0.4076597556   -0.8896306614
 H    0.4836180491   -0.4178236834    0.8794887692
 H   -4.2596370923   -0.4615194801    0.9153438684
 H   -4.2742885262   -0.4570768877   -0.8450295311
 H   -1.0081949227   -2.5591243545    0.0051377792