15

 N    0.1063585859    1.2533919797   -0.3780233183
 C   -0.0384411658   -0.0822824316   -0.1129938290
 N   -1.0803584433   -0.6945600576    0.3632932438
 C   -0.6975950211   -2.0320276702    0.3569540402
 C    0.5610128736   -2.1589147781   -0.1226995577
 O    1.0012594961   -0.8801669412   -0.4388576838
 C    1.4589430845   -3.2873878729   -0.3540718761
 C    2.6172793652   -3.2266551995   -1.2593936098
 O    2.8048756089   -3.1967104027    0.1539256381
 H    1.0536234337    1.5984008543   -0.3299401453
 H   -0.5632325601    1.8279519756    0.1115352134
 H   -1.3599696156   -2.8096024688    0.7043705612
 H    0.9831709167   -4.2528334165   -0.1872554554
 H    2.9508727951   -4.1336776567   -1.7627425030
 H    2.8331149463   -2.2951334639   -1.7790825884