16

 N   -0.4933889735    1.4824738978    0.3995572205
 C   -0.5145210434    0.2285348965    0.5221877692
 O   -0.8942352858   -0.5360567050   -0.5280128934
 C   -0.8601821465   -1.9573130477   -0.3295163051
 C   -1.8521222211   -2.3982338766    0.6518628530
 C   -2.6752335266   -2.7573768442    1.4495582762
 C   -1.1086228234   -2.5694079349   -1.6978222674
 C    0.0096398700   -2.8392255522   -2.6034646201
 O   -0.6227745680   -3.8932305307   -1.8680156854
 H   -0.1829860736    1.9120898847    1.2686252374
 H   -0.2512754420   -0.3497384044    1.4165327064
 H    0.1420488186   -2.2653510809   -0.0004315651
 H   -3.4010295521   -3.0790077086    2.1557897406
 H   -2.0982959948   -2.3741064943   -2.1075018466
 H   -0.1624963455   -2.8481751611   -3.6776317213
 H    1.0242166478   -2.5952368083   -2.2927562089