14

 O   -0.2970598253    0.1042178036   -0.0711596778
 C   -0.0405174384    1.2703074007   -0.1856896130
 C    1.3388421770    1.8813906048   -0.0015620073
 C    1.4453932358    2.6527705260    1.3566511048
 N    2.3412177019    1.8264255417    2.1665449150
 C    2.7683148595    0.9009909218    1.4031768784
 O    2.3361150797    0.8623195663    0.1061246282
 C    3.6927728991   -0.1160011582    1.7684525667
 C    4.4751442217   -0.9770053470    2.0661394778
 H   -0.8244783191    2.0318315665   -0.4089854944
 H    1.5685249184    2.5149244624   -0.8648079713
 H    1.8695589576    3.6551108411    1.2344901324
 H    0.4759091401    2.7667974176    1.8537126738
 H    5.1657300519   -1.7378539973    2.3370740366