19

 N    0.1358929021    1.3182781397    0.3329402640
 C    0.0807235229   -0.0951387898   -0.0338663887
 C   -1.2920863447   -0.5958581039    0.1709192684
 N   -2.3565518809   -1.0161726341    0.3263775083
 C    0.5390455441   -0.4148395066   -1.4790924136
 O   -0.2622056184    0.4000809677   -2.3007662406
 C    2.0879966669   -0.3358455559   -1.6378946728
 C    2.1463144796   -1.8806337322   -1.4915298678
 C    0.6215870255   -1.9387438904   -1.7823305029
 H    1.1051078358    1.6209958252    0.3487445771
 H   -0.3280793147    1.8542636168   -0.3955621447
 H    0.7244388167   -0.6503084154    0.6588206313
 H   -0.0673346044    0.2001833787   -3.2212343376
 H    2.3510852743   -0.0090055123   -2.6487115447
 H    2.6473419081    0.2779650123   -0.9257111791
 H    2.8020879923   -2.4164356448   -2.1791849247
 H    2.3888198152   -2.1953180592   -0.4734989702
 H   -0.0039093615   -2.6052518302   -1.1841468490
 H    0.4148158811   -2.1317831359   -2.8399467128