18

 C   -0.0282443580    1.6396118414   -0.0380112723
 C    1.5859896925    1.6667511995   -0.0702488039
 O    2.4402980173    1.5812104056    1.1369595790
 C    1.7016770445    0.3178695023    1.4048982789
 C    1.2897934249   -1.2450281572    1.6961697437
 N   -0.0990334200   -0.6357521657    1.5012794642
 C    0.4549474422    0.5394484441    2.2579931639
 C   -0.0520460169    0.0406126647    0.0797478878
 C    1.4318087669    0.1763803059   -0.1191755052
 H   -0.6198912018    2.2767871557    0.6212329806
 H   -0.3141526254    1.8667139407   -1.0703216583
 H    2.0423252944    2.3306086332   -0.8029279538
 H    1.6057118651   -1.9903135912    0.9650472513
 H    1.3736513694   -1.6094761243    2.7186473389
 H    0.6335822294    0.2694426340    3.3022603480
 H   -0.1207596126    1.4587622236    2.2292392347
 H   -0.7234085975   -0.4793825585   -0.6012979619
 H    2.1069082358   -0.5009786839   -0.6395333156