13

 O   -0.0492553931    0.0926318708   -0.8274315845
 C   -0.0808421994    1.1236599883   -0.1962856010
 N    1.0221913084    1.7634230077    0.3021315580
 C    2.3332071421    1.2005898050    0.1955280007
 C    3.4669931923    1.9389730465   -0.5560974455
 O    4.2941648817    1.8929929337    0.6506517802
 C    3.2809392391    1.3538105437    1.4021516679
 O    3.2553802875    1.1578283509    2.5721026824
 H   -1.0137123991    1.6682906584    0.0410613801
 H    0.8841351440    2.5873968892    0.8668374795
 H    2.2204219769    0.1617251201   -0.1216750358
 H    3.9430465197    1.4042469254   -1.3791111644
 H    3.2436383298    2.9709671002   -0.8350376776