14

 C    0.0109219381    1.4664731461    0.0363200937
 C    0.0125090514   -0.0251394212   -0.0245820159
 C   -0.1503141535   -0.8133091387   -1.1478075238
 N   -0.0673281904   -2.1063109670   -0.6594127438
 N   -0.1180835131   -3.4053526608   -1.0563350078
 N    0.0450555418   -4.1222766967   -0.0030967942
 N    0.2014790974   -3.3066100487    1.0755935283
 C    0.1341953884   -2.0041951545    0.6886548907
 N    0.1921544778   -0.7761298804    1.1357597269
 H    0.9594114748    1.8398257437    0.4365340924
 H   -0.1414226687    1.9013445940   -0.9545401093
 H   -0.7827461422    1.8271749504    0.6989761444
 H   -0.3071420610   -0.5885764167   -2.1870787016
 H    0.3404261993   -3.7070179194    1.9867681200