16

 O    0.0282568909   -0.0707628947   -0.1075861645
 C   -0.0336205377    1.1410450824   -0.0526335151
 C   -1.2994764568    1.8937261901    0.0257164034
 C   -1.2874019414    3.2366225622   -0.0167574847
 N   -0.1681221161    4.0077365851   -0.3873219151
 C    1.0173488097    4.1654204927    0.4839503355
 C    1.2655513603    2.9189292470    1.3423825224
 C    1.1985435794    2.0287215254    0.0424709410
 C    1.0621861038    3.3387369793   -0.7668313584
 H   -2.2157511066    1.3371197856    0.1851133138
 H   -2.1789580401    3.8275193712    0.1793734239
 H    1.3617987400    5.1743328402    0.6761566935
 H    2.2772534434    2.9189834266    1.7523731092
 H    0.5509213053    2.7033207312    2.1408366524
 H    2.1013493360    1.4483531531   -0.1413496120
 H    1.4778944599    3.5558666728   -1.7445246254