14

 N   -0.0405805547    1.1701618562   -0.6066354621
 C    0.0286600910    0.0545692781   -0.0137228634
 N   -1.1440164485   -0.5938837833    0.3730184906
 C   -1.1673491451   -1.8829140265    0.8323957724
 C   -0.0329466739   -2.4695439624    1.2639747062
 C    1.2079937747   -1.6097534923    1.2740621095
 O    1.1739586192   -0.6256621907    0.2215137241
 C    0.0157168800   -3.8037106373    1.7251222877
 N    0.0938973593   -4.8929567217    2.1174872411
 H    0.8922949035    1.5185841325   -0.8160492859
 H   -1.9884592876   -0.1396059177    0.0646335578
 H   -2.1282343788   -2.3816449534    0.8253748675
 H    1.3219111420   -1.0899659761    2.2356455155
 H    2.1099380290   -2.1962555653    1.0934079090