15

 C   -0.0297559731    1.5099833979   -0.0653274498
 C    1.5312032794    1.3694470336    0.0188027363
 C    1.1503713042    0.1605168940    0.9444813779
 N   -0.0795315922   -0.0306119806    0.0302277442
 C    0.6490543972   -0.3060868026   -1.1894369771
 N    0.5517351128   -1.1324910449   -2.1803301467
 O    1.6526277441   -0.7784249738   -2.9932937726
 C    2.3427948980    0.2550874580   -2.4188616919
 C    1.7496253534    0.6003884614   -1.2641888592
 H   -0.4859169342    1.9414484988    0.8282611505
 H   -0.4725080261    1.9230563203   -0.9731716934
 H    2.1961689032    2.1760667892    0.3196122543
 H    1.8208128246   -0.6993381671    0.9891672391
 H    0.8158819075    0.4528595617    1.9421782733
 H    3.2021287412    0.5869774939   -2.9795552249