29

 C   -0.8403200859    1.1326831503    1.8345162460
 C   -0.6661590623    0.1823243443    0.6433456785
 C   -1.9860106156   -0.4546149060    0.1205685587
 C   -2.0834522572   -0.2869136809   -1.4136116712
 C   -2.3635051660    1.1560007734   -1.8507465001
 C   -2.2130250433   -1.9331744469    0.5953530015
 C   -2.0380850097   -2.0416085859    2.1239967249
 C   -3.6580222733   -2.3721828612    0.2754302236
 C   -1.2352288284   -2.9091295543   -0.0882232497
 H    0.1208221292    1.5545994462    2.1472583232
 H   -1.5003096983    1.9677399016    1.5743180129
 H   -1.2779453889    0.6267552206    2.6998874364
 H   -0.1911523136    0.7414883773   -0.1703493144
 H    0.0535198316   -0.6007543693    0.9062814727
 H   -2.8175399515    0.1220053772    0.5529400566
 H   -1.1496667048   -0.6314399526   -1.8758775196
 H   -2.8749717763   -0.9248075986   -1.8186518139
 H   -3.3249623599    1.5048192027   -1.4571254137
 H   -1.5932744764    1.8504430184   -1.4987881737
 H   -2.4021959751    1.2363167076   -2.9418233365
 H   -2.7259301258   -1.3715741565    2.6516638999
 H   -2.2538515490   -3.0628149542    2.4573311467
 H   -1.0207697937   -1.8038021182    2.4467154608
 H   -3.8597285338   -2.4099771516   -0.7985079619
 H   -3.8476404399   -3.3748248970    0.6742093773
 H   -4.3868688036   -1.6920994891    0.7306530493
 H   -0.1901176674   -2.6493238927    0.1093282289
 H   -1.3931902502   -3.9277392092    0.2828047013
 H   -1.3755113710   -2.9298158655   -1.1730939546