16

 O    0.3775292884    1.2175097732   -0.5202488827
 C    0.1110982917   -0.0397757646    0.0258710385
 C    0.1039839524   -0.2634295408    1.5816942782
 C   -1.2770089895   -0.9238605884    1.4730444844
 O   -2.3315959987    0.0861197146    1.6594490890
 C   -2.4169578827    0.3284816731    0.3109065975
 N   -3.1856773557    1.0642617902   -0.3570498519
 C   -1.3204602214   -0.6381918772   -0.0827326803
 O   -1.5398682423   -1.4985441201   -1.1394924066
 H   -0.3739345152    1.7973873299   -0.3501212465
 H    0.8003506794   -0.7410809086   -0.4533548565
 H    0.9032700285   -0.9198468126    1.9304369321
 H    0.0959909204    0.6486299917    2.1814405434
 H   -1.5228459982   -1.8609564001    1.9672815915
 H   -3.8565672537    1.5543650914    0.2378714982
 H   -2.4601857734   -1.4193160418   -1.4161485383