20

 C   -0.1805001916    1.5503661041    0.0770087024
 C   -0.1752402454    0.0300815914   -0.1012796441
 C    0.8975215432   -0.4516864449   -1.0885418233
 C    0.9044099158   -1.9609797436   -1.2352390683
 C    0.0648315886   -2.6627782274   -2.2482099548
 C    1.5842512405   -2.6941036630   -2.3959671031
 C    2.2040359509   -1.9589820364   -3.5189397936
 O    3.2186812968   -2.2986732677   -4.0783315318
 H    0.7849671415    1.9082481839    0.4511954016
 H   -0.3752271547    2.0603845938   -0.8730291297
 H   -0.9507654731    1.8656400570    0.7874170299
 H   -0.0131000411   -0.4541320562    0.8707955820
 H   -1.1602475877   -0.3074138489   -0.4475481313
 H    0.7287510861    0.0269539670   -2.0603578878
 H    1.8843890356   -0.1112668367   -0.7476986642
 H    1.0274404613   -2.4852183372   -0.2899727172
 H   -0.4267458432   -3.5953478915   -1.9964119730
 H   -0.4776494863   -2.0495016465   -2.9623962380
 H    2.0958211496   -3.6191051486   -2.1528315656
 H    1.6525742431   -1.0472549386   -3.8450013201