17

 C   -0.3213698897    1.3656778249    0.0823258645
 C   -0.1459222297   -0.1131171449   -0.1498887591
 O    0.6720500235   -0.6305694738   -0.8620556674
 O   -1.0568333422   -0.8144954619    0.5813998715
 C   -1.0442555858   -2.2072913566    0.3967916419
 C   -2.2205782568   -2.9338193706    0.9416174981
 C   -2.0476936331   -2.8086333955   -0.5746095599
 C   -2.9190903777   -1.9586897666   -1.3274717610
 C   -3.6428243322   -1.2466393741   -1.9723629679
 H    0.4649055503    1.9105584907   -0.4383723432
 H   -1.3006794915    1.6790469480   -0.2911263919
 H   -0.2930779321    1.5890650484    1.1520880500
 H   -0.0543076608   -2.6460574281    0.4289483242
 H   -2.0702989710   -3.9073994026    1.3931951602
 H   -3.0028780215   -2.3293143147    1.3843830594
 H   -1.7060380394   -3.6985595384   -1.0949032992
 H   -4.2863317805   -0.6240214342   -2.5426522401