20

 C    0.2430150747    1.4219285315   -0.1834992817
 C    0.0180270118   -0.0406118735    0.1629268223
 O   -1.3127912620   -0.3797761892   -0.1730817111
 C   -1.6355734282   -1.7387904707    0.0321219119
 C   -1.7819613233   -2.1594404886    1.5252407851
 C   -2.9890674050   -3.0650730244    1.5083138863
 C   -3.6478402685   -3.0032292808    0.3520731139
 C   -3.0044959434   -2.0451055758   -0.6181195724
 H    1.2673866406    1.7197118232    0.0598023230
 H    0.0738443964    1.5932644019   -1.2503772298
 H   -0.4463898435    2.0589759902    0.3779598055
 H    0.7226456255   -0.6832432365   -0.3927256781
 H    0.2054668049   -0.2122172558    1.2352461694
 H   -0.8617602070   -2.3690049671   -0.4355773508
 H   -0.8842141463   -2.6474832621    1.9209214031
 H   -1.9605283141   -1.2696010809    2.1457719181
 H   -3.2825805556   -3.6620555488    2.3650130744
 H   -4.5602195030   -3.5424365006    0.1222785846
 H   -3.5791937417   -1.1133907787   -0.7073826838
 H   -2.9027611422   -2.4502601233   -1.6306105198