15

 C    0.0687076658    1.5761515010   -0.0448084191
 C    0.0975037074    0.0678755950    0.0396190010
 C    1.3000575100   -0.7649846027   -0.1145510042
 O    2.4758802528   -0.0912088398    0.3791130770
 C    1.9597576802   -0.0821643266    1.6810627547
 O    2.5036890171    0.2940401252    2.6609579443
 C    0.6471228541   -0.7120262848    1.2762742026
 C   -0.1538665502   -1.7160454954    1.9960399438
 O    0.0199501069   -2.0415950001    3.1421984226
 H    1.0230286998    2.0118961768    0.2561332740
 H   -0.1339051136    1.8842407148   -1.0755433717
 H   -0.7193354678    1.9847434962    0.5934512394
 H   -0.8025743259   -0.4285266208   -0.3248954283
 H    1.4547373770   -1.6178023074   -0.7612985804
 H   -0.9608106836   -2.1697418912    1.3744390745