21

 C    0.5960040143    0.2871031404    1.0373805594
 O   -0.0243797573   -0.1055873433   -0.1833235871
 C   -1.2507537373   -0.7844177099   -0.0138546526
 C   -2.3697596749   -0.0080121500    0.6434802447
 C   -2.7647579465    1.2396852069   -0.1417248682
 O   -3.8231355079    1.8717156845    0.5631535357
 C   -1.5524109497   -1.7193621214   -1.1662240628
 C   -1.0943899855   -2.2779224085    0.1635766703
 O    0.1849265765   -2.8181829385    0.2976101429
 H    1.5928110696    0.6504670478    0.7758978556
 H    0.0482439645    1.0991029783    1.5319980189
 H    0.6870972425   -0.5572124352    1.7315485114
 H   -3.2457318712   -0.6593115461    0.7360370205
 H   -2.1002832672    0.2875390038    1.6641591216
 H   -1.8936258519    1.9040112021   -0.2432826991
 H   -3.0732919919    0.9514944609   -1.1589153922
 H   -4.0683873877    2.6686815478    0.0844559031
 H   -2.5855349588   -1.8471117111   -1.4718455519
 H   -0.8293757669   -1.7362038561   -1.9751835233
 H   -1.8063856684   -2.8169008929    0.7800275748
 H    0.7900191658   -2.1808904596   -0.1029016820