19

 C   -0.0176429698    1.4965434623    0.0141508198
 C   -0.0026311145    0.0415218314   -0.0067681041
 C    0.0127091106   -1.1646282820   -0.0200292862
 C    0.0440626500   -2.5876970391   -0.0589481463
 C    0.7706617543   -3.4305483388   -1.1278358307
 C   -0.4046630621   -4.4532502204   -1.1305896325
 C   -1.1273282796   -3.6355598686   -0.0566682592
 C   -0.2486925481   -3.4430184818    1.1401111656
 O    0.6979724566   -4.3880996124    1.5480854090
 H    0.7851258411    1.9083496330   -0.6079674042
 H   -0.9652725799    1.8951904246   -0.3661848074
 H    0.1213645680    1.8848022316    1.0295639480
 H    0.8594089265   -2.8941596480   -2.0733592859
 H    1.7503060522   -3.8078978854   -0.8282148470
 H   -0.9422055013   -4.4657013963   -2.0803228328
 H   -0.1545442710   -5.4811452904   -0.8527634070
 H   -2.1937175741   -3.4444738165   -0.0150841284
 H   -0.7161740506   -2.8894442677    1.9544695844
 H    0.2248700718   -5.1485882055    1.9027773349