13

 O   -0.2335722230    1.3538237197    0.0727024684
 C    0.0063124226   -0.0391169554   -0.0076390769
 C    0.7916826855   -0.3724589747   -1.2199590831
 N    1.4115010834   -0.6126436066   -2.1645813544
 C    0.6483265115   -0.6028986132    1.2171590313
 C    0.2713589393   -1.4702985007    2.1865730296
 N    1.2917609573   -1.5851540573    3.1214777144
 C    2.2132576679   -0.7945790306    2.6810150541
 O    1.9077519358   -0.1570595190    1.5266006724
 H    0.6155266983    1.7961949289    0.1928434560
 H   -0.9783763575   -0.5067402855   -0.1082887775
 H   -0.6520802021   -2.0194454161    2.2800433208
 H    3.1796415709   -0.5817881496    3.1101444050