25

 C    0.1127339338    1.5324532675    0.2885658028
 C    0.0157064241    0.0504536256   -0.1150156578
 C   -1.3928648451   -0.4938573012   -0.1089325617
 C   -1.9846333235   -0.9320267455   -1.2237259792
 C   -3.3896353960   -1.4698315500   -1.2967359597
 C   -4.2142299433   -1.1756631483   -0.0326431171
 C   -5.5174230300   -1.9779515303   -0.0075324868
 C   -3.3505465810   -1.4298218486    1.2102257017
 C   -2.1107134966   -0.5260076452    1.2243862514
 H    1.1506098292    1.8779966509    0.2508546253
 H   -0.4784549262    2.1595266783   -0.3867645452
 H   -0.2538125946    1.6995171187    1.3061827623
 H    0.4497707458   -0.0806757433   -1.1125559826
 H    0.6355418613   -0.5399017349    0.5757041864
 H   -1.4262388233   -0.9127323786   -2.1586162032
 H   -3.8990511668   -1.0566244935   -2.1779249914
 H   -3.3576403126   -2.5579499760   -1.4687354395
 H   -4.4687471741   -0.1055673373   -0.0446818217
 H   -5.3134191714   -3.0545078760    0.0396104356
 H   -6.1293663443   -1.7174343845    0.8627039026
 H   -6.1170865120   -1.7938448916   -0.9057684933
 H   -3.9387898514   -1.2754071683    2.1224933298
 H   -3.0357266921   -2.4825697825    1.2144770218
 H   -1.4131487994   -0.8557769004    2.0065445170
 H   -2.4022365507    0.4952085250    1.5105198224