14

 O   -0.1016153844    1.4658931784    0.0263292644
 C   -0.0395358962    0.0648368846   -0.0859736659
 C   -1.4352186242   -0.5525415370   -0.0278497602
 O   -2.0908933113   -0.1195025220    1.1636530969
 C   -3.1030239636    0.7195343832    0.8274421232
 N   -3.7982914222    1.3361120040    1.6730703345
 C   -3.1960013450    0.7232674672   -0.6791468690
 O   -3.9741461684    1.3091301392   -1.3666335914
 O   -2.2225470155   -0.1067435605   -1.1270022922
 H   -0.3051593576    1.6827208419    0.9427293618
 H    0.4040039071   -0.1695547354   -1.0581671508
 H    0.5767360379   -0.3998853673    0.6965410351
 H   -1.4070787546   -1.6468647974   -0.0401033422
 H   -4.4994119020    1.8885201212    1.1759146958