20

 C   -0.8841712028    1.4325279526   -0.0067622001
 C   -0.1850141447    0.0823759857   -0.0176800298
 O   -1.1165223248   -0.9766988174   -0.1657816142
 C    1.0739446689   -0.0580361574   -0.9250500754
 N    1.8558304992   -0.6285911235    0.1998153735
 C    3.0714330312    0.1022301946    0.5880863580
 C    2.6205427573    1.0337023955    1.6928883050
 C    1.3432148386    0.8214983666    2.0086903679
 C    0.7655816798   -0.2799259381    1.1650352513
 H   -0.1821247059    2.2434649995    0.2034788221
 H   -1.3450051767    1.6329945443   -0.9827099386
 H   -1.6750586599    1.4468846350    0.7498426223
 H   -1.6306374286   -0.8120571837   -0.9637831027
 H    0.9554661450   -0.7435106598   -1.7716268195
 H    1.4612844229    0.9028517468   -1.2929834831
 H    3.8579717745   -0.5814624677    0.9413964779
 H    3.4918041752    0.6357970591   -0.2763770039
 H    3.2833248963    1.7438696592    2.1746385922
 H    0.7887861245    1.3276543939    2.7902306759
 H    0.3833954104   -1.1214780253    1.7563565314