21

 C   -0.0999186880    1.5253658601    0.0090246342
 C   -0.0219389285    0.0221145395    0.0070727261
 C   -0.0191431238   -0.6807988466   -1.1303974223
 C    0.0892396373   -2.1794619349   -1.1825723242
 O    0.4251078974   -2.7640328464    0.0611152429
 C   -0.3064298808   -2.1887908106    1.1272735816
 C    0.0367219655   -0.7206656244    1.3037559776
 C    1.0781158560   -0.3564440603    2.3471752575
 C   -0.3761670388   -0.0819067257    2.6125602553
 H    0.7256553162    1.9779102896    0.5722778767
 H   -0.0595215036    1.9177883476   -1.0101686297
 H   -1.0290548747    1.8811068199    0.4704728086
 H   -0.0959907228   -0.1744020178   -2.0898839651
 H   -0.8544535414   -2.6106871756   -1.5689099200
 H    0.8788815762   -2.4808909273   -1.8818375880
 H   -1.3904537682   -2.2958673435    0.9487688792
 H   -0.0531061962   -2.7634915633    2.0236383029
 H    1.5593125808   -1.1730832002    2.8751187600
 H    1.7291127478    0.4877993498    2.1488822934
 H   -0.7139046792    0.9478727402    2.6080174509
 H   -0.8958460012   -0.7111285300    3.3286790824