16

 O    0.0212302009    1.4243111339   -0.0329161414
 C    0.0320695254    0.0262242735    0.0013135296
 C    0.2995724334   -0.7643276646   -1.3074476577
 N   -0.8156117311   -1.6648861559   -0.9226671431
 C   -1.3480699159   -0.6454375291    0.0250324209
 C   -1.5468747225   -1.1868591020    1.4327370541
 O   -2.5365702528   -1.6240629308    1.9402912258
 O   -0.3578423446   -1.1022808293    2.0964287249
 C    0.6897056786   -0.5758156832    1.2699253031
 H    0.9288578031    1.7460840769    0.0016105202
 H    0.0944061293   -0.1280072830   -2.1775383130
 H    1.2666411105   -1.2634909191   -1.4338518092
 H   -1.4505807130   -1.9301107526   -1.6654965972
 H   -2.1916477657   -0.0438701313   -0.3212397712
 H    1.3841393699   -1.3876346103    1.0329961880
 H    1.2116568443    0.1943512870    1.8454771261