18

 C    0.0690635595    1.4586998447   -0.0300747024
 C   -0.0063808604   -0.0341409030   -0.0622939038
 C   -0.1098398566   -0.8489036119   -1.1158881749
 C   -0.1489208382   -2.2935963249   -0.6903492011
 N   -0.0543691199   -2.2741847203    0.7955459186
 C    1.2152145319   -1.8120976724    1.3833386024
 C    2.5106998864   -1.6426434622    0.6838302524
 O    2.7075306997   -1.6736552761   -0.5093985327
 C    0.0352944482   -0.8666007464    1.1744256738
 H    1.0260045291    1.7993534135    0.3848346454
 H   -0.0359840884    1.8843114983   -1.0309038853
 H   -0.7181209796    1.8838100112    0.6050506093
 H   -0.1292049829   -0.5384848022   -2.1540167961
 H   -1.0952374381   -2.7824605178   -0.9560319705
 H    0.6643472513   -2.8789317836   -1.1268190871
 H    1.3469220530   -2.1660941232    2.4052400444
 H    3.3542189059   -1.4830337628    1.3946333383
 H   -0.4914722009   -0.5393369313    2.0691938493