21

 C   -0.0576988289    1.6347349496   -0.0809992550
 C    1.5410053114    1.7186589446   -0.0524315306
 C    2.4667827289    1.6345145615    1.2414556152
 C    1.7013452965    0.3004274138    1.5341437372
 C    1.3182939304   -1.2084846337    1.8508228335
 C   -0.1383250044   -0.5899142557    1.5384645099
 C    0.3851938503    0.6109981705    2.3161313048
 C   -0.0624313049    0.0368243373    0.0808964458
 C    1.4418944154    0.1946439605    0.0031866980
 H   -0.6755974689    2.2627098881    0.5646983282
 H   -0.3398778320    1.8516322582   -1.1150394695
 H    1.9554780076    2.2805487694   -0.8915295450
 H    3.5022106294    1.5402617498    0.8952320411
 H    2.4185035784    2.3923972326    2.0291297159
 H    1.7347321551   -1.9703715806    1.1876137066
 H    1.3746028631   -1.5340946387    2.8915247117
 H   -1.0388700271   -1.1337446812    1.8313103407
 H    0.5634082756    0.4007336385    3.3749143848
 H   -0.1111199998    1.5748182794    2.2350580557
 H   -0.6333916221   -0.4896273702   -0.6859881022
 H    2.1262701559   -0.4807518734   -0.5124268067