21

 C    0.2303276597    1.3932453108   -0.3049063618
 C   -0.0299725530   -0.0931674590   -0.0194523661
 C    0.7348752740   -0.5438256950    1.2323318493
 C   -1.5280447592   -0.4119863201    0.1299172934
 C   -2.3546874286   -0.1692676127   -1.1324182503
 C   -3.7935468785   -0.6048436230   -1.0048992140
 O   -4.2851180633   -1.1206445204   -0.0271528601
 C   -4.7051240711   -0.3726952670   -2.2206171763
 O   -4.3374437599    0.1418256513   -3.2434714151
 H    1.3037455160    1.5922866347   -0.3871108883
 H   -0.2351154200    1.7251096929   -1.2380357994
 H   -0.1610861314    2.0201743890    0.5056592875
 H    0.3516618573   -0.6726981973   -0.8733028695
 H    0.3904366846    0.0023984641    2.1185742184
 H    0.5921174402   -1.6122447431    1.4246348633
 H    1.8091959032   -0.3609681095    1.1272294636
 H   -1.6472467309   -1.4601111102    0.4268482011
 H   -1.9478513962    0.1773566811    0.9552829879
 H   -2.3610111670    0.8853166046   -1.4368593055
 H   -1.9316102455   -0.6945961062   -2.0012722090
 H   -5.7429005503   -0.7308795448   -2.0504464892