19

 C   -0.5472016951    1.6075896965    0.1709958679
 C   -0.1341947404    0.1478430145    0.1960140889
 O   -1.2852205334   -0.6279178327   -0.1728628141
 C   -1.1459741991   -1.9670861772   -0.1711109029
 N   -2.3507799697   -2.5788554130   -0.4127677678
 N   -0.0137341058   -2.5136864643    0.0854035934
 C    0.0143831955   -3.9724481605    0.1503526140
 C   -0.0137028417   -4.5010707520   -1.2728431609
 O   -1.0326818804   -4.8117511602   -1.8501586762
 H    0.3044323761    2.2375839505    0.4443242830
 H   -0.8867391556    1.9015954357   -0.8263647187
 H   -1.3580350714    1.7973142040    0.8801498647
 H    0.6781618711   -0.0606313712   -0.5071181466
 H    0.2066429100   -0.1668084515    1.1873333720
 H   -3.0804087861   -1.9620421571   -0.7346985911
 H   -2.3094908751   -3.4791479525   -0.8746274429
 H    0.9434141712   -4.2779555817    0.6429948890
 H   -0.8370530436   -4.3982187521    0.7013817448
 H    0.9612052535   -4.5136673951   -1.8045272865