19

 O   -0.3568539197    1.5108895755    0.3262717042
 C    0.0583152420    0.1699373659    0.1700040759
 C    0.9800627870   -0.1617170743   -1.0463736830
 C    1.8257361587   -1.0708901491   -0.1136898253
 C    1.1815392895   -0.3669098395    1.1117210751
 C   -1.1892660434   -0.6891960602    0.2052347495
 C   -2.3553334433   -0.3149174059    1.0383655896
 N   -2.4258313151   -0.2253162790   -0.4359301559
 H    0.4114121581    2.0795000423    0.2223177938
 H    0.5094960146   -0.6070692455   -1.9259587503
 H    1.5397310590    0.7259323797   -1.3614675125
 H    1.5365336912   -2.1219825092   -0.1868527217
 H    2.9110005991   -1.0069999330   -0.2098700299
 H    1.7999988428    0.4578189695    1.4809281244
 H    0.8728250237   -0.9788492040    1.9628496249
 H   -0.9863992773   -1.7471633527    0.0493823889
 H   -2.9761914061   -1.0893159229    1.4803222790
 H   -2.2928201734    0.6100391230    1.6018499094
 H   -2.2923370774    0.7507139394   -0.6942474160