17

 C   -0.0336570246    1.5415035617   -0.1652930268
 C    1.3101021912    2.2409349873    0.1457106832
 N    2.3948926178    1.3585413594    0.5741349279
 C    2.1917118408    0.2170207711    1.4394696103
 C    0.8715714779   -0.5742837794    1.1593708979
 C    0.0669186517    0.0465111014    0.0476736659
 C    1.2990910166   -0.7518132687   -0.2887038007
 C    2.6124521751    0.0423282512    0.0143097219
 H   -0.8302397565    1.9423489495    0.4714733340
 H   -0.3367645053    1.7374512602   -1.1999053327
 H    1.6777055135    2.7803317713   -0.7330129503
 H    1.1842219951    2.9852012108    0.9384644305
 H    2.7616046158    0.1414705609    2.3589179804
 H    0.4729307144   -1.3180022454    1.8367679299
 H   -0.8530291970   -0.4963280545   -0.1573798888
 H    1.2775611320   -1.6521247930   -0.8885989867
 H    3.5798077716   -0.1982508238   -0.4125576958