18

 C   -0.0398839531    1.0652016087    0.6421656605
 O   -0.2293046408   -0.3266797667    0.4551942280
 C   -1.3587109220   -0.6414078000   -0.3119993589
 C   -1.4229388329   -2.1669676915   -0.4385164991
 C   -2.2407770830   -2.5272320168    0.7748335973
 C   -2.9325299580   -1.2744081841    1.2597602671
 O   -2.5684092425   -0.2615084830    0.3218190524
 N   -2.2865928351   -3.6924428597    1.2758729894
 O   -3.1334086568   -3.7100326230    2.4024028017
 H    0.8653695013    1.1860529831    1.2404617711
 H    0.0958943042    1.5809589978   -0.3206301739
 H   -0.8886756492    1.5199797481    1.1653902613
 H   -1.3370417617   -0.1003833324   -1.2676753477
 H   -1.9517329599   -2.4406407755   -1.3579341944
 H   -0.4351213286   -2.6271686362   -0.4473807532
 H   -4.0224410043   -1.3735753420    1.2679131267
 H   -2.6081882051   -1.0249974776    2.2787512441
 H   -3.0690798125   -4.6258939992    2.6926782875