13

 C   -0.0349407667    1.4201629126   -0.0300362203
 N   -0.0086804415   -0.0385962220   -0.0048936867
 N   -0.0504877306   -0.6516674910   -1.1692413063
 N   -0.0297286578   -1.9318532952   -1.2036807188
 C    0.0367931801   -2.5911040615    0.0139959891
 O    0.0548911596   -3.9132638057   -0.1003776886
 N    0.0811926732   -2.0716182025    1.1990710528
 C    0.0602119100   -0.7036847044    1.2705503077
 O    0.0947359275   -0.0312004587    2.2708740467
 H    0.8660077117    1.8092572499    0.4487092512
 H   -0.0883743392    1.7303844914   -1.0724455438
 H   -0.9007908467    1.7787142834    0.5303206679
 H    0.0158012504   -4.1189955663   -1.0462396408