14

 C   -0.0277079741    1.3422878692    0.0361898873
 O    0.0124041516   -0.0907938652   -0.0149880996
 C    0.6165826309   -0.6201006079   -1.0738394077
 N    1.1554538396    0.0940794863   -2.0342928987
 O    1.6732861028   -0.8572353381   -2.9350498771
 C    1.4238154120   -2.0780117100   -2.4784730973
 C    0.7506718924   -2.0330498503   -1.2914526787
 C    0.2904827945   -3.1472860047   -0.4645567952
 O    0.4595138024   -4.3130962678   -0.7466323722
 H    0.9857919057    1.7530043433    0.0486979258
 H   -0.5636527126    1.7410027143   -0.8297281540
 H   -0.5525227716    1.5893450920    0.9585409992
 H    1.7713661998   -2.9035898476   -3.0805658944
 H   -0.2371968834   -2.8451543736    0.4629944126