20

 C   -0.3416144301    1.3961173551    1.1810340621
 C   -0.1060043538    0.2406199781    0.2100017453
 O    0.7602720736   -0.7275090517    0.8158066552
 C    2.0821522899   -0.6225798550    0.5837388920
 N    2.8915890402   -1.3853825095    1.1800902073
 C   -1.3958826409   -0.4673671208   -0.1904097497
 O   -2.2790509576    0.3930979769   -0.8645712447
 C   -1.3753683763   -1.8761297251   -0.6935295154
 C   -1.9756624936   -1.5610981494    0.6654051634
 H    0.6021391872    1.8900391846    1.4294030738
 H   -1.0033043455    2.1417038094    0.7313361360
 H   -0.7912405912    1.0289098511    2.1083886031
 H    0.3620115928    0.6218350446   -0.7089286778
 H    2.3359092055    0.1529131645   -0.1528527014
 H    3.8419821248   -1.1886725717    0.8735699488
 H   -2.7841249858    0.8805697582   -0.2052513068
 H   -2.0591903891   -2.0980918643   -1.5042108908
 H   -0.4308811980   -2.4053608633   -0.7144979575
 H   -1.4217172721   -1.8720846548    1.5430393458
 H   -3.0560197600   -1.5939633470    0.7561033711