18

 C   -0.1946107231    1.4336526358   -0.2164134118
 C    0.0747734170   -0.0484615452   -0.0196943944
 O    0.6707873812   -0.5578278337   -1.1953433233
 C    0.9727766238   -1.9336887070   -1.1171241914
 C    1.6589632543   -2.3574197539   -2.3865695597
 C    1.4559816033   -3.7345090266   -2.9008592478
 N    0.8798884733   -2.5823870341   -3.6118848608
 H    0.7380751748    1.9692518751   -0.4143878011
 H   -0.8660604836    1.5917599519   -1.0650256029
 H   -0.6579099825    1.8596399925    0.6785319733
 H    0.7408512381   -0.2105263530    0.8453320021
 H   -0.8641527426   -0.5875167684    0.1957246280
 H    1.6244825553   -2.1356196529   -0.2485905215
 H    0.0504570675   -2.5263007451   -0.9725939421
 H    2.6133697350   -1.8667968556   -2.5643651190
 H    2.2600232682   -4.2430566338   -3.4247784143
 H    0.7941666699   -4.3941577705   -2.3441850880
 H   -0.1129944300   -2.5022909457   -3.4035065152