19

 C    0.0696516907    1.4773113514   -0.1428604953
 C   -0.0070493514   -0.0517885855    0.0366052182
 C    0.7503631107   -0.4822848614    1.2117684047
 C    1.3561441823   -0.8280248597    2.1911342394
 C   -1.4617546016   -0.5417176273    0.1206440976
 C   -2.3220266675   -0.4229184631   -1.1788902888
 C   -2.7176926506   -1.8972695977   -0.9861644489
 O   -3.5509272889   -2.6001238712   -1.4782206194
 C   -1.6926120825   -2.0852338418    0.1417960433
 H    1.1075396932    1.8069230683   -0.2342404611
 H   -0.4713985810    1.7843037271   -1.0429745802
 H   -0.3733439866    1.9878536465    0.7175007985
 H    0.4475263963   -0.5220694288   -0.8485979821
 H    1.8993629013   -1.1379920773    3.0493367003
 H   -1.9545272092   -0.0585709599    0.9687920411
 H   -3.1438009618    0.2970448575   -1.1942658128
 H   -1.7217729837   -0.2825669326   -2.0859714811
 H   -0.8183349337   -2.6571935212   -0.1897631428
 H   -2.0670278663   -2.5376203132    1.0628300795