21

 C    0.0601049788    1.6454776807   -0.0483791291
 C   -0.1615556977    0.1325126435   -0.1581229012
 C    0.7383959687   -0.5044266893   -1.2123636035
 C    2.2182124861   -0.7151631070   -0.8177576087
 O    2.0636731309   -2.1479755082   -0.7891606413
 C    0.7421407386   -2.0722557935   -1.3449329317
 C   -0.2677102817   -2.9084947105   -0.5724453872
 C    0.7276671460   -2.4489668894   -2.8213292528
 O    1.7028699662   -2.6731603817   -3.4856151588
 H    1.0988221845    1.8787172176    0.2095076408
 H   -0.1669957784    2.1483795800   -0.9946372877
 H   -0.5789169156    2.0819536605    0.7247621182
 H    0.0241922913   -0.3351140751    0.8161935579
 H   -1.2122987833   -0.0664418789   -0.4032895554
 H    0.6013819139    0.0098324050   -2.1693959357
 H    2.9527190390   -0.4014344929   -1.5680559745
 H    2.5085230015   -0.3192196652    0.1629659136
 H   -0.3299974447   -2.5870552005    0.4685372335
 H   -1.2648627785   -2.8414633693   -1.0198480996
 H    0.0429662956   -3.9583407356   -0.5851878600
 H   -0.2978995612   -2.4622880602   -3.2651976368