18

 O   -0.6317964192    0.6094147472    0.0026222024
 C    0.0072547221    1.6094647620   -0.0904938014
 O    1.1856936512    1.7554031957    0.6018635201
 C    1.8300733311    2.9673070243    0.5818301438
 N    1.2828838403    4.0408819845    0.2338318378
 C    2.0383419544    5.2703457362    0.2457635633
 C    3.5945645110    5.3406102622    0.3231657530
 C    3.5223903619    6.5454271398   -0.6538364657
 C    2.1069156884    6.0714582749   -1.0808328156
 H   -0.2274599966    2.4841426211   -0.7098978960
 H    2.8553783609    2.8306940940    0.9319128740
 H    1.6018317438    5.9078774505    1.0238499738
 H    4.0574960309    5.4884089951    1.3014486598
 H    4.0588373964    4.4756058741   -0.1614017643
 H    3.4882561773    7.4985845379   -0.1193704576
 H    4.2871924817    6.6082517176   -1.4296436838
 H    2.1541980205    5.3890441870   -1.9344736590
 H    1.3337066539    6.8198246658   -1.2654311246