20

 C   -0.5683112254    1.2347058482   -0.1491142959
 C   -0.0305661199   -0.1820180059   -0.0143543636
 C    1.1880825255   -0.6149579853   -0.8005368954
 C    1.7673839547   -1.4041961908    0.3518480271
 C    0.7302148284   -0.6631595062    1.2728710712
 C    1.3576778067    0.4439241868    2.1108371301
 O   -0.1109600700   -1.4892606965    2.0535454666
 N    1.5762638165   -0.2559704721   -1.9507768964
 O    2.8216868982   -0.8363590915   -2.2695841899
 H    0.2172061487    1.9813002193   -0.0018442159
 H   -0.9822161276    1.3874976346   -1.1499770848
 H   -1.3647426465    1.4201804512    0.5786324849
 H   -0.8387916990   -0.9071876951   -0.1755105578
 H    1.5461583987   -2.4738943879    0.2842618809
 H    2.8324301556   -1.2652474598    0.5541146948
 H    1.9897961643    1.0996511209    1.5046329133
 H    0.5856498656    1.0516928610    2.5915093839
 H    1.9931126670    0.0117433863    2.8940771380
 H    0.3699693903   -1.7472314371    2.8475455148
 H    2.9965833280   -0.4683011802   -3.1422344359