15

 O   -0.0889652282    1.3453339963   -0.0454871976
 N    0.0145861789   -0.0482325243   -0.0907349400
 C   -1.1302753833   -0.6078513573   -0.0210106853
 C   -2.4695934106   -0.0433176859    0.0974947072
 C   -3.3911397773   -1.0145852737    0.1003020096
 C   -2.7987277531   -2.3927478461   -0.0375422427
 C   -1.2549428833   -2.1379733837   -0.0230907922
 C   -0.5589923575   -2.7779353568   -1.1361071558
 N   -0.0309835591   -3.3057161286   -2.0179264447
 H    0.8303025048    1.6215977671   -0.1261000931
 H   -2.6472815944    1.0199829207    0.1649204474
 H   -4.4612001580   -0.8592032897    0.1757480518
 H   -3.1019006427   -3.0609144708    0.7752411916
 H   -3.1170459764   -2.8722492733   -0.9697671305
 H   -0.8227794399   -2.5274360840    0.9048398544