20

 C   -0.0799638606    1.5296441529    0.0734508979
 C    0.0322534721    0.0194227519    0.0203972708
 C   -1.1605724297   -0.6447838806   -0.6494020744
 C    1.3693872481   -0.6864165982   -0.2345036856
 N    2.5933239677    0.0579831392   -0.0556953573
 C    2.5964968101    0.4122199082    1.1657228347
 O    1.5746020140    0.0210931409    1.9679916223
 C    0.6960162111   -0.7574674892    1.1373762401
 C    0.1314336994   -1.9304867697    1.8868206759
 H    0.8086961046    2.0113585544    0.4821223991
 H   -0.2401179163    1.9309521093   -0.9331606863
 H   -0.9347733657    1.8261894539    0.6917473446
 H   -1.3110975887   -0.2196824630   -1.6479451387
 H   -1.0270602394   -1.7231256277   -0.7707688977
 H   -2.0806791277   -0.4834636533   -0.0760004426
 H    1.4009819797   -1.5005821083   -0.9504725434
 H    3.3548280391    1.0115409960    1.6553293831
 H   -0.4932939258   -1.5956425531    2.7219774650
 H   -0.4827604817   -2.5554169346    1.2362880902
 H    0.9384987599   -2.5479185591    2.2930935322