19

 C   -0.1812981589    1.6152276227   -0.0235316297
 C    0.0079607847    0.0958011540    0.0078176477
 C   -1.2686351937   -0.5564315631   -0.2830310045
 N   -2.2896251106   -1.0485053411   -0.5154244978
 C    1.1843737490   -0.6289955021   -0.7554716663
 C    2.4396733682    0.1002668570   -0.2488401736
 C    2.0976013000    0.0890765660    1.2776831863
 C    0.7484127575   -0.6432272522    1.1899718909
 N    1.1213836528   -1.7568176268    0.2437848644
 H    0.7496131534    2.1418802842    0.1892372840
 H   -0.5385418563    1.9364249673   -1.0066164899
 H   -0.9253632210    1.9238320206    0.7169901449
 H    1.1096310708   -0.8736074606   -1.8146344288
 H    3.3342862336   -0.4795008124   -0.4804111957
 H    2.5561454217    1.1021289323   -0.6674000220
 H    2.8096494026   -0.4966925541    1.8607360698
 H    2.0212301329    1.0846245875    1.7198785046
 H    0.2295969192   -0.9023377725    2.1124349371
 H    0.2819992839   -2.3045396168    0.0516777287