17

 C   -0.1976304670    1.5071218623    0.0432926572
 N    0.1192564683    0.0812011892    0.0621955443
 C    1.3829232929   -0.4887399774   -0.3153910170
 C    2.6170641676    0.2950022881    0.1554134795
 O    2.8264263390    1.5072553317   -0.5268956076
 C    2.0575137901    0.3065379198    1.6204698320
 C    0.8693334504   -0.5458470961    1.1247366713
 C    0.2996370300   -1.6453208431    1.8454293405
 N   -0.1333148644   -2.5264090260    2.4573370281
 H    0.6227918591    2.1679827275    0.3374136484
 H   -0.4915825251    1.7679237702   -0.9768921996
 H   -1.0564556321    1.6719114886    0.7000879427
 H    1.3894800914   -1.2720034529   -1.0656750388
 H    3.5028687034   -0.3511864370    0.1022332175
 H    3.6659978733    1.8801758426   -0.2395394478
 H    2.6995679564   -0.2243612082    2.3247532016
 H    1.7916026367    1.2816211107    2.0341792978