15

 O    0.1180167390    0.0207083085    0.1100790864
 C    0.0208729138    1.2049685225    0.0541069516
 C   -1.0724510108    2.2697384205   -0.0507614033
 C   -0.6892835828    3.0206181553    1.2928323302
 O    0.7934562706    3.0151643890    1.3001218076
 C    0.9802674807    2.4478143692    0.0214726595
 C    1.9528466107    2.3937790813   -1.1462812664
 O    0.7538854212    2.4197785623   -2.0103614923
 C   -0.0370201635    3.0297028048   -0.9393146868
 H   -2.1335891142    2.1036442209   -0.2297764832
 H   -1.0350564494    4.0591842836    1.3120849048
 H   -1.0577989264    2.4883323612    2.1723563486
 H    2.5671029423    3.2871641311   -1.3015406310
 H    2.5351872962    1.4802773243   -1.2847882616
 H   -0.1698760974    4.1043194255   -1.0795233340