12

 N    0.0821784208   -1.0867381180    0.0742887495
 C    0.0046690551    0.0654640772    0.0436177823
 C   -0.0834132480    1.4944882625    0.0059315129
 N   -1.1703577533    2.1625266545   -0.0042762417
 C   -0.7766417398    3.5479554575    0.0046052885
 C    0.0205406109    3.9990865779    1.2146196080
 C    0.7507776714    3.5358294059   -0.0050011970
 O    1.1039664166    2.1587365904   -0.0359184699
 H   -1.4127302139    4.2393886375   -0.5323811219
 H    0.0413741916    5.0668500656    1.4003833603
 H    0.0144831777    3.3711333714    2.0990502287
 H    1.4208470107    4.1544583177   -0.5860086696