16

 C   -0.0095895404    1.5887338735   -0.0279580927
 C   -0.0040142181    0.0454007865    0.0221845405
 O    0.7576649605   -0.3946611031    1.1738807683
 C    0.1959521304   -0.2608248988    2.3983446090
 N    0.9101744574   -0.4377250926    3.4229343831
 C   -1.3812157742   -0.4780446646    0.0390929929
 C   -2.5142931483   -0.8765543452    0.0418074748
 C    0.7052067975   -0.4937714981   -1.1442936268
 C    1.2774625463   -0.8951805553   -2.1192031531
 H    1.0221355913    1.9458232819   -0.0203684166
 H   -0.5078816981    1.9331880730   -0.9362502446
 H   -0.5396138026    1.9887680866    0.8399048442
 H   -0.8739946669   -0.0288010945    2.3758677541
 H    0.3407947579   -0.3371898397    4.2611615055
 H   -3.5107819258   -1.2457717331    0.0375571088
 H    1.7860542931   -1.2660325666   -2.9751006974