19

 C    0.0148322933    1.5338553034   -0.2359155028
 C    0.0046236771    0.0415451896    0.1234793572
 C   -1.3758611969   -0.5524110130    0.1177306930
 C   -2.4296122908   -0.3963504075    1.2166907308
 O   -2.9343516913   -1.7385744235    0.9686764545
 C   -1.9006989338   -1.9514936349    0.0078481771
 C   -2.0607727682   -1.0271253255   -1.1838383146
 C   -3.3819781590   -0.5670991516   -1.6713577489
 O   -3.5948367312   -0.2447858378   -2.8174233422
 H    1.0329687350    1.9331250308   -0.2179995778
 H   -0.3979846333    1.6982775056   -1.2360219290
 H   -0.5840830136    2.1168042127    0.4718664885
 H    0.6372188318   -0.5124109068   -0.5800832282
 H    0.4498153704   -0.1041199123    1.1166622099
 H   -1.9814936142   -0.3398315036    2.2155881126
 H   -3.2015225475    0.3726871008    1.1140307591
 H   -1.4338734007   -2.9290596829   -0.0387564670
 H   -1.3392534618   -1.1934546391   -1.9794537385
 H   -4.1890142850   -0.5501540144   -0.9116707936