15

 O   -0.0468662143    0.0039604921   -0.0194382036
 C   -0.0247590114    1.1973909744    0.0445599742
 C   -1.1149277759    2.2986711996   -0.0063773787
 C   -1.2740180834    2.7176980407    1.4342138462
 C   -0.1634380539    3.1890347116    2.0085885020
 C    0.9726350549    3.3945732971    1.0391608563
 O    0.4526471570    4.3339363281    0.0286586179
 C    0.0243133481    3.2055002862   -0.7110019056
 C    1.0647059681    2.2488180911   -0.0537795055
 H   -2.0406425394    2.0888402478   -0.5394403783
 H   -2.2231076743    2.5933903863    1.9419639719
 H   -0.0946396056    3.5235360372    3.0361884671
 H    1.9136531975    3.7391168882    1.4668930567
 H   -0.1040817122    3.3891174445   -1.7771604455
 H    2.0570028746    2.0217905552   -0.4385560352