22

 C   -0.1037292995    1.5405208962   -0.1199200370
 C   -0.0082933768    0.0195757537   -0.0212208650
 C   -1.3813707290   -0.5977275146    0.2512508138
 C    0.6958752295   -0.6841189106   -1.2017798292
 N    2.0822683379   -0.1631066204   -1.2750683689
 C    1.7457428721   -1.2515908619   -0.3240286528
 C    1.1376320090   -0.5786420169    0.9267322135
 C    2.0352317775    0.3856304098    1.6867577906
 O    0.5595234399   -1.5319432764    1.8063780693
 H    0.8477141688    1.9807815150   -0.4240229465
 H   -0.8595231863    1.8247891830   -0.8612773486
 H   -0.4040070600    1.9805548850    0.8376045700
 H   -2.0813081497   -0.2959675080   -0.5364877296
 H   -1.3392038840   -1.6878662176    0.2803095610
 H   -1.7832910381   -0.2562855726    1.2094263335
 H    0.2163248020   -1.1106097800   -2.0758479713
 H    2.5276524755   -0.5957837795   -2.0836832678
 H    2.2474864780   -2.2122416125   -0.3609969750
 H    2.5385845573    1.0721252094    1.0044950423
 H    1.4592082999    0.9606651585    2.4183118950
 H    2.8099914352   -0.1719038275    2.2303969039
 H    1.2669468708   -1.8807983724    2.3589541189