19

 C   -0.0263332460    1.5496711359   -0.1242953218
 C   -0.0479851838    0.0546725497    0.0291499717
 C   -1.1608085787   -0.6721948382   -0.1044629814
 C   -1.1960109936   -2.1534645806   -0.0209134820
 C   -0.3579956383   -2.9563808010   -0.9782198462
 C    0.0601528594   -2.8616423876    0.4805670902
 C    1.2043177879   -2.0140698023    0.9054225254
 O    2.0265557752   -2.4079487184    1.7047846721
 C    1.2840073546   -0.6016668145    0.3272793425
 H    0.6516858494    1.8563792776   -0.9316670736
 H   -1.0200308962    1.9469893442   -0.3471802285
 H    0.3413963151    2.0347847544    0.7889885458
 H   -2.1027509845   -0.1761662979   -0.3246423638
 H   -2.1407965321   -2.5919899530    0.2832436460
 H   -0.7202843157   -3.9236709826   -1.3075899363
 H    0.2178120823   -2.4111123601   -1.7176121673
 H   -0.0569119920   -3.7569174015    1.0797133084
 H    1.8851397613   -0.6504582607   -0.5951358548
 H    1.8780137458   -0.0036316234    1.0261633534