16

 O   -0.6318411866    0.8346317317   -0.7276909931
 C    0.0703225187    1.0451172797    0.2252382655
 C    1.3447054860    1.8725359368    0.1881372684
 C    1.5474226810    2.5538962309   -1.1673320434
 N    2.6527169435    3.4997987856   -1.0877447788
 C    2.7837951084    4.3959000971   -0.0527514194
 O    3.5043197990    5.3761486083   -0.1167759436
 C    2.0226100770    4.0427910202    1.1763494076
 C    1.3840655908    2.8797235572    1.3120751109
 H   -0.1689539795    0.6198891398    1.2267665459
 H    2.1572801009    1.1450830663    0.3700921560
 H    1.7692408482    1.8096786622   -1.9352560963
 H    0.6076576040    3.0446680199   -1.4580104840
 H    3.0693362010    3.8140063622   -1.9523568082
 H    2.0772014525    4.7743225557    1.9739753612
 H    0.8935614151    2.6183075363    2.2474098715