23

 C   -0.4869559603    1.2879733077    0.2663219483
 O    0.1052630163    0.0430984601   -0.0292720303
 C    0.8099391708   -0.5707482746    1.0510636539
 C    0.2127110479   -1.9511535074    1.3239750648
 C   -1.2258587122   -1.8969185129    1.8186651394
 O   -1.6607538732   -3.2331420493    2.0303362713
 C    2.3011155698   -0.6609787487    0.6810852334
 C    2.9136580372    0.6939607337    0.3332384368
 O    2.9468934621   -1.2475632869    1.8087325525
 H    0.2555367812    2.0482875505    0.5493308517
 H   -0.9987688506    1.6228080835   -0.6402694022
 H   -1.2268093620    1.2109554344    1.0772190191
 H    0.7293811908    0.0517867768    1.9554309573
 H    0.2441696124   -2.5392308734    0.3991042794
 H    0.8327662789   -2.4659306536    2.0624334029
 H   -1.2776528515   -1.3114375294    2.7526141073
 H   -1.8535065795   -1.3875749942    1.0724837404
 H   -2.5870534838   -3.2090232860    2.2867358556
 H    2.3818861903   -1.3245498752   -0.1957353083
 H    3.9709851024    0.5783925158    0.0676023965
 H    2.4017049292    1.1420919130   -0.5215909622
 H    2.8535674386    1.3755225867    1.1882408536
 H    3.8827651750   -1.3337009804    1.6040694990