20

 C   -0.3106206687    1.5167649118   -1.0322072410
 O    0.0937868082    0.3864440314   -0.2823851233
 C    0.8887487011   -0.5413818153   -1.0076780706
 C    1.8079542127   -1.2398666707   -0.0110509044
 C    0.0491806618   -1.5440061602   -1.8133973324
 N   -0.5084203090   -2.7055677547   -1.1268701192
 C   -1.4394709536   -1.7080368055   -1.6718036608
 C   -2.2476494798   -0.9633356998   -0.6535200234
 O   -3.1752551599   -0.2513584029   -0.9521974604
 H    0.5609142759    2.0701327902   -1.4122256405
 H   -0.9580681215    1.2487046163   -1.8780880000
 H   -0.8771294526    2.1611299367   -0.3566297903
 H    1.5003586500    0.0151488209   -1.7350602842
 H    2.4626836191   -1.9496455264   -0.5260521601
 H    2.4251171788   -0.5029395867    0.5083516843
 H    1.2142374184   -1.7931274648    0.7191843650
 H    0.4180135234   -1.7092486024   -2.8255827327
 H   -0.4739919198   -3.5357646541   -1.7108872614
 H   -1.9869783081   -1.9193813904   -2.5883724726
 H   -1.9462664762   -1.1497695831    0.3946626580