27

 C   -0.0767346441    1.6783409928   -0.0339345698
 C    0.1102103857    0.1600435590   -0.0974294214
 C    0.7242540903   -0.4270205277    1.1788174905
 C    0.9193181474   -1.9474063377    1.1090599140
 C    1.4036816775   -2.6079243789    2.4043937861
 C    2.7901219381   -2.1126572506    2.8267942013
 C    0.3921608128   -2.6035920634    3.6000871367
 C    0.6725162791   -4.1133506062    3.8233328672
 C    1.3302563570   -4.1710520135    2.4189741267
 H    0.8806802727    2.1891425416    0.1188528840
 H   -0.5171209257    2.0672768220   -0.9575386440
 H   -0.7361767374    1.9617434070    0.7941661878
 H   -0.8584904923   -0.3211978414   -0.2871848985
 H    0.7462712250   -0.0953566498   -0.9555878806
 H    1.6847659791    0.0677975285    1.3706066095
 H    0.0798117872   -0.1808294053    2.0344627148
 H   -0.0359610015   -2.4095898663    0.8235688281
 H    1.6242453890   -2.1867955695    0.2992733558
 H    2.7856274739   -1.0426778238    3.0585475744
 H    3.1430038982   -2.6385833879    3.7204005404
 H    3.5253175674   -2.2824766275    2.0311392188
 H    0.6079915134   -1.9243694698    4.4297968338
 H   -0.6334356766   -2.4206819808    3.2644200009
 H    1.3892818663   -4.2909271221    4.6294536028
 H   -0.1924982120   -4.7586730364    3.9926753907
 H    0.6436550072   -4.5522234360    1.6567807746
 H    2.2782037124   -4.7095064165    2.3280926952