14

 O   -0.2262601281    1.3763833079   -0.0023943591
 C   -0.1167354004   -0.0049732983    0.0319507704
 C   -0.4276755142   -0.8240683988    1.2620803818
 C   -1.5851158553   -0.1273807441    1.9905868125
 O   -1.7344578186    0.3482361019    3.0771808621
 N   -2.4196226124   -0.2157384463    0.8727946802
 C   -1.3907044536   -0.8221248333    0.0415860979
 C   -1.6694539079   -1.9113741755   -0.9109994372
 O   -2.7728928110   -2.2994356580   -1.1983160050
 H    0.3794704469    1.7518521468    0.6463950291
 H    0.6816016849   -0.4236688972   -0.5852117729
 H    0.2042919641   -1.6231882274    1.6247638592
 H   -3.0271554108    0.5331622286    0.5636562327
 H   -0.7526190036   -2.3450651862   -1.3705839318