16

 O   -0.0353581281   -0.1573474964    0.2010991532
 C    0.0052316085    1.0514736750    0.2159808623
 C    1.2146525620    1.8276692404    0.1169216781
 C    2.2082160411    2.5121889213    0.0368050577
 C    3.4312841986    3.2756139843   -0.0417844149
 C    4.0393933181    3.6740114282   -1.4199320915
 C    2.8731324479    4.6801092837   -1.5023148680
 N    3.3191227116    4.8305660066   -0.0310108927
 C    4.7456466703    4.7816611749   -0.6151899762
 H   -0.9159947807    1.6615661930    0.3096416096
 H    4.1446371223    2.9180376290    0.7076142719
 H    4.4390820427    3.0035142819   -2.1869087113
 H    3.0261355169    5.5888080741   -2.0884989548
 H    1.8587440877    4.2949838080   -1.6160457605
 H    5.5087906214    4.4935342803    0.1125856121
 H    5.0202346196    5.6967987557   -1.1433358753