20

 C   -0.1496703715    1.5499880703   -0.1595353809
 N   -0.0188503248    0.1074860996   -0.0079976075
 C    1.2950085065   -0.4871838602   -0.2079171257
 C    0.6780149233   -0.4551303130    1.1533182147
 C    1.2650445630    0.4033153354    2.2329306735
 C    0.6482112433    0.4351787911    3.5942392685
 N    1.9621343991   -0.1592964192    3.3941194612
 C    2.0931475041   -1.6017995612    3.5455005988
 H    0.7635460635    2.1242341877    0.0592903090
 H   -0.4350596481    1.7626248754   -1.1948315078
 H   -0.9493153647    1.9135408300    0.4935064351
 H    1.3276026282   -1.4060648193   -0.7882645223
 H    2.1370603034    0.1852330324   -0.3757320004
 H    0.2023545238   -1.3650401583    1.5120256245
 H    1.7405396725    1.3133149693    1.8742346672
 H    0.6155570701    1.3540098217    4.1746624783
 H   -0.1937273142   -0.2373679597    3.7621038016
 H    1.1800086325   -2.1761440554    3.3266140258
 H    2.8928395248   -1.9651749668    2.8924171778
 H    2.3785702352   -1.8145085397    4.5807724786