17

 N   -0.2878646375    1.3860040141    0.1963719555
 C   -0.2144426234    0.0246412287    0.0989283707
 N   -1.0706168323   -0.8281898460    0.5021364478
 C   -0.5944179358   -2.1220552035    0.0205121022
 C   -1.0946390937   -2.5219729368   -1.4035388767
 C    0.3708694409   -2.4106178978   -1.9423682061
 O    0.6344632759   -1.6242733649   -3.0698488378
 C    0.8271547391   -1.8505370997   -0.5680997971
 O    0.9068301622   -0.4098891229   -0.5692268259
 H    0.5989266976    1.8650639782    0.2348927405
 H   -0.9746288928    1.7110081923    0.8591306255
 H   -0.6863385673   -2.8944918747    0.7857334711
 H   -1.5542925872   -3.5080272876   -1.5020286270
 H   -1.7668366425   -1.7716157503   -1.8261359453
 H    0.8083251228   -3.3961159106   -2.1299801847
 H    0.5917935856   -0.7035624492   -2.7826588579
 H    1.7364666484   -2.2474628192   -0.1124369449