19

 C    0.0995619933    1.5178785817    0.0092409159
 C   -0.0156990305   -0.0100866269   -0.0242544100
 O   -1.3846267176   -0.4124492683    0.0871763730
 C    0.6201555620   -0.5749118035   -1.3189663583
 C    0.8468797238   -2.0624719638   -1.2858711906
 C    1.1251386320   -2.7062076395   -0.1526282737
 C    1.1891545472   -1.9751799212    1.1346899962
 O    2.0358518939   -0.7941513941    1.1868179495
 C    0.6267046242   -0.6183629826    1.2121768851
 H    1.1470676779    1.8291079735    0.0610190873
 H   -0.3398239054    1.9619832386   -0.8924075526
 H   -0.4275218145    1.9174021425    0.8806818695
 H   -1.8904841292    0.0783254382   -0.5690484005
 H   -0.0267552952   -0.3024615707   -2.1618914770
 H    1.5777033125   -0.0677589002   -1.4913530630
 H    0.8059951736   -2.6020633676   -2.2277165427
 H    1.2985551324   -3.7772885574   -0.1368164567
 H    1.2333310464   -2.5696392851    2.0443925780
 H    0.2125020431   -0.2655437338    2.1571945607