15

 N    0.0279703239    1.2954248099    0.4527102124
 C   -0.0095064402    0.1526440387   -0.2703243446
 O    0.8950206373   -0.2359793207   -0.9808974738
 C   -1.2992296407   -0.6892698542   -0.1639486830
 C   -1.8398813553   -1.1795891681   -1.5485436854
 O   -1.6630587964   -2.5569536709   -1.1953792708
 C   -1.0311219302   -2.2170734317    0.0449059685
 C   -2.3048288214   -0.1222515989    0.7155359717
 N   -3.0755826740    0.3680498159    1.4258279159
 H    0.8589045332    1.8619304006    0.3994815347
 H   -0.7371383020    1.5939559970    1.0342627284
 H   -2.8843783675   -0.9293956868   -1.7567503628
 H   -1.1912831609   -0.8742670647   -2.3750622048
 H    0.0377109343   -2.4507537278    0.0463091357
 H   -1.5315331201   -2.6648626084    0.9086227479