13

 N   -0.1460315673    1.3930674161    0.0807048545
 C    0.1154923490    0.0371575901    0.1570337607
 O    1.1940835641   -0.4382243101    0.4025926407
 N   -1.0555198344   -0.7245602106   -0.0350780732
 C   -1.1295589119   -2.0951864279   -0.0426223935
 C   -2.2243752243   -2.9081420440    0.1294790038
 N   -1.7777742887   -4.1866778870   -0.0386560868
 N   -0.5545338181   -4.2322502357   -0.2849682848
 O   -0.0689076781   -2.8300648183   -0.3016152393
 H    0.6932731934    1.9528691259    0.0783890173
 H   -0.8615882061    1.7124724101   -0.5546722958
 H   -1.9382672212   -0.2520469689    0.0836606288
 H   -3.2492613264   -2.6713612898    0.3558073376