18

 O    0.1768084089    1.0969726666   -0.1196260125
 C    0.1049895300   -0.3205341420   -0.0667655626
 C   -1.3693671888   -0.6728514971    0.1059732314
 C   -1.6555605424   -2.1900007615    0.0929022839
 N   -1.1445876032   -2.9122403313    1.2400184770
 C    0.0729586961   -3.5150364310    1.2352412254
 O    0.9169802228   -3.3664789787    0.3744626994
 C   -3.1570010986   -2.4019902351    0.0183805113
 O   -3.7926567336   -3.0028031544    0.8472958538
 H    1.1047030019    1.3463639172   -0.1563469013
 H    0.4918981954   -0.7823871390   -0.9874285021
 H    0.6943989747   -0.7249519084    0.7658199174
 H   -1.7388065069   -0.2396649255    1.0421718343
 H   -1.9273413419   -0.1973351112   -0.7104543741
 H   -1.2085914351   -2.6138455766   -0.8184559042
 H   -1.8493282249   -3.2322053622    1.8918131765
 H    0.2230628585   -4.1554880816    2.1255368191
 H   -3.6459237530   -1.9304774281   -0.8592617928