21

 O    0.0570112783    1.4452437960    0.0799016410
 C    0.0165561965    0.0301421137   -0.0775456604
 C   -1.4006160032   -0.4398589747    0.0054432405
 C   -1.8929308266   -1.6395177941   -0.7657518143
 C   -2.5479814983   -0.3070205992   -1.0036179312
 C   -3.5374373397    0.0109712256    0.1267502175
 C   -2.3803382905   -0.1545656050    1.1359217591
 C   -2.4055196373   -0.7722816510    2.5066018340
 C   -2.1331781713    0.7071453346    2.3323448308
 H    0.9806129916    1.7123104505    0.1128408046
 H    0.4403638154   -0.2727454104   -1.0487078748
 H    0.6189925801   -0.4654240155    0.7032741228
 H   -1.2385580233   -1.9843492048   -1.5612236961
 H   -2.4276228661   -2.4346902464   -0.2512287214
 H   -2.5321223048    0.1709789806   -1.9753169998
 H   -3.9088649668    1.0386349691    0.0905017381
 H   -4.3880646808   -0.6731784190    0.2249809312
 H   -3.3655315706   -1.0699589714    2.9168172557
 H   -1.5803888244   -1.4158012201    2.7971054943
 H   -1.1249738321    1.0726116826    2.4892047284
 H   -2.9106047561    1.4076464289    2.6224097701