13

 N    0.0653893563    1.3241999245    0.1405280306
 C   -0.0624577366   -0.0261209735    0.0494616653
 N   -1.1561575098   -0.7186251080    0.0256733528
 C   -0.6897206895   -2.0364901384    0.0034424964
 C   -1.0510500237   -3.3468405750   -0.0272498267
 O    0.0912605203   -4.1106513423   -0.0438564826
 C    1.1918050519   -3.2903055965   -0.0239019539
 C    0.7303736510   -2.0211573762    0.0058916440
 O    1.1430199253   -0.7126003657    0.0364640831
 H    0.9267680285    1.7138031785   -0.2089112624
 H   -0.7698745943    1.8397792505   -0.0881062831
 H   -1.9781275860   -3.8916057300   -0.0399811367
 H    2.1516195267   -3.7736115479   -0.0328848368