15

 O   -0.1863982176    0.0392712062   -0.3047112198
 C   -0.0940911118    1.2061783413   -0.0972026626
 N   -1.0748011510    2.2559069221   -0.0629255489
 C   -0.1973331025    3.0709162442    0.7977100978
 C    0.8807276972    4.2539873582    0.6994359865
 N    1.8429669939    3.1206493188    1.1643311816
 C    0.9787332271    2.3389350524    0.1767097690
 C    1.2005271328    3.0926373155   -1.1587740708
 C    1.1433209187    4.3728552294   -0.7906383884
 H   -2.0532939411    2.0667676715    0.1188366213
 H   -0.3426579527    2.8356107405    1.8538157735
 H    0.8369228252    5.1358929843    1.3382814212
 H    2.7763951969    3.2797255087    0.7795688309
 H    1.3354403765    2.6270069024   -2.1237440797
 H    1.2079558383    5.2831520745   -1.3684003116