16

 C   -0.1118635982    1.5694243787    0.0614211925
 C   -0.0100227595    0.0826843587    0.0052238327
 C    0.0370035370   -0.7496216528   -1.0694021748
 C    0.0448916042   -0.5674046389   -2.5460894900
 C    1.4524924572   -0.6535170130   -3.1340744776
 O    1.8950864028    0.1231973511   -3.9365049292
 O    0.1325359977   -2.0398154632   -0.5960783525
 C    0.1299567297   -1.9042695881    0.7483892185
 N    0.0458688279   -0.6877156449    1.1685543851
 H    0.7579149549    1.9992621327    0.5690667642
 H   -0.1707624565    2.0051414235   -0.9389492331
 H   -0.9989872156    1.8756254850    0.6253247486
 H   -0.5567871006   -1.3577352928   -3.0161918038
 H   -0.3861233659    0.3961704353   -2.8260648221
 H    2.0535549794   -1.5097076823   -2.7552399954
 H    0.1952610654   -2.8121005489    1.3276611969