21

 C   -0.0679281095    1.4945642126    0.1940006553
 C    0.0431582225   -0.0230835664    0.0190787714
 C    0.7213405169   -0.4707710993   -1.2891903612
 C    2.1828476377    0.0263545003   -1.3969435865
 C    2.9718353523   -0.6446890408   -2.4905133795
 C    2.7301740205   -1.8976554477   -2.8782806614
 C    1.6427153849   -2.6864804010   -2.2512338449
 O    1.6331926835   -2.7655290984   -0.8024060569
 C    0.6349585380   -1.9767344077   -1.4468247220
 H    0.9145275912    1.9713596656    0.2628902495
 H   -0.6016027068    1.9519273695   -0.6471875144
 H   -0.6163509188    1.7418112573    1.1081631628
 H    0.5937712962   -0.4573371887    0.8634433837
 H   -0.9630291426   -0.4604706675    0.0556556780
 H    0.1538386329   -0.0472022222   -2.1327069428
 H    2.1916423327    1.1105573155   -1.5459236731
 H    2.6851996529   -0.1522497248   -0.4360049044
 H    3.7822496247   -0.0808100558   -2.9445972863
 H    3.3179218803   -2.3710284827   -3.6585444908
 H    1.3660271313   -3.6224849630   -2.7323672658
 H   -0.3729036910   -2.3940664849   -1.3917205606