16

 C   -0.0624481788    1.6311632205   -0.0526266789
 C    0.0411426572    0.1149685486   -0.0167471467
 O   -1.2285046905   -0.4808912609    0.2033312047
 C    0.7392230871   -0.6343895463   -1.1629540015
 C    2.1778232618   -0.3530874856   -1.2048110561
 N    1.7038877512   -1.3429123656   -0.1909941772
 C    1.0982192188   -0.5584521883    0.8684607391
 N    1.2423072486   -0.5720654605    2.1158061760
 H    0.8865546740    2.1054574134   -0.3172249381
 H   -0.8232718209    1.9314739504   -0.7788462720
 H   -0.3581472157    2.0026417026    0.9338539061
 H   -1.3995529429   -0.4445695043    1.1516641641
 H    0.2088788851   -1.2050034402   -1.9149636748
 H    2.7653779125   -0.8234312068   -1.9865639633
 H    2.5694579027    0.5993495778   -0.8581826647
 H    1.9661595400   -1.2413549349    2.3919074032