20

 C    0.0270721506    1.4435614719   -0.1570997694
 N    0.0442537387    0.0186204017    0.1184269130
 C   -1.1752204002   -0.6609502273    0.0435665317
 C   -2.4581240746   -0.1464137105   -0.0059850367
 N   -3.3048704777   -1.2176846249   -0.0239150900
 C   -4.7467270502   -1.1987445412    0.0448369096
 N   -2.6463452219   -2.3874380545    0.0144591753
 C   -1.3519893818   -2.0702590628    0.0529544686
 C   -0.2891854933   -3.1203287902    0.0868223530
 H    1.0480375147    1.8317357810   -0.1242428431
 H   -0.4167799120    1.7017576557   -1.1336305690
 H   -0.5502571737    1.9604330943    0.6180354566
 H    0.7791049107   -0.4629198996   -0.3817115823
 H   -2.8280675241    0.8652663734   -0.0304993864
 H   -5.1387331941   -0.3814451404   -0.5669261411
 H   -5.1151616015   -2.1488147964   -0.3432174191
 H   -5.1044493306   -1.0731027030    1.0741364060
 H    0.3430445483   -3.0964338248   -0.8108971280
 H    0.3737438006   -2.9915290926    0.9506107133
 H   -0.7475125179   -4.1097244499    0.1463591878