20

 C    0.1110961381    1.6238231041    0.1492199679
 C    0.0084013791    0.0952477709   -0.0197539322
 C    0.6652351441   -0.4378114402   -1.2519796445
 C    0.1092380393   -0.7238218904   -2.4821477643
 O   -1.2226788202   -0.5493137983   -2.7536204860
 C    1.1299888372   -1.1886851902   -3.3514745688
 C    2.2978123031   -1.1728528534   -2.6197594878
 N    2.0219664669   -0.7151822868   -1.3604382669
 C    2.9875003757   -0.6182598473   -0.2887748244
 H    1.1532686557    1.9527748111    0.2191842883
 H   -0.3394323607    2.1341665715   -0.7069051823
 H   -0.4058812263    1.9534224197    1.0568887911
 H    0.4124880738   -0.3970935068    0.8747129698
 H   -1.0491690039   -0.1845013500   -0.0683807892
 H   -1.4061334841   -0.9242349650   -3.6192036915
 H    1.0246809354   -1.4891179509   -4.3833333593
 H    3.3026217693   -1.4528717010   -2.8938635940
 H    3.0381957482    0.3984626394    0.1144520736
 H    2.7483252106   -1.3031210780    0.5329572647
 H    3.9722641787   -0.8820657884   -0.6788087743