16

 O    0.0096637346    1.4346939504   -0.0328556207
 C    0.0244283824    0.0297459249   -0.0141739958
 C   -1.4111328119   -0.5857747446   -0.0888070245
 C   -1.3334416510   -1.7698756634   -1.0835932778
 C   -0.0199967611   -1.5425461739   -1.7914180357
 C    0.7064350396   -0.5804257167   -1.2282583409
 C    0.7374325145   -0.4393204760    1.2466860652
 O    1.2263177252    0.3305174759    2.0375965814
 H    0.4846881690    1.7147126746    0.7662180919
 H   -1.8027201323   -0.8760820248    0.8904688051
 H   -2.0508278576    0.2117471522   -0.4734906598
 H   -1.3349509472   -2.7373573836   -0.5642740929
 H   -2.1827556540   -1.7970644218   -1.7756851711
 H    0.2794670660   -2.1188654672   -2.6602744784
 H    1.6837731792   -0.2367558285   -1.5459848430
 H    0.7834268345   -1.5378001975    1.3920859771