18

 O    0.0040791881    1.3934718680   -0.0742779694
 C    0.0415344893   -0.0149573820    0.0684986774
 C   -1.3352468773   -0.6096572007   -0.0551665102
 C   -2.2305936624   -0.5476802645   -1.3204151863
 C   -3.0691840239   -1.5567763117   -0.4751559438
 C   -1.7010239116   -2.1129267494    0.0370515069
 C   -3.4553285641   -0.6574259887    0.7049293300
 O   -2.1848114087   -0.0160343343    0.9603830819
 H   -0.7002693465    1.6962289717    0.5113919851
 H    0.6900583901   -0.4027590395   -0.7234998011
 H    0.4757932358   -0.3138059713    1.0366776709
 H   -2.6729271834    0.4185108123   -1.5722585426
 H   -1.7685183138   -1.0074589909   -2.1954544618
 H   -3.8420655585   -2.1931771631   -0.9037093443
 H   -1.1922550474   -2.7297222695   -0.7056354915
 H   -1.6630019733   -2.5757084940    1.0263962610
 H   -4.2144147950    0.0925924806    0.4536355966
 H   -3.7795603872   -1.2114619430    1.5935534213