13

 O    0.0055592216    1.3979620740    0.0092893590
 C   -0.0147793328   -0.0021102618    0.0030230244
 C   -1.4575969532   -0.4766357679    0.0127818938
 O   -2.4135173425    0.2593967125    0.0239935317
 C   -1.6653926787   -1.9536827691    0.0078242090
 N   -0.6970672875   -2.8347339048   -0.0041494064
 O   -1.2981821039   -4.0503667448   -0.0046660650
 N   -2.6683776534   -3.9336083883    0.0072062936
 C   -2.9064383029   -2.6544279204    0.0148391778
 H    0.9239627689    1.6826973243    0.0026816244
 H    0.4713585540   -0.4426585933   -0.8839118964
 H    0.4859588368   -0.4507528723    0.8776926209
 H   -3.9088018865   -2.2581895882    0.0248792831