14

 N    0.0689519716    1.3868300914    0.1594031696
 C    0.0342364983    0.0201722071    0.0312087532
 C   -1.0768241831   -0.7858917077    0.0242218189
 N   -0.6157960857   -2.0773430475   -0.0027886227
 H   -1.3007285320   -2.8274503567   -0.0274740415
 C    0.7099711536   -2.1156362003   -0.0216263188
 N    1.1312597833   -0.8287809665    0.0082285765
 C   -2.5602727935   -0.4486470455    0.0186677273
 O   -3.2877277213   -1.4534775548   -0.0177892644
 O   -2.7755607179    0.7812652206    0.0469021036
 H    0.6414407751    1.8757424996   -0.5180026412
 H   -0.9152403159    1.6905636925    0.1317536688
 H    1.3428931378   -2.9835328903   -0.0648396499
 H    2.0991574497   -0.5472890320    0.0379730406