11

 N    0.0175663052   -1.1352073669   -0.0035803842
 C    0.0017246818    0.0201539427    0.0028819294
 C   -0.0178938717    1.4672055996    0.0110198256
 N   -1.2239390001    2.0408510843    0.0300504764
 C   -1.2274538446    3.3743874899    0.0369998563
 C   -0.0538878998    4.1209576780    0.0251552864
 C    1.1394913599    3.4066600219    0.0054302460
 N    1.1721444336    2.0735210602   -0.0019077322
 H   -2.2028513495    3.8538109807    0.0525507632
 H   -0.0685760540    5.2039285942    0.0309706994
 H    2.1015250994    3.9125000254   -0.0048597764