21

 C    0.0809451572    1.5080194031    0.0636169949
 C   -0.0369139794   -0.0265759744    0.0422863405
 N    0.5458528420   -0.5521979082    1.2839266517
 C   -1.4711811930   -0.3980600207   -0.0762653998
 N   -2.5814206040   -0.7168765224   -0.1406700751
 C    0.7067610839   -0.5944496004   -1.1851477256
 C    2.2475962403   -0.4173929285   -1.2765332071
 C    2.3217856334   -1.8273961127   -1.9228426370
 C    0.9082819988   -2.1268667545   -1.3529479274
 H    1.1332912298    1.7826929167    0.1671521649
 H   -0.3157094703    1.9417849509   -0.8573477158
 H   -0.4756194239    1.9311799277    0.9052578989
 H    0.1142386146   -0.0979756107    2.0836255621
 H    0.3446709938   -1.5431791734    1.3764451506
 H    0.2236426257   -0.1906636101   -2.0807956059
 H    2.6264711916    0.4303850738   -1.8517854245
 H    2.6926486836   -0.4050924735   -0.2788482195
 H    2.3137177669   -1.7756628943   -3.0150451555
 H    3.1385528562   -2.4818402441   -1.6116747195
 H    0.9757177709   -2.6446338691   -0.3916469154
 H    0.1957788218   -2.6610781151   -1.9843931953