19

 C    0.1684720373    1.4089125040   -0.4499704138
 C    0.0027989902    0.0048444061    0.1004461121
 O    0.5724565427   -1.0115813984   -0.7746215590
 C    1.2226227564   -1.6517768759    0.3210476008
 C    2.7070020672   -1.2351855193    0.5991570957
 O    3.2005792828   -0.1233054975   -0.1746321233
 C    3.0344165627    0.7831067014    0.9461366591
 C    2.2330663776   -0.2677827311    1.7214388916
 C    0.7480913513   -0.5838214599    1.3400900508
 H    1.1768081268    1.5580554956   -0.8349690703
 H   -0.5302607560    1.5591482426   -1.2792594182
 H   -0.0529943593    2.1603617085    0.3154517677
 H   -1.0705041097   -0.2005373304    0.2277353484
 H    1.0059923410   -2.7226679561    0.3938683757
 H    3.4511165484   -2.0294661850    0.7170587596
 H    4.0037015222    1.0012725673    1.4153316656
 H    2.5565349055    1.7246894913    0.6681699300
 H    2.4614729679   -0.4086764945    2.7775282128
 H    0.1031695752   -0.8146102887    2.1873483346