15

 O    0.0170319168    0.0188802591    0.1204296193
 C   -0.0350037150    1.2036778665    0.0106353338
 C   -1.1613957409    2.2145985708   -0.2558939587
 C   -0.0674396762    3.2950362160   -0.5285929513
 C    0.0161541259    4.4575653359    0.4647749047
 O    0.7536040627    3.9757003586    1.5980289204
 C    1.4417809098    2.8316187765    1.3242214159
 O    2.2078822739    2.3394337047    2.0953734608
 C    1.0429292258    2.3160207122   -0.0599314948
 H   -1.8182522813    1.9545387408   -1.0894957865
 H   -1.7806994643    2.4081696867    0.6268528511
 H   -0.0210592712    3.6228749318   -1.5660096158
 H    0.5501661808    5.3175541875    0.0460838000
 H   -0.9617519325    4.7924549936    0.8216799782
 H    1.9258763258    2.0980975794   -0.6609964471