18

 C   -0.0090187352    1.5342578447    0.0135637353
 C   -0.0554863201    0.0344878081    0.1270221441
 C   -1.3244010943   -0.7292379974   -0.2615975079
 C   -1.2880221309   -2.0532945006    0.5076665997
 C   -0.1764966109   -3.0394840705    0.2626120314
 C   -0.0601703297   -2.0579235652    1.4046379276
 C    0.6872486377   -0.7778221605    1.1107430495
 O    1.1532668465   -0.6564881477   -0.2444934704
 H    0.9581571356    1.9128946830    0.3536099167
 H   -0.1489668064    1.8506836087   -1.0262802522
 H   -0.7997398397    1.9971978947    0.6134394587
 H   -2.2006473400   -0.1464434544    0.0450737429
 H   -1.3884165555   -0.8624803274   -1.3475149486
 H   -2.2318143734   -2.4459470769    0.8697208760
 H   -0.3752626715   -4.0747653544    0.5186722625
 H    0.4786808822   -2.8902286044   -0.5865238347
 H   -0.0900474962   -2.4066268739    2.4299517448
 H    1.3421390920   -0.3452013562    1.8631756547