14

 C   -0.0915521392    1.4630605793    0.0105500409
 C   -0.0016140236    0.0122092709    0.0025688619
 C    0.0814172316   -1.1917583552   -0.0040915782
 C    0.1619871878   -2.5992775908   -0.0117953891
 C    1.2412319742   -3.4745086686   -0.0227728968
 C    0.6658181904   -4.7576805689   -0.0258961749
 N   -0.6660799159   -4.7078257612   -0.0176193360
 N   -0.9475678090   -3.3974301245   -0.0092075050
 H    0.9056521632    1.9162015196    0.0033838112
 H   -0.6315789247    1.8345799687   -0.8676023617
 H   -0.6149394236    1.8259189211    0.9022973963
 H    2.2835667622   -3.2031140443   -0.0276517025
 H    1.1639324885   -5.7159268117   -0.0338085011
 H   -1.9065385620   -3.0923206443   -0.0018574049