15

 C   -0.0503593693    1.4218310873    0.0411920636
 O   -0.0491267510   -0.0074519402   -0.0046625456
 C   -1.2331116797   -0.6280337541    0.0138371516
 C   -1.2426316478   -2.0292232175   -0.0312241277
 C   -2.4917780598   -2.6174545445   -0.0095410009
 N   -3.6413139291   -1.9294076853    0.0501925324
 C   -3.4941600172   -0.6140235252    0.0879583215
 O   -4.6273117000    0.1006067368    0.1481323477
 N   -2.3508836431    0.0856008438    0.0733941671
 H    1.0004586026    1.7109142981    0.0147966230
 H   -0.5822172083    1.8405010916   -0.8171935911
 H   -0.5218063761    1.7835129703    0.9587846870
 H   -0.3228545650   -2.5946106845   -0.0795272146
 H   -2.5892159276   -3.7000413156   -0.0414223129
 H   -4.3633387887    1.0296213389    0.1696533790