19

 C   -0.0790186415    1.5667701543    0.0690765425
 C    0.0150949733    0.0677518969    0.0306517465
 C   -0.8193902630   -0.8518727727    0.9089164221
 C    0.6734602434   -0.9387388254    0.9436047008
 O    1.1404369985   -1.7467428683   -0.1394961001
 C    0.6525081983   -0.7838946780   -1.1029091358
 C   -0.2245106969   -1.3941351706   -2.1856144602
 C    1.8184598421   -0.0177460280   -1.7269131565
 O    2.9554471425   -0.0651202871   -1.3461343533
 H    0.8658502446    2.0441460744   -0.2118140777
 H   -0.8597573124    1.9378204739   -0.6056487490
 H   -0.3321531532    1.9080151156    1.0775095640
 H   -1.2840316633   -0.3410664608    1.7476303319
 H   -1.3934114598   -1.6798650286    0.5037422370
 H    1.3108147183   -0.8385319767    1.8138643330
 H   -1.1202745232   -1.8448036686   -1.7544275107
 H   -0.5336060979   -0.6323765598   -2.9091399814
 H    0.3257306193   -2.1734190464   -2.7231918141
 H    1.5173208807    0.6289453958   -2.5852963091