23

 C   -1.5598621393   -0.0533682133    0.2700743195
 C   -0.0288592964   -0.0482594761    0.2551675484
 C    0.5712944383   -0.6038266509   -1.0452587142
 C    2.0855585825   -0.3505509201   -1.1163046614
 O    2.3039878112    1.0396377564   -1.2017164122
 C    3.6705517507    1.3792203908   -1.2163160633
 C    0.3518078749   -2.1160361777   -1.1782100397
 C   -0.0039730068   -2.6375551310   -2.5571830188
 O    0.4794960432   -2.8535614244   -0.2270965824
 H   -1.9691590763    0.5406288497   -0.5551811500
 H   -1.9576659373   -1.0701970321    0.1834244351
 H   -1.9436135787    0.3696260996    1.2034028773
 H    0.3450526681    0.9707105597    0.3905001915
 H    0.3511370535   -0.6518256174    1.0864667386
 H    0.1224060498   -0.0992828337   -1.9101891045
 H    2.5693465414   -0.7713819188   -0.2195002753
 H    2.5279798128   -0.8573165774   -1.9922553429
 H    4.1840015159    1.0479673039   -0.3001466953
 H    4.1921105082    0.9366636525   -2.0798971207
 H    3.7356676862    2.4677233590   -1.2847971254
 H   -1.0018902667   -2.2766480234   -2.8345367305
 H    0.6889784496   -2.2498044708   -3.3121032620
 H    0.0035020251   -3.7282216545   -2.5637123717