19

 C    0.0097252149    1.5380134871   -0.0224759113
 C    0.0387757938    0.0257069386   -0.0044679996
 C    0.4701962251   -0.7029812747   -1.2783895071
 C    0.3869449396   -1.9950156565   -0.9715764345
 C   -0.0911516679   -1.9808942393    0.4763922842
 O   -0.3647839627   -3.1790863460    1.1327785128
 C    0.6535770690   -0.7883963041    1.2033041839
 C   -0.6212720109   -0.5418398350    2.0453261951
 C   -1.1425270208   -0.8307538840    0.6155783266
 H    1.0045238566    1.9422916841   -0.2413124530
 H   -0.6715462639    1.9034699087   -0.7991690906
 H   -0.3172973979    1.9623217248    0.9305586298
 H    0.7626121852   -0.2263887219   -2.2045150621
 H    0.5791956291   -2.8774039295   -1.5661126096
 H    0.4533890322   -3.6825655933    1.1973712485
 H    1.6996485312   -0.7715736281    1.5259893656
 H   -0.8518620178   -1.2999992806    2.7947656324
 H   -0.7741806819    0.4635008247    2.4422079350
 H   -2.1761799230   -0.8612100949    0.2594505438