15

 N    0.0954009336    1.3898900940   -0.1458924923
 C   -0.0110471980    0.0288207258    0.0039147488
 N    1.1564271853   -0.6589558998    0.1134240436
 H    1.9742828792   -0.2652322305   -0.3248367805
 H    1.0391570519   -1.6714838028    0.0610576958
 C   -1.2244191221   -0.6321830887    0.0308572377
 C   -1.2974788275   -2.0786103030    0.0247451885
 O   -0.4267584031   -2.9325422600    0.0261299308
 O   -2.6423197312   -2.4172699714    0.0199020885
 C   -3.3731797229   -1.2476178310    0.0321230415
 C   -2.5922475179   -0.1543112558    0.0410384002
 H    0.8918662620    1.8256695845    0.2955729610
 H   -0.7585113749    1.9134691326   -0.0387656999
 H   -4.4433603665   -1.3754382736    0.0360208198
 H   -2.9447055078    0.8664768898    0.0500239164