21

 C    0.6735453394   -0.7847307222   -1.5355229786
 C    0.0540827836   -0.1378980532   -0.2919804761
 C   -1.4454286407   -0.4363828911   -0.1028298142
 C   -2.3213042784    0.1928209024   -1.2002902506
 O   -2.1722427585    1.5971717365   -1.2369708859
 C   -1.7840366962   -1.9109401703    0.3120447922
 C   -2.0850382062   -1.4547673171    1.7752059191
 C   -1.9618792310   -0.0114759006    1.2810355799
 O   -2.2833457011    1.0613824000    1.7216135776
 H    1.7479558316   -0.5810974231   -1.5739681276
 H    0.5435327627   -1.8723273796   -1.5366104492
 H    0.2335824839   -0.3927566041   -2.4569677793
 H    0.6003564581   -0.4727424832    0.5993594497
 H    0.1725090354    0.9486698754   -0.3438284573
 H   -2.0390205054   -0.1838871698   -2.1892202627
 H   -3.3722767240   -0.0973480441   -1.0339049671
 H   -2.3615075508    1.9205909711   -0.3451678238
 H   -2.6636951235   -2.3091433778   -0.1991949226
 H   -0.9648437674   -2.6230027006    0.2046827143
 H   -3.0504134174   -1.7220836781    2.2124148571
 H   -1.3001924342   -1.7177670505    2.4915037552