23

 C   -0.3817130291    1.5489708033    0.0324934703
 C    1.0916039637    1.2623387168    0.0954937751
 C    0.0934207204    0.1092756369    0.0167951212
 C   -0.1484560026   -0.6803382577    1.2952523578
 C    0.8043563271   -1.8530124229    1.5627280052
 C    0.5817995220   -3.0666343442    0.6535120167
 C    1.0497416094   -2.8946019433   -0.7977020634
 C    0.3840818409   -1.8280660955   -1.6322197419
 C    0.0096631458   -0.5904211548   -1.2977410471
 H   -0.8746026316    1.9092864663    0.9292046772
 H   -0.7823896690    1.9602996281   -0.8883846584
 H    1.6938189428    1.4719908411   -0.7813150524
 H    1.6081303651    1.4152252894    1.0378247148
 H   -0.0872146857    0.0197791007    2.1373641358
 H   -1.1799965741   -1.0591602973    1.2874324181
 H    1.8455923873   -1.5119156304    1.4805828518
 H    0.6671425109   -2.1700353450    2.6037585675
 H    1.1151812155   -3.9275365264    1.0748261781
 H   -0.4842477674   -3.3300165745    0.6617835042
 H    2.1350995931   -2.7042123857   -0.7933703836
 H    0.9307961285   -3.8553162688   -1.3124503323
 H    0.2479539236   -2.0999315907   -2.6776967440
 H   -0.3875446665    0.0268339844   -2.1031206308