18

 O   -0.0932302535    1.3720045098   -0.0229089621
 C    0.0006846277   -0.0325271736   -0.0065315209
 C   -1.3225759089   -0.6536629292   -0.4864202684
 C   -1.6996273333   -1.6046622481    0.6286524695
 C   -0.8150102952   -1.6419638793    1.6279133538
 C    0.3364377781   -0.7190012576    1.3729620332
 C    1.6513972688   -1.2513924158    0.7373912427
 N    1.2761276335   -2.0623296595   -0.4415250051
 C    1.3368610643   -0.5873013751   -0.5597469650
 H    0.7297310230    1.7320411902    0.3268964491
 H   -2.0715714211    0.1326574777   -0.6375418059
 H   -1.2022654459   -1.1817838343   -1.4390017174
 H   -2.6102246591   -2.1941226542    0.5895300214
 H   -0.9028178044   -2.2647496554    2.5115349622
 H    0.5430717456    0.0004995099    2.1727485205
 H    2.6045641828   -1.4026997463    1.2301779557
 H    2.1389787885   -2.4314305819   -0.8402862625
 H    1.9804207192   -0.1063504274   -1.2887692807