16

 O   -0.4905194250    2.3184990450    0.5245531657
 C    0.2637170631    1.4770156026    0.1064635403
 C    1.4613260304    1.7432416754   -0.7854175621
 C    1.4488395357    3.0763244950   -1.5116510851
 C    1.2512187374    4.4046561798   -0.8519120873
 N    1.8640216235    4.4631758874    0.4749821497
 C    3.1262732414    4.0985607543   -0.0243744064
 O    4.1647950969    3.8569117074    0.5240441241
 C    2.6058025326    4.0893231564   -1.4602003893
 H    0.1400094072    0.4088175748    0.3951646174
 H    2.3431058786    1.6408251176   -0.1351361869
 H    1.5501963199    0.9153428559   -1.4990880873
 H    1.0003461852    3.0303708313   -2.5025151424
 H    0.5222462931    5.1425843273   -1.1574874038
 H    1.4366376064    4.0514220369    1.2972220221
 H    3.0891244533    4.4763687627   -2.3454001087