20

 C   -0.0510461740    1.5267263765   -0.0688794172
 C   -0.0351881552    0.0071120607    0.0253835341
 O   -0.1114534396   -0.5512558541    1.0931751258
 C    0.0148952277   -0.8169071460   -1.2828818077
 C    0.6438892776   -2.1934731154   -1.0226951903
 C   -1.4582581097   -0.9679191556   -1.7359482174
 N    0.7851524606   -0.0681304947   -2.2914505160
 C    0.9329601700   -0.4307273157   -3.5960465566
 O    0.3694641240   -1.3476642177   -4.1553100434
 H    0.9768213964    1.9069397293   -0.1327067042
 H   -0.5877748278    1.8870044374   -0.9494022942
 H   -0.4926901995    1.9286782107    0.8438034513
 H    0.0964615432   -2.7124115749   -0.2347593814
 H    0.6187901397   -2.7840854580   -1.9402361757
 H    1.6833209374   -2.0879161129   -0.6981397639
 H   -1.9223488596    0.0073112496   -1.9111111215
 H   -1.4959401767   -1.5381444068   -2.6638975849
 H   -2.0238582448   -1.4909151503   -0.9606548905
 H    1.4364788946    0.6265489698   -1.9609012428
 H    1.6448787957    0.2408224181   -4.1186440334