15

 C    0.9099723420    0.8459981794   -0.2602354327
 O   -0.2454894715    0.2657246319   -0.8583815640
 C   -0.3522428747    0.7127576418    0.4935118123
 C   -0.5343218714   -0.3309153758    1.5390007813
 C   -0.3143661932   -1.6887222943    1.2797266754
 N   -0.4559905390   -2.6213256434    2.2204880316
 C   -0.8283841514   -2.1898170617    3.4280835635
 C   -1.0672837843   -0.8425037467    3.6849106288
 N   -0.9258524236    0.0926684945    2.7449653464
 H    1.7270367595    0.1569673697   -0.0522582871
 H    1.2000485914    1.8219098083   -0.6461381826
 H   -0.9537258237    1.6070634855    0.6482650367
 H   -0.0326826631   -2.0160643529    0.2838219620
 H   -0.9476295629   -2.9377941262    4.2073161193
 H   -1.3864521840   -0.5087111601    4.6689726491