18

 O    0.0825902807    1.4617989615    0.1747116350
 C   -0.0144466739    0.0870753825   -0.0603861209
 C    0.2650298890   -0.4327812188   -1.5054017973
 C   -1.0327679085   -1.2839482330   -1.4363593979
 C   -1.4131405058   -0.6038013516   -0.0869790300
 N   -1.5316685003   -1.5282079337    1.0541040963
 C   -0.1572316105   -1.8799467355    1.4492112813
 C    0.7126373605   -0.6863459114    1.0463336936
 O    1.7325935083   -0.3021432497    1.5636872322
 H    0.9237827860    1.5994543194    0.6358258790
 H    0.1927953150    0.4052600568   -2.2023368716
 H    1.2085678240   -0.9563143257   -1.6809651187
 H   -1.7417183287   -1.1315372421   -2.2515627787
 H   -0.8659500279   -2.3576948914   -1.3267987205
 H   -2.2727883931    0.0644950961   -0.1374907950
 H   -1.9744538409   -1.0402638281    1.8263797770
 H   -0.0710451889   -2.0930837735    2.5163447199
 H    0.1852386652   -2.7746149720    0.9100908464