21

 C   -0.3019912410    1.5677034640    0.0236504856
 C   -0.0322734900    0.0644938701    0.0171256298
 C   -1.3316539449   -0.7056076174   -0.2440220794
 C    1.1234042210   -0.4832634456   -0.9028952519
 C    1.7253363340   -1.2036331340    0.3102648786
 C    2.1650578508   -0.2029145202    1.3581087797
 C    2.7887991679    1.0562348667    1.0564718829
 C    3.3708542003    2.0842058479    0.8247243199
 C    0.6932117804   -0.5615789647    1.2284132498
 H    0.6065481845    2.1452066821    0.1988109887
 H   -0.7279288946    1.8838387867   -0.9360769319
 H   -1.0259857621    1.8266396153    0.8053204426
 H   -1.7568150648   -0.4287954629   -1.2152346625
 H   -1.1637216783   -1.7878846951   -0.2430991366
 H   -2.0807174314   -0.4825841495    0.5248021007
 H    0.7595180559   -1.1559016060   -1.6824733986
 H    1.7737783795    0.2698149384   -1.3569476655
 H    2.1189014361   -2.2130352778    0.3174237109
 H    2.6037756014   -0.6892127481    2.2277836342
 H    3.8689451150    2.9991796190    0.6196673217
 H    0.1821985802   -0.9922158790    2.0839400213