15

 N   -0.0967638663    1.3887865097   -0.2686326567
 C   -0.0321681077    0.1535095079    0.0237078162
 C   -1.2957748842   -0.6714768945    0.0830556914
 N   -1.5537840875   -1.3099963476    1.3691353913
 C   -0.7522643559   -2.2029854305    1.7668511748
 N    0.4483232763   -2.6132114442    1.1793678918
 C    1.4526729135   -1.8492844695    0.5870476971
 O    2.5632203596   -2.3100391960    0.4273488335
 N    1.1689334952   -0.5353761397    0.2495770266
 H    0.8249406161    1.8315249174   -0.2859375480
 H   -2.1188088210    0.0020037733   -0.1510329249
 H   -1.2393044349   -1.4410868326   -0.7032796281
 H   -0.9958865150   -2.7700420115    2.6663013492
 H    0.8368532973   -3.4859092241    1.5101870896
 H    2.0143676244   -0.0561695379   -0.0306197639