13

 O   -0.0552789031    1.4933465167    0.1291462551
 C    1.3787983512    1.4839583506   -0.0432174756
 C    1.9909787221    0.6109445917    1.0892220257
 C    0.9391186949   -0.4983490486    1.0944735080
 C    2.1536370670   -0.6008605019    0.2001061929
 C    1.3383536749    0.1670751425   -0.8855064684
 C    0.0294736547    0.0609504783   -0.0364843950
 H    1.8084730323    2.4448602631   -0.3207150764
 H    2.5439093612    0.9046799740    1.9703740169
 H    0.6793411472   -1.0616966933    1.9796834567
 H    2.9359462189   -1.3429189096    0.1464484332
 H    1.3980891273    0.1053076809   -1.9687684234
 H   -0.9085429786   -0.4205254344   -0.3071565798