17

 C    0.0819200045    1.5290254712    0.1148147664
 C    0.0127341166    0.0358495278   -0.0253830015
 C    0.5936946587   -0.7745871874   -1.2272313946
 C    0.6100061896   -1.8307272955   -0.0713290097
 O    0.9387308298   -0.7205102019    0.8385276036
 C   -0.9097814944   -1.9964149820    0.1957339043
 C   -1.3100898671   -0.7276444057    0.2270564083
 C    1.4804690864   -2.9752849641   -0.0359125316
 C    2.1949900919   -3.9413988615   -0.0291745729
 H    1.0950873433    1.8904121596   -0.0789288524
 H   -0.6010902046    2.0104690258   -0.5924907567
 H   -0.2043838388    1.8314199468    1.1269898728
 H   -0.0391843617   -0.9684307877   -2.0949569847
 H    1.6000310450   -0.4530596975   -1.5052239626
 H   -1.4395163698   -2.9297164393    0.3109564282
 H   -2.2893533294   -0.2966211695    0.3777411138
 H    2.8309625901   -4.7919209292   -0.0156232807