18

 N    0.0820791514    1.3484287184   -0.1769330387
 C   -0.0055608049    0.0997516302   -0.0225751130
 O    1.0993327345   -0.7442356457    0.0390542324
 C    0.7426365632   -2.1306708876    0.3191341907
 C   -0.6684611732   -1.9777712296    0.8234540746
 C   -2.1119548197   -2.5580457543    0.8509013257
 C   -2.2368518362   -1.0277375732    1.2180723589
 C   -1.0182763172   -1.2264247956    2.1506478358
 C   -1.2295530911   -0.7713301867    0.0489832689
 H    1.0623714653    1.6329188907   -0.2381772156
 H    0.8125902083   -2.7141923198   -0.6065628949
 H    1.4670973201   -2.5102686664    1.0441403525
 H   -2.5342177398   -2.8690010776   -0.1081114866
 H   -2.3500625657   -3.2660911692    1.6482005843
 H   -3.1571568113   -0.4850048165    1.4316288365
 H   -1.1704545044   -1.8543753151    3.0318476609
 H   -0.4346718026   -0.3354562863    2.3885691128
 H   -1.6172765266   -0.9816266156   -0.9536088851