20

 C   -0.0134866549    1.5516508773   -0.0605536718
 C   -0.0579244913    0.0539397327    0.1032301563
 N    1.2080691959   -0.6890442703   -0.1518238554
 C    0.6023450369   -0.7548590040    1.1861601617
 C    1.4219096431   -0.2024447956    2.3255591410
 C   -0.3044170872   -1.9749084862    1.4613954673
 O   -0.8044315289   -2.0226647957    2.7935143610
 C   -1.4072556414   -1.8429214531    0.4319136518
 C   -1.2955913008   -0.7071234962   -0.2626370589
 H    0.9480760263    1.9497112971    0.2695624919
 H   -0.1426838789    1.8293333820   -1.1129779839
 H   -0.8093453207    2.0373623733    0.5145919110
 H    1.0073736248   -1.5334317804   -0.6856538255
 H    1.9620238552    0.6931999524    2.0117364132
 H    0.7929096924    0.0400803242    3.1856549591
 H    2.1613149419   -0.9401001572    2.6562725370
 H    0.2624678909   -2.9081066982    1.3470185028
 H   -1.4621835381   -1.3225718740    2.8744689430
 H   -2.1735843269   -2.5996858064    0.3107250817
 H   -1.9747430682   -0.3692607018   -1.0386171234