21

 C   -0.3663961406    1.4870128003    0.1062520479
 C    0.1937846694    0.0603230970    0.0414740902
 C    0.7742482474   -0.3013426482   -1.3037969834
 O    1.7936793779   -1.3219565443   -1.2965045773
 C    2.1553768646   -0.0022582033   -1.7324579648
 C    2.2051648592    0.1775169978   -3.2430392992
 C    0.7841286524   -0.1077942793   -3.7424218432
 C    0.1711407170   -1.4664041477   -3.5255301965
 C   -0.1092585163   -0.3570290965   -2.5392698902
 H    0.4105648144    2.2262689240   -0.1143664095
 H   -1.1804651499    1.6381423684   -0.6096983021
 H   -0.7614549382    1.7016601578    1.1035480880
 H    0.9824849087   -0.0683259072    0.7900786610
 H   -0.5946685561   -0.6603029382    0.2943281233
 H    2.8845085239    0.5021292275   -1.1000479796
 H    2.4802527858    1.2147374038   -3.4682017367
 H    2.9622252608   -0.4667352894   -3.7040005982
 H    0.4239674689    0.4746383636   -4.5834510523
 H   -0.6367978176   -1.7497980461   -4.1919739425
 H    0.8026908063   -2.2799926081   -3.1915797619
 H   -1.1071451981    0.0588269381   -2.4689073129