15

 O   -0.3029410651    0.5204278299   -0.7122924178
 C    0.1828925422    1.1114053407    0.2232620706
 C    1.3975283949    1.9380423863    0.1222736908
 O    1.8374817388    2.5594329868    1.2923781491
 C    2.9719974170    3.2340519772    0.8326020330
 C    3.6798787320    2.4783559329   -0.2778193862
 C    2.8207713406    3.7010768753   -0.6041441544
 C    1.7147467472    2.7700201484   -1.1301256764
 C    2.5616878892    1.5647755799   -0.8087032177
 H   -0.2566091684    1.0744833190    1.2425806551
 H    3.4956916430    3.8036164599    1.5879209473
 H    4.7464067026    2.3204299012   -0.3447801906
 H    3.0886366679    4.6798498913   -0.9744904231
 H    0.9918290737    2.9376162498   -1.9151571453
 H    2.6335331045    0.6013990415   -1.2921447244