18

 N    0.1018242912    1.2481977790   -0.0937047198
 C    0.0353895840    0.0113757853    0.1341366625
 O   -1.0291719461   -0.6899625540   -0.3226399507
 C   -1.0854367523   -2.0685245153   -0.0217895284
 C   -1.3185404693   -2.3188975763    1.4681024699
 O   -1.2802381667   -1.4689364879    2.3155352045
 C   -2.1991350047   -2.7069137095   -0.8343088163
 C   -3.4917909017   -1.9693964247   -1.0772010359
 C   -2.5314189264   -2.2117009484   -2.2159460716
 H    0.9613668978    1.6281844466    0.2966984825
 H    0.7740360210   -0.6026455794    0.6623109563
 H   -0.1289589491   -2.5595739653   -0.2785627004
 H   -1.5212649284   -3.3864111023    1.7133038010
 H   -2.2683468644   -3.7782545948   -0.6694265947
 H   -4.4145221158   -2.5371948538   -1.0428487264
 H   -3.5637327436   -0.9551679642   -0.7031487222
 H   -1.9793220259   -1.3556338916   -2.5840333598
 H   -2.7896637198   -2.9497636333   -2.9669730105