16

 N   -0.6459152146   -1.1525323801   -0.3780128951
 C   -0.3640380739   -0.0517487223   -0.1645633414
 C   -0.0321774222    1.3522543830    0.0575640152
 O   -0.0272357055    1.7274764499    1.4890211204
 C    1.4129225306    1.7981201626    1.3792481671
 C    2.7324022261    2.6115373147    1.4679110263
 C    2.8818334085    1.4728505468    0.3313863256
 C    2.2552490716    0.4889465692    1.3351460443
 C    1.4389648604    1.9135900429   -0.1216675054
 H   -0.7508531789    1.9718627595   -0.4843203663
 H    2.6960346270    3.6445514630    1.1180596971
 H    3.3757854597    2.4874996138    2.3428187552
 H    3.7703745571    1.3216076642   -0.2809037249
 H    2.8404192669    0.2594784201    2.2270236976
 H    1.7824906909   -0.4008489547    0.9235397494
 H    1.3746578762    2.9216238173   -0.5322587650