14

 O    0.0040539271   -0.1408095292   -0.1051009420
 C   -0.0932654230    1.0368599027    0.1072518686
 N   -1.1322296338    1.8158670057   -0.2897252349
 C   -1.4312943060    3.1634695923    0.1643079688
 C   -0.3917137030    4.1765610170   -0.3096073613
 N    0.9348338206    4.0160871459    0.2457254810
 C    1.3975883200    2.9495630379    0.7172251710
 O    0.9065344004    1.6651377407    0.8407350275
 H   -1.8524719201    1.2915495677   -0.7598371988
 H   -2.4104412161    3.4304220849   -0.2418022858
 H   -1.5118863891    3.2000026179    1.2586774940
 H   -0.3224919769    4.1429113134   -1.4042589772
 H   -0.7329022700    5.1861976002   -0.0503676395
 H    2.3929245399    2.9433145228    1.1574976387