16

 C    0.2663586619    1.5411970559    0.2798554202
 C    0.0291218379    0.0984718508    0.0058944440
 C   -1.0930478567   -0.6520494839   -0.2001216646
 C   -0.5737945974   -1.9644650888   -0.3995862409
 N    0.7303356661   -2.0023603600   -0.3271262406
 O    1.1195033118   -0.6874423641   -0.0730409539
 C   -2.5063144830   -0.2357518063   -0.2105965758
 C   -3.4666375557   -0.7197445216   -1.2196251794
 O   -3.4699853816   -1.2496810686    0.1043868491
 H    0.9241714866    1.6660691823    1.1452738426
 H    0.7464515247    2.0318204510   -0.5738828670
 H   -0.6762660397    2.0541855113    0.4813065577
 H   -1.1253901521   -2.8773063157   -0.5731286198
 H   -2.7140855555    0.7313037085    0.2478048755
 H   -4.3273654216   -0.1061193492   -1.4829244500
 H   -3.1201595857   -1.3991325417   -1.9969842969