20

 C    0.0532929478    1.6234020456   -1.0740267266
 O   -0.3404691432    0.2688623885   -1.0238115081
 C    0.6875723406   -0.6250463357   -1.3600851441
 C    1.6580531321   -0.9952448815   -0.2034281444
 N    0.8868508036   -2.2407633363    0.0159324765
 C    0.2030039780   -2.1055658585   -1.2890994984
 C   -1.3111431679   -2.3262068627   -1.3325143090
 C   -2.0655281632   -2.2376412843   -0.0280149752
 O   -1.8443749026   -2.5424092495   -2.3969867795
 H    0.8472193660    1.8506171570   -0.3473976890
 H    0.4113730399    1.8994497303   -2.0775671674
 H   -0.8264758092    2.2236832699   -0.8327337044
 H    1.1578085129   -0.3289207354   -2.3061852893
 H    2.6894560838   -1.1421352253   -0.5504114160
 H    1.6642768873   -0.3154991462    0.6556849958
 H    1.4403281433   -3.0822785992    0.1282037028
 H    0.6369726500   -2.6894038919   -2.1107986008
 H   -1.9222108766   -1.2385643587    0.3950138281
 H   -3.1245063397   -2.4328303403   -0.2008089401
 H   -1.6536208329   -2.9430758860    0.6998491690