16

 N    0.0911100576   -1.1725153133   -0.1617749099
 C    0.0474024318   -0.0203473274   -0.0988625984
 C   -0.0057086556    1.4418285377    0.0078450350
 N    1.3255575917    2.0093141627    0.0818400306
 C    2.1249921436    1.7937719687    1.3055817590
 C    2.6760822480    3.2407738635    1.1357428082
 C    1.4387940068    3.4739563036    0.2191945981
 C    2.8182783458    4.0676213373    2.3181124395
 N    2.9198103974    4.7263953941    3.2625172216
 H   -0.5103534308    1.8377733980   -0.8812911293
 H   -0.6365557005    1.6992784579    0.8803573050
 H    1.5167928771    1.6986549323    2.2174875811
 H    2.8407994969    0.9709411911    1.2542848869
 H    3.6036313425    3.2477517019    0.5604470734
 H    1.5973778314    4.0183701052   -0.7151612720
 H    0.6081750461    3.9321499366    0.7773956013