21

 C    0.0119081732    1.5379961470    0.0562350269
 C    0.0638700492    0.0093805242   -0.0227531396
 C    0.6308332376   -0.5835013650    1.2735149371
 O   -1.2637430186   -0.5163310321   -0.2477708273
 C    0.8244936931   -0.5362518189   -1.2774910459
 C    2.3045729594   -0.1661739543   -1.3218796687
 O    0.7302908558   -1.9544739146   -1.2946325020
 C    0.1294599102   -0.0154785707   -2.5526236390
 O    0.3190184643    1.0648362560   -3.0477668621
 H    1.0081159229    1.9615608888    0.2113444459
 H   -0.4113783067    1.9750441264   -0.8485413969
 H   -0.6070860796    1.8357885007    0.9105540439
 H   -0.0509518381   -0.3676468480    2.1045809933
 H    0.7490650382   -1.6647930036    1.1857147245
 H    1.5989860709   -0.1445273189    1.5281205619
 H   -1.8006992568   -0.3293133624    0.5289077402
 H    2.8122106472   -0.4530437915   -0.3988585516
 H    2.7805298129   -0.7005919379   -2.1482383489
 H    2.4239999764    0.9047732390   -1.4935858621
 H   -0.1841239049   -2.1597063136   -1.0559245654
 H   -0.5553836666   -0.7614267805   -3.0118310642