16

 O   -0.7646752128    0.8853332930   -0.1890097516
 C    0.3835467044    0.7460913762    0.1523455811
 C    1.4797221655    1.7385241689   -0.1399009898
 N    2.6037419124    1.2814520661   -1.1070902794
 C    1.5712306002    1.5544308190   -2.2207219878
 C    1.3669230156    2.7806294143   -1.2830081345
 C    2.9079214764    2.7948882621   -1.2200126157
 C    0.4076035394    3.9231798592   -1.4181956461
 O    0.7588787879    5.0698687880   -1.5483092509
 H    0.7112029443   -0.1362561478    0.7452487889
 H    1.8956384561    2.0939681459    0.8123104392
 H    2.0318186078    1.7472180114   -3.1917746541
 H    0.7753867742    0.8138439916   -2.2942362001
 H    3.3851163948    3.2135473949   -0.3314488145
 H    3.4512250435    3.0525978631   -2.1307300685
 H   -0.6655043697    3.6361992640   -1.3899803961