19

 C    0.1187910190    1.5474582177   -0.0578095994
 C    0.0123032495    0.0373414524    0.0161107770
 O   -1.2802919960   -0.3784741322    0.5528636531
 C   -0.6649799947   -1.0487037997    1.6747252412
 C    0.7470398133   -0.7318478233    1.1549577975
 O    1.4718457154   -1.8072051747    0.5875064270
 C    1.3280898306   -1.8049176882   -0.8142960435
 C   -0.0098278097   -2.1204428501   -1.4128442722
 C    0.4350654693   -0.6772827855   -1.2598720568
 H    1.1166330685    1.8496381238   -0.3927564773
 H   -0.6166995435    1.9425078813   -0.7658112615
 H   -0.0744720808    2.0000827535    0.9186226412
 H   -0.9281093340   -0.5696074537    2.6258639253
 H   -0.9081310173   -2.1160221321    1.7201446459
 H    1.4014335293   -0.1765097585    1.8328406752
 H    2.2449155255   -2.0806911838   -1.3234444763
 H   -0.0230631838   -2.5281684379   -2.4180594053
 H   -0.8121295118   -2.4612544477   -0.7695831708
 H    0.6533322812   -0.0813798914   -2.1379809804