20

 C   -0.1037786160    1.5023051523   -0.0049161615
 C    0.1171030372    0.0017958313    0.0644380399
 O    0.5829036723   -0.4326869300   -1.2116034954
 C    0.7909302279   -1.8133006786   -1.3260062736
 C    0.9169040479   -2.2517657946   -2.7942236358
 N    1.7492260674   -3.4679527532   -2.7963516682
 C    2.7501847996   -3.2695650439   -1.7399365231
 C    2.1332303790   -2.2979445603   -0.7263904482
 O    2.6146112951   -1.9437811035    0.3188631692
 H    0.8339617232    2.0174797567   -0.2313482482
 H   -0.8294842074    1.7515776499   -0.7845232423
 H   -0.4797560838    1.8736906899    0.9530875069
 H    0.8480261284   -0.2544474517    0.8391884021
 H   -0.8250982626   -0.5197711034    0.3046144483
 H   -0.0205933197   -2.3808940056   -0.8335755904
 H   -0.0435549333   -2.4404835194   -3.2762521762
 H    1.4238253281   -1.4544321275   -3.3516703269
 H    1.1682143659   -4.2650208655   -2.5583718568
 H    3.0570657146   -4.2069292666   -1.2691463341
 H    3.6578050561   -2.8036495763   -2.1502268958