18

 N    0.0413029483    1.3538294756   -0.1028796364
 C    0.0352400198    0.1018801714    0.0600936339
 O    1.1936154851   -0.6271915859    0.0810000521
 C    1.2915439654   -1.7645228907    0.9533268317
 C    0.0861658415   -2.6864192292    0.8524006515
 C   -1.1884300464   -1.8794051255    1.0947157276
 C   -1.2616307672   -0.7069355487    0.0857841975
 C   -2.4461655247    0.1126307815    0.3025704210
 C   -3.4639224680    0.7153773320    0.5091672680
 H    1.0066936199    1.6897710449   -0.1366372020
 H    2.2175134826   -2.2659747040    0.6625440183
 H    1.4087487992   -1.4048702915    1.9857601403
 H    0.0576206463   -3.1496415595   -0.1414709224
 H    0.1877655348   -3.4930698802    1.5863192113
 H   -2.0839084026   -2.4972177217    0.9893230401
 H   -1.1948471623   -1.4757504961    2.1140856142
 H   -1.3299509813   -1.1564917743   -0.9176696914
 H   -4.3460174504    1.2812015120    0.6794177546