18

 O   -0.1067678643    1.4227188647   -0.1690842601
 C    0.0151599525    0.0199419033    0.0173066216
 C    0.6965335272   -0.3588765665    1.3558295376
 C   -0.2847913232   -0.4130975031    2.5507073062
 C   -1.6691518464   -0.9083717887    2.0581768841
 N   -1.5816534141   -1.7659082293    0.8328307519
 C   -1.4291150689   -0.5414080359   -0.0097744734
 C   -2.2200375219    0.1666618354    1.1084880012
 O   -2.9805763760    1.0788174414    1.1921010229
 H    0.7735991931    1.7915124161   -0.2916762437
 H    0.5902041283   -0.4224438918   -0.8112044584
 H    1.1714548420   -1.3386475901    1.2342196268
 H    1.5135187306    0.3429531747    1.5541817438
 H    0.1069386702   -1.0787676130    3.3269269694
 H   -0.4031397595    0.5733923284    3.0115852886
 H   -2.3060020929   -1.2898673542    2.8595937038
 H   -0.7785812413   -2.3894103971    0.8130230876
 H   -1.8468597652   -0.5878514243   -1.0172307700