19

 O   -0.5566865298    0.1392852068   -0.2853237281
 C   -0.2333927350    1.2209335929    0.1337686338
 C    1.1365937986    1.8387175506   -0.0298953237
 C    1.5261089622    2.6387681308    1.2279854595
 C    1.6824069233    1.7984829295    2.4099798374
 C    1.7990144448    1.0753718634    3.3629848981
 C    2.2453492228    0.9097275749   -0.5917189809
 C    2.5765065051    1.9682805461   -1.6768944223
 C    1.2534938814    2.7080157203   -1.3404445693
 H   -0.9754207647    1.8782536837    0.6467124734
 H    2.4583082255    3.1832505367    1.0337255975
 H    0.7614907740    3.4053274187    1.4172051822
 H    1.9022498870    0.4450801537    4.2113669984
 H    3.0381934154    0.6375336014    0.1079096902
 H    1.8046035332   -0.0010830386   -1.0014112279
 H    3.4599092801    2.5642167075   -1.4340117182
 H    2.6808466371    1.6067157514   -2.7016766858
 H    0.4544277968    2.4886156299   -2.0527308797
 H    1.3012875624    3.7899159302   -1.1905379447