16

 O    0.0211415862    1.2707064563    0.4760993434
 C    0.0750658612    0.0117843795   -0.1678886702
 C   -1.2943504577   -0.6400459490   -0.2060970985
 C   -1.5876214480   -2.0828230795   -0.1734737600
 C   -0.6148452151   -2.9039783327    0.6620856378
 O    0.6700242001   -3.1000215554    0.1356546108
 C   -0.8602352565   -1.8418612998    1.7615179485
 O   -0.4097203443   -1.6000354170    2.8390801152
 N   -1.9351240226   -1.1883556575    1.0434853322
 H   -0.2057295214    1.1165698149    1.4003601640
 H    0.3926027812    0.2061019002   -1.1978828680
 H    0.8216412662   -0.6546900478    0.2791802765
 H   -2.0279783146   -0.0431812196   -0.7433604162
 H   -2.3885671161   -2.5156964456   -0.7605125739
 H   -1.0885961797   -3.8496762567    0.9660476941
 H    1.2000034811   -3.5578988004    0.7979329843