19

 C    0.0113746848    1.4684756032    0.2801027844
 C   -0.0237980360   -0.0190417923   -0.0268049130
 O   -1.3492157618   -0.4801364068    0.1340023759
 C   -1.4908258074   -1.8593976616   -0.1417043281
 C   -2.9335438849   -2.2329427070   -0.0161907233
 N   -3.2876640884   -3.3800424385    0.5592776939
 N   -4.6311903317   -3.4001917219    0.4661654267
 C   -5.1390068172   -2.2985086739   -0.1386525298
 C   -4.0607581188   -1.5100585940   -0.4725098952
 H    1.0271633147    1.8583854947    0.1648562635
 H   -0.6501019129    2.0156236539   -0.3977390586
 H   -0.3191261599    1.6558958482    1.3056212644
 H    0.3240211303   -0.2112711772   -1.0567742583
 H    0.6552499464   -0.5692995562    0.6467394315
 H   -1.1245620788   -2.0738817223   -1.1618044334
 H   -0.8947134582   -2.4736259599    0.5504232868
 H   -5.1334009856   -4.1828017796    0.8484534424
 H   -6.2006604876   -2.1655866468   -0.2754475593
 H   -4.0723297569   -0.5492484317   -0.9586545507