18

 C    0.0193284071    1.3431395253    0.2100546353
 O   -0.1585634415   -0.0211077943   -0.1225505698
 C    0.6072551454   -0.4844685162   -1.1806094913
 C    0.7779587680   -2.0170875654   -1.2173559135
 O    2.2230994814   -1.8944109341   -1.3061457421
 C    2.1606154043   -0.4627047927   -1.2786404902
 C    2.0382407579    0.2625947561   -2.6502151375
 N    1.2283502072   -0.6009501147   -3.5387339144
 C    0.5463921288    0.2623452397   -2.5510389809
 H    1.0627671510    1.5618687547    0.4769093313
 H   -0.2792232570    2.0142944515   -0.6063633777
 H   -0.6153994127    1.5399263995    1.0764533768
 H    0.4740037300   -2.4883024756   -0.2763207974
 H    0.3584305763   -2.5411208104   -2.0783620304
 H    2.8318025060    0.0001793769   -0.5509712776
 H    2.7165093677    0.9986447071   -3.0652955525
 H    1.1732149434   -0.1311217301   -4.4420239688
 H   -0.1857475231    0.9969310327   -2.8639061392