13

 O    0.1024459561    1.3539900348    0.1257262296
 C    0.0684402096    0.0037468572    0.0240034110
 C    0.0736255586   -0.6846245002   -1.1824370788
 C    0.0356650452   -2.0834556223   -1.1487681046
 C   -0.0057939732   -2.7294355685    0.0927473870
 N   -0.0105872209   -2.0649462863    1.2471230298
 C    0.0254801081   -0.7369203511    1.2139850499
 C    0.0391245356   -2.8406182820   -2.3606811019
 N    0.0418789577   -3.4551723714   -3.3416634631
 H    0.1302336315    1.7501292755   -0.7521863746
 H    0.1061556601   -0.1602392521   -2.1322177105
 H   -0.0356672222   -3.8130894438    0.1423483438
 H    0.0211079637   -0.2071144498    2.1629161824