16

 C   -0.0466254800    1.5822533383    0.0275242070
 C    0.0733914199    0.0752957879    0.1054712449
 N    1.2328342675   -0.7176715413   -0.2887949373
 C    2.4595547741    0.0652900162    0.0891618362
 C    2.0519148257    0.0198831076    1.5698533232
 O    2.6056397083    0.2420809087    2.6039616623
 C    0.7639253864   -0.6921195346    1.2065181755
 C    0.1711716897   -1.7701556304    1.9143292076
 C   -0.3213484342   -2.6675443554    2.5460180077
 H    0.7914261743    2.1175770196    0.4760471794
 H   -0.1393606277    1.8970899336   -1.0175396776
 H   -0.9549809439    1.8951805303    0.5508817635
 H   -0.8359261872   -0.4350570014   -0.2081804540
 H    3.3543060980   -0.5395496424   -0.0810164665
 H    2.5745251702    1.0322308632   -0.4053541891
 H   -0.7485084211   -3.4660705697    3.1009100872