16

 C    0.0258434268    1.5134777478   -0.0158642044
 N    1.3793039312    2.0831182641   -0.0119924915
 C    2.3822593878    1.3327769334    0.2099783857
 N    2.3875110199   -0.0290811857    0.4674127486
 C    1.1954258650   -0.7223536876    0.2443364256
 C    0.9116908323   -2.0668046023    0.2027566442
 N   -0.4352910136   -2.1695534863   -0.0809893728
 C   -0.9897274826   -0.9212736041   -0.2096559202
 C    0.0040235066    0.0084034663   -0.0102431112
 H   -0.5053542410    1.9227477206    0.8577165664
 H   -0.5042579790    1.9175698016   -0.8887932856
 H    3.3777888699    1.7781182774    0.2278533593
 H    3.2658604420   -0.5165243130    0.4031664243
 H    1.5305657689   -2.9386871476    0.3336868050
 H   -0.9378962132   -3.0348201900   -0.1584817696
 H   -2.0389883310   -0.8001783845   -0.4270720537