18

 N   -0.0888389774   -1.1553508778   -0.1439436663
 C   -0.0694645264   -0.0053447068   -0.0319388982
 C   -0.0202975413    1.4504157277    0.1083342024
 C    1.3984822094    2.0004764406    0.0327382769
 C    2.2750895669    1.9468556215   -1.2686821792
 C    3.0789904965    3.0406890479   -0.4837373646
 C    1.6828053911    3.5438092787    0.0192255653
 C    3.5335110380    2.2246667821    0.7359694058
 C    2.4375805519    1.5436587887    1.0754380929
 H   -0.6432511838    1.8950172287   -0.6761490791
 H   -0.4799370731    1.7217416695    1.0667972729
 H    2.7827920478    1.0066212051   -1.4912382329
 H    1.7595990585    2.3358074467   -2.1535712995
 H    3.7922109080    3.7018647320   -0.9727738317
 H    1.1118928368    4.0817728768   -0.7454173229
 H    1.6487794470    4.0681476508    0.9770382249
 H    4.5184676572    2.2254406541    1.1800947723
 H    2.2680404928    0.8256329236    1.8653186008