16

 O    0.5821932364    0.6451215408   -0.9930193155
 C    0.0590160954   -0.2818771229   -0.0232481753
 C    0.8201623510   -0.1701641395    1.2601011431
 C    0.4100098994    0.1048118658    2.5017458867
 N   -0.8576950754    0.3278629297    3.0155278586
 C   -2.1157260922    0.3703577869    2.4379281530
 O   -3.0806310207    0.5907203171    3.1514945435
 C   -2.2962696481    0.1580738975    0.9863341953
 C   -1.4358886301   -0.1272011142    0.0051911227
 H    0.4891673599    1.5254588848   -0.6097014828
 H    0.2781686698   -1.2578836622   -0.4794853690
 H    1.8899264235   -0.3059386009    1.1364926477
 H    1.1623137522    0.1600073624    3.2825458472
 H   -0.9167938950    0.4940758079    4.0099877545
 H   -3.3485854450    0.2474872488    0.7342645065
 H   -1.8588512511   -0.2344690520   -0.9921354763