15

 O    0.1551055910    1.2981983667   -0.2816984328
 C    0.0495812005   -0.0533878558    0.1120545960
 C   -1.3814015361   -0.5627240233    0.0821549997
 C   -1.9774001110   -1.0898972942   -1.2218236765
 C   -1.6517980973   -2.0471336296   -0.1280500004
 C   -2.3254275301    0.1640538253    0.9567788012
 O   -2.0392649292    1.1536547746    1.5950354283
 H   -0.3400529858    1.7998747558    0.3787066292
 H    0.6616932025   -0.6363542455   -0.5848151575
 H    0.4606097251   -0.2111167256    1.1215422915
 H   -3.0208414053   -0.8748288907   -1.4266917590
 H   -1.3285023371   -1.0359770957   -2.0883862151
 H   -0.7769161471   -2.6801390126   -0.2294408098
 H   -2.4676647690   -2.4981228534    0.4273915759
 H   -3.3572565713   -0.2548277762    0.9913332091