18

 C   -0.3096298230    1.4191938340    0.0929980964
 C    0.1261397552   -0.0229743554   -0.0495398885
 O    1.3703621086   -0.1752629353   -0.7959260938
 C    2.0366291097   -0.8220719712    0.3041141706
 C    0.7804849756   -0.6946342101    1.1574825798
 N    0.6402260107   -0.2556971415    2.5291185839
 C    0.2117172282   -1.6362295771    2.1591642513
 C   -1.1938755071   -1.9272724765    2.2037805439
 C   -2.3671629059   -2.1900269822    2.2073011402
 H    0.4674947628    2.0166818332    0.5772126319
 H   -0.5207499470    1.8466328523   -0.8918721539
 H   -1.2173835274    1.4762308372    0.7013158011
 H   -0.6677280974   -0.6291952156   -0.5054939467
 H    2.3534232384   -1.8446955250    0.0609450225
 H    2.9068647394   -0.2513966983    0.6580746945
 H    1.5337077781   -0.2968903395    3.0160968041
 H    0.8607764352   -2.4541270723    2.4673162252
 H   -3.4047241840   -2.4157983967    2.2226118876