20

 C    0.0760028777    1.5922551160    0.1590754589
 C   -0.0020697073    0.0649108965    0.0394758943
 C   -1.4596329115   -0.3810627370    0.0876254104
 O   -1.8436875792   -1.4169269908    0.5658940198
 C    0.6947512943   -0.5228290981   -1.2471888552
 C    0.8102975495   -2.0609080118   -1.1381003706
 C   -0.0511026735   -0.1417784092   -2.5480392055
 C    2.0578536046    0.0305096644   -1.3124730005
 N    3.1294264955    0.4616201209   -1.3649322847
 H    1.1122762832    1.9364358643    0.1374524066
 H   -0.4656830659    2.0919038749   -0.6506888059
 H   -0.3692692124    1.9208962157    1.1032117305
 H    0.4923754961   -0.3992951542    0.8991657756
 H   -2.1807863979    0.3417970057   -0.3590164819
 H   -0.1814678116   -2.5067525368   -1.0402366255
 H    1.2951946889   -2.4681259254   -2.0291345852
 H    1.4010313302   -2.3480518830   -0.2646134115
 H   -0.1633003711    0.9395532089   -2.6534924732
 H    0.4991185922   -0.5089612802   -3.4177696414
 H   -1.0438887315   -0.6011816908   -2.5601892748