15

 O   -0.0497677161    1.2821859566    0.0768372233
 N   -0.0302758325   -0.1031622585    0.2389199225
 C   -1.1683851224   -0.6154454841    0.0405143191
 C   -2.5561961294   -0.1809763745   -0.3680481579
 C   -2.9246555545   -1.6910060461   -0.5233795520
 C   -1.5179475946   -2.1078009883    0.0290423907
 O   -0.8089963998   -2.9129503103   -0.8791537242
 C   -1.5516806321   -2.7113172738    1.3730705755
 N   -1.5727413241   -3.1833451497    2.4280251283
 H    0.8647955361    1.5280619360    0.2574146156
 H   -3.0999642016    0.3413086642    0.4242007288
 H   -2.6027430494    0.4285275743   -1.2736263235
 H   -3.7753286173   -2.0435960712    0.0580984592
 H   -3.0180959842   -2.0202800684   -1.5584203576
 H    0.1246349418   -2.8855693862   -0.6358668275