16

 N   -0.0209268250    1.3451311353    0.1688765404
 C    0.0521462730   -0.0590893947   -0.0174897799
 C    0.8107452015   -0.9825747881   -0.9672704602
 N   -0.0824337355   -2.1080564361   -0.4595522976
 C   -1.0714331190   -1.0466536626    0.0373797203
 C   -0.1981998681   -0.9163198699    1.2811169357
 O   -0.4273887467   -0.3054589740    2.4741973531
 C    0.3866917825   -2.2315069141    0.9564522662
 N    0.9503491176   -3.1649168304    1.5751389594
 H    0.9020261133    1.7587797824    0.2547635520
 H   -0.5142008265    1.8192850518   -0.5799437338
 H    0.6061512163   -0.7888768820   -2.0252028105
 H    1.8811773426   -1.1583749824   -0.8120908069
 H   -2.1383256530   -1.0448782353   -0.1303011727
 H   -0.4188844131    0.6487842640    2.2943473879
 H    1.1362824300   -3.9446652041    0.9399665965