22

 C    0.4913933853    1.7834300550   -0.0074747285
 O    0.5444343879    0.3933960659   -0.2378539204
 C    0.6364440696   -0.4164841244    0.9212295051
 C    1.9533807209   -0.2086429455    1.6683114893
 C   -0.6174142634   -0.4363407929    1.8538869532
 C   -0.5757341172   -1.9912351900    1.8188808322
 C   -1.8878733350   -2.7497605175    1.6905153247
 C    0.3543257110   -1.8991811007    0.5763090770
 H    1.4400316147    2.1884900782    0.3728149186
 H    0.2773659362    2.2563667169   -0.9694707697
 H   -0.3070569791    2.0537685533    0.6998168607
 H    2.0208327416    0.7916983649    2.1075978459
 H    2.0503261343   -0.9307337277    2.4849140869
 H    2.7987739507   -0.3462506482    0.9863723319
 H   -0.5437165638    0.0560054750    2.8274387496
 H   -1.4934635300   -0.0523599202    1.3219303095
 H   -0.0165521800   -2.3696407163    2.6815269503
 H   -2.4662482352   -2.3879008336    0.8328255922
 H   -1.7157658335   -3.8225996918    1.5472708080
 H   -2.5081098409   -2.6289624181    2.5859875502
 H   -0.2119460187   -1.9573067746   -0.3573641551
 H    1.2118328346   -2.5749228375    0.5197888981