19

 O    0.1374262955    1.4063008939   -0.1231755932
 C    0.0059930150    0.0192425559    0.0117237654
 C    0.2348663970   -0.6751615426    1.3999817016
 C   -0.4529492930    0.1612747748    2.5038855106
 C   -1.9870422716    0.1818204146    2.2987738502
 C   -2.3989661601    0.1804795693    0.8067093196
 C   -1.4082019239   -0.6588884921   -0.0330342173
 C   -0.7629938411   -1.7225548475    0.8736729220
 O   -0.8901724130   -2.9057161786    1.0060418015
 H   -0.4221811946    1.8480242955    0.5225159700
 H    0.6633544378   -0.4112895276   -0.7468847413
 H    1.2411891471   -0.9952197827    1.6733527490
 H   -0.2195286304   -0.2536727621    3.4884040388
 H   -0.0266707547    1.1729634777    2.4917185351
 H   -2.3952493676   -0.7260243156    2.7565519788
 H   -2.4411968266    1.0245721815    2.8290498359
 H   -3.4106372788   -0.2222435702    0.7053147282
 H   -2.4336352176    1.1967293678    0.3926720372
 H   -1.8193593696   -0.9649128320   -0.9959224423