15

 C   -0.0002472653    1.5200262007    0.0050226703
 C    0.0291714308    0.0659218716    0.0114312227
 C    0.0476851582   -1.1403666128    0.0164179192
 C    0.0529086268   -2.5512227602    0.0214185520
 C    1.1390894481   -3.4155304991    0.0786887207
 N    0.6495191294   -4.6704609454    0.0584038243
 N   -0.7074504391   -4.7125683831   -0.0093811656
 C   -1.0613660564   -3.4393314927   -0.0313687528
 O   -2.3482910414   -3.0552631552   -0.0970662112
 H    0.5408668004    1.9300546378   -0.8556417392
 H   -1.0301492550    1.8904048747   -0.0461703050
 H    0.4552133839    1.9360848245    0.9111773622
 H    2.1958377990   -3.2082098159    0.1308922015
 H    1.1603190211   -5.5348272056    0.0868159263
 H   -2.8837506705   -3.8584654094   -0.1211834153