18

 C    0.0657451075    1.3275859186   -0.0848818286
 O   -0.2989292586   -0.0016667542    0.2334135177
 C    0.5447770237   -0.6046622440    1.1530589904
 C    0.1312734062   -1.9970074051    1.6038431794
 N    0.2430186028   -2.8963416776    0.4314044665
 C    1.4491847163   -2.5719964564    1.2124948367
 C    1.9589227098   -1.2179739985    0.6837426179
 C    2.3394763877   -1.1313980032   -0.7094491490
 C    2.6769889597   -1.0447040813   -1.8605134490
 H    1.0548953156    1.3749439843   -0.5575612687
 H   -0.6813736973    1.7042152809   -0.7868249561
 H    0.0682790114    1.9680469992    0.8115232045
 H    0.7253228439    0.0520913606    2.0180429976
 H   -0.5189671536   -2.2420230632    2.4340946758
 H   -0.0768921254   -3.8154778888    0.7354190580
 H    2.0416445353   -3.3382406956    1.6955138198
 H    2.7532158745   -0.8178247602    1.3212023813
 H    2.9582456606   -0.9833015156   -2.8823683442