19

 O    0.2270246255    1.3856251160    0.1128296194
 C    0.0318669219   -0.0254737810    0.0127742069
 C   -1.4145267819   -0.5093725895   -0.0954008237
 C   -2.4169166144    0.3190506484   -0.8519087474
 C   -1.7015285659   -0.7879406537   -1.5708758355
 C   -0.4412334452   -0.4223391700   -2.3500913397
 O   -0.4813374609    0.9282743835   -2.8094130477
 C    0.6895857297   -0.5466413668   -1.2943810623
 O    1.8445220513    0.1822329529   -1.6555351721
 H   -0.2178160141    1.7819697147   -0.6491412529
 H    0.5178217004   -0.4358959161    0.9008811368
 H   -1.7838567909   -1.1689957285    0.6806610713
 H   -3.4595991447    0.1517043796   -0.6050596961
 H   -2.1917335739    1.3423677447   -1.1256624337
 H   -2.2581268667   -1.6628868669   -1.8831691837
 H   -0.2869053189   -1.1021399944   -3.1976166442
 H    0.4460567603    1.1433947689   -2.9890594237
 H    0.9491013297   -1.6056621496   -1.1721278836
 H    1.8488845490    0.9490034278   -1.0612094581