22

 C   -0.2697356259    1.5186635245   -0.0759962566
 C   -0.0867798587    0.0060064660    0.0209451549
 C    0.9596157856   -0.5661819711   -0.9771208035
 C    2.0153216776   -0.6028375001    0.1646722262
 C    0.8323919286   -0.5017107865    1.1810001963
 C    1.0192548666    0.3112686818    2.4521221930
 C    2.8603830007   -1.8577695733    0.2606349756
 N    4.1979621300   -1.6617715081    0.4544152718
 O    2.3732160019   -2.9725616959    0.1922178593
 H    0.6891463893    2.0494991701   -0.0801590174
 H   -0.7907731785    1.7807951690   -1.0033499522
 H   -0.8609342295    1.9088966195    0.7592757593
 H   -1.0687006410   -0.4759335652   -0.0143563362
 H    0.7203931873   -1.5834257267   -1.2937498414
 H    1.1996050698    0.0428979369   -1.8528105390
 H    2.6299389481    0.3032248309    0.1811086853
 H    0.5380341274   -1.5253957456    1.4323126812
 H    1.3338772036    1.3383172420    2.2395290815
 H    0.0897745945    0.3618140170    3.0303712884
 H    1.7810940529   -0.1435391861    3.0953332951
 H    4.6135521017   -0.7476994766    0.4509958603
 H    4.7984610779   -2.4691327925    0.4973606482