20

 C   -0.3766681191    1.5536068132    0.0398371051
 C    0.0250036873    0.0694399577    0.0541180797
 C    0.9289029106   -0.3473164385   -1.1416356429
 C    1.6712003697   -1.6284434559   -0.6839734432
 C    1.4776196746   -1.7053884767    0.8567078859
 C    0.9041799545   -0.3417702242    1.2712116048
 O    1.9146910252    0.6529108085    1.3756873123
 C   -1.1885988765   -0.7605413981    0.0683211815
 N   -2.1442980741   -1.4114314862    0.0776671421
 H    0.5210188324    2.1712285613    0.0829671681
 H   -0.9324893382    1.7902538117   -0.8715085406
 H   -1.0102982047    1.7983672221    0.8967955236
 H    0.3518674065   -0.4882022320   -2.0578454102
 H    1.6371164147    0.4668835368   -1.3121053742
 H    1.2601502209   -2.5186929019   -1.1656982405
 H    2.7276827946   -1.5792649219   -0.9568126283
 H    0.7648180326   -2.4925176049    1.1198493980
 H    2.4051598757   -1.9220370619    1.3961517409
 H    0.3135192821   -0.3934536642    2.1958819258
 H    2.5488072113    0.3615226651    2.0376357619