21

 C    0.0137609133    1.5220864579    0.0101576944
 C    0.0241206795    0.0658094722    0.0022077631
 C    0.0444378561   -1.1382094770   -0.0045598209
 C    0.0308295201   -2.5971844318   -0.0123797529
 C   -1.3929641676   -3.1896995206   -0.0016923130
 C   -1.3903897029   -4.7199695631   -0.0100598301
 C   -2.8151267357   -5.3103845173    0.0006946723
 C   -2.8288322677   -6.7681431457   -0.0070462602
 C   -2.8105387726   -7.9700712076   -0.0139771922
 H    1.0316517144    1.9277911357    0.0025055138
 H   -0.5071891342    1.9233068468   -0.8664205836
 H   -0.4901061446    1.9137958454    0.9009082586
 H    0.5686628756   -2.9675455359   -0.8957253309
 H    0.5857773574   -2.9770919373    0.8562008949
 H   -1.9249274606   -2.8200024483    0.8832657255
 H   -1.9420824226   -2.8104338450   -0.8720007044
 H   -0.8593188007   -5.0904527808   -0.8950366383
 H   -0.8421147469   -5.1000217036    0.8602466178
 H   -3.3542908273   -4.9446378940    0.8845613554
 H   -3.3714696538   -4.9351089803   -0.8684135623
 H   -2.8071406092   -9.0316602396   -0.0202178369