19

 C   -0.1262508397    1.4773683477   -0.1905955551
 C    0.0564657709   -0.0088187213    0.0366923309
 C    1.3348060193   -0.7975871910   -0.1820632207
 C    2.5624586653   -0.0107231070    0.2888866141
 C    1.9663455001    0.0197224539    1.7472716188
 C    1.8449100870    1.2725310704    2.4708351521
 C    1.7493761160    2.3052778520    3.0813974060
 C    0.7069863544   -0.6966267281    1.2053191389
 O    0.0805373993   -1.7003217279    1.9213630819
 H    0.7201814749    2.0660578496    0.1670461931
 H   -0.2593455029    1.6870112196   -1.2579614941
 H   -1.0159776585    1.8437876609    0.3330035661
 H   -0.7994033788   -0.6018105323   -0.2848237272
 H    1.3640586228   -1.6492955809   -0.8503526103
 H    3.4935255702   -0.5778257629    0.2417128732
 H    2.7209676402    0.9655692030   -0.1748815569
 H    2.5120149468   -0.7025974044    2.3627216058
 H    1.6631432276    3.2182107754    3.6167260496
 H   -0.6657551247   -1.3157920669    2.3944118640