20

 C   -0.1715000266    1.5589726687   -0.0324037974
 C    0.0296658834    0.0433619457   -0.0141156474
 C    0.8429320142   -0.5192593338   -1.2008482139
 C    1.2574140924   -1.9312481109   -0.7437593398
 C    1.5484100811   -1.7802950649    0.7560825734
 N    2.7867595282   -1.0634893148    1.0929502068
 C    2.1807527689    0.1088217262    1.4759575390
 O    2.6159578157    1.1716322064    1.8356753047
 C    0.7745334965   -0.4988257418    1.2231415752
 H    0.7855831785    2.0830704391    0.0393415868
 H   -0.6709428683    1.8717607434   -0.9553457677
 H   -0.7896368318    1.8875612778    0.8093706736
 H   -0.9564857163   -0.4423925222   -0.0281058795
 H    0.2726416021   -0.5250851439   -2.1337625853
 H    1.7302418692    0.1022973743   -1.3703696484
 H    0.4204806280   -2.6290642964   -0.8683455416
 H    2.1067946701   -2.3411033426   -1.2992709411
 H    1.4105558995   -2.6982360245    1.3332483546
 H    3.7580552285   -1.2802276540    0.9188554976
 H    0.1589033666   -0.5765576318    2.1203913404