20

 C   -0.1547284322    1.4850196543    0.0818747321
 C    0.0350825711   -0.0210274309   -0.0030965392
 C    0.8089488421   -0.4427865757   -1.2413361167
 O    1.0934170951   -1.8483143860   -1.2453697057
 C    1.4115703114   -2.4714915218   -0.0747073231
 N    2.0216690225   -3.5797021263   -0.0620483277
 C    0.8811003934   -1.8546773115    1.2165799237
 C    1.7375004887   -2.1896747203    2.4266176706
 O    0.7727874818   -0.4390222654    1.1340903317
 H    0.8140083697    1.9935093941    0.0920408739
 H   -0.7356516966    1.8527242959   -0.7691929682
 H   -0.6849254321    1.7420138380    1.0019747407
 H   -0.9474440186   -0.5249542884   -0.0078684597
 H    0.2446397460   -0.2513159924   -2.1582511575
 H    1.7560374598    0.1113710784   -1.2859969772
 H    2.2472560393   -3.8653181132   -1.0176028502
 H   -0.1318632086   -2.2760041698    1.3554857136
 H    2.7368191101   -1.7622745943    2.3114348075
 H    1.2776611320   -1.7723743717    3.3260032123
 H    1.8338381448   -3.2706450728    2.5277405091