12

 N    0.2282703855    1.4557044081    0.0210202165
 C    0.0254393156    0.0631146651   -0.0144960073
 C   -1.0681808990   -0.7699558120   -0.0320929856
 O   -2.3667681215   -0.3834561841   -0.0172199262
 N   -0.7072611206   -2.0832758504   -0.0675738187
 C    0.6153253905   -2.0768140334   -0.0721988252
 N    1.1043315383   -0.8173383100   -0.0414575892
 H   -0.1811837164    1.8747849155    0.8497729443
 H   -0.1865847008    1.9172190378   -0.7821094543
 H   -2.8861338446   -1.1962432115   -0.0363709581
 H    1.2465973034   -2.9516749329   -0.0972392405
 H    2.0678963397   -0.5268337020   -0.0375163957