19

 C    0.0262744963    1.5550464611   -0.0148142327
 C   -0.0044392569    0.0169140042    0.0430211947
 C    0.7984287353   -0.5111188654    1.2457217716
 C   -1.4233802954   -0.5147438323    0.0394596768
 C   -2.3449822048   -0.2456875604    1.0546113569
 N   -3.5944759683   -0.7120075536    1.0529172894
 C   -3.9322768540   -1.4686786430    0.0069995475
 N   -3.1554667505   -1.8009157283   -1.0231344957
 C   -1.9114574602   -1.3178719838   -0.9904403144
 H    1.0585132964    1.9154448839   -0.0684453488
 H   -0.5126247590    1.9309847430   -0.8894495336
 H   -0.4332426469    1.9956085964    0.8765479678
 H    0.4769864437   -0.3595776280   -0.8689261541
 H    0.3731394243   -0.1610150886    2.1924497565
 H    0.8087791078   -1.6047955007    1.2677956199
 H    1.8342817422   -0.1604241864    1.1978169520
 H   -2.0679237152    0.3718589618    1.9073356688
 H   -4.9488760568   -1.8544874918   -0.0049659777
 H   -1.2673786377   -1.5836042881   -1.8283509250