17

 O   -0.0932943826    1.4578559311   -0.0050353017
 C    0.0373286767    0.0409897923    0.0042308551
 C   -1.3666664683   -0.5350471082    0.0368583239
 C   -1.4566162662   -2.0491542409    0.1765948520
 C   -1.4741312914   -2.2821420806    1.6867491755
 O   -1.4042434224   -1.0204893326    2.3249659860
 C   -2.1342369020   -0.2692521848    1.3576424870
 O   -3.3438901668   -0.9981116832    1.1784451578
 C   -2.7709511932   -2.2660058993    0.9201261109
 H    0.7860798852    1.8421595196    0.0526879059
 H    0.5653336645   -0.3158228736   -0.8942387772
 H    0.5950671398   -0.3064305561    0.8846534315
 H   -1.9489968793   -0.1597100196   -0.8091745882
 H   -1.0506857421   -2.7559521533   -0.5332093587
 H   -1.0357393990   -3.1051750993    2.2306749981
 H   -2.3153341605    0.7467963086    1.6910544010
 H   -3.4712397424   -3.0767193201    0.7865716311