18

 C    0.0024796575    1.5062669194   -0.1305452467
 N   -0.0047775644    0.0509590925   -0.0353306574
 C   -1.3221667601   -0.5213281591    0.1642440941
 C   -1.1746765794   -1.8705448569    0.8033090998
 C   -1.6207010521   -0.6850978145    1.6574376436
 C   -0.3019701853   -0.4564439206    2.4111896082
 O    0.1947513449   -1.7826302726    2.7479041007
 C    0.2798946039   -1.9700458568    1.3122708072
 C    0.6441510905   -0.4692961667    1.1351042517
 H    1.0323824321    1.8589508166   -0.2398461577
 H   -0.5557853198    1.8170735042   -1.0188166974
 H   -0.4447191432    2.0042421546    0.7473804432
 H   -2.0906047192   -0.2923733477   -0.5646004331
 H   -1.7933220409   -2.7246696523    0.5683431728
 H   -2.6012774888   -0.5905062667    2.1014596762
 H   -0.2635261296    0.2497870101    3.2381467903
 H    0.9029210991   -2.8067932760    1.0025586732
 H    1.6808039348   -0.1774107976    1.2817857815