16

 C   -0.3047579177    1.4036155071    0.1669492437
 C   -0.0234743382   -0.0538432740    0.0471676897
 C    0.9129796587   -0.9231590430   -0.8369914006
 C   -0.0827637968   -2.0233945358   -0.9031775352
 N    0.9415718713   -2.0131542955    0.2011186574
 C   -0.0089932607   -1.1602828769    1.0343253939
 C   -1.0875491621   -1.2205480274   -0.0529029481
 C   -2.5231980427   -1.0660310157    0.0888973772
 O   -3.0423635152   -0.3408262084    0.9160505153
 H    0.5519324402    1.9358672476    0.5953366574
 H   -0.5282957793    1.8473909210   -0.8088978636
 H   -1.1716046337    1.5561722360    0.8164827070
 H    1.7693731442   -0.6850684802   -1.4563290398
 H   -0.1884626242   -2.8539433739   -1.5909705242
 H   -0.1331682786   -1.2054683479    2.1089876054
 H   -3.1385573454   -1.6580892729   -0.6244032356