15

 C    0.1062868378   -1.1894537711    0.0265872933
 C    0.0045872202    0.0117808917   -0.0023016423
 C   -0.0606822191    1.4176432193   -0.0721595374
 C   -1.1420976015    2.2238170624    0.0363943010
 C   -0.7253327757    3.6361969337   -0.0032473671
 C    0.5434771885    4.0054705913    0.8733433237
 O    1.2229188101    2.8627867492    1.3231643277
 C    1.1619745116    2.3186751969   -0.0622768431
 C    0.6770969215    3.7063238694   -0.5721508226
 H    0.1805469881   -2.2477003185    0.0654792769
 H   -2.1555169273    1.8920182847    0.2211331922
 H   -1.4232182177    4.4438018015   -0.1854086798
 H    0.5876502966    4.9027708959    1.4781139282
 H    2.1206401031    1.8997527778   -0.3594091065
 H    1.0021227237    4.2756197958   -1.4331665342