14

 N   -0.4929183598    1.5873554865   -0.3865057725
 C   -0.0530845075    0.2084019211   -0.1141131027
 C   -1.1792122951   -0.6045155540    0.3502383862
 C   -2.1073137087   -1.2790424328    0.7050035327
 C    0.6310903576   -0.4619955055   -1.2829410467
 C    0.3701862288   -1.5935669545   -1.9867503921
 O    1.2742051067   -1.7219513040   -2.9555312981
 N    2.1466067333   -0.5964574372   -2.8386333423
 N    1.7463753893    0.0985384773   -1.8714546179
 H    0.3086318444    2.1164384083   -0.7213581367
 H   -1.1693216563    1.5765325416   -1.1456787362
 H    0.6795008383    0.2777568779    0.7016476124
 H   -2.9280206144   -1.8640524978    1.0409335226
 H   -0.3860997666   -2.3551010969   -1.9009875286