22

 C    0.0522722498    1.5513709661    0.0095851083
 C    0.0223712733    0.0147173787   -0.0050332115
 C   -1.4388027348   -0.4738332192    0.0140592006
 C    0.7231837932   -0.6107527647   -1.2289348362
 C    2.1854044255   -0.3476312135   -1.4962053246
 C    1.7679413477   -1.5730320939   -0.7192043191
 N    1.7577677039   -1.6079406226    0.7455123273
 C    2.2022670413   -0.3954783604    1.4473099996
 C    0.7562045488   -0.6186467886    1.1956502011
 H    1.0739597646    1.9392253882   -0.0253811099
 H   -0.4888258779    1.9592885782   -0.8510612565
 H   -0.4218163755    1.9423337140    0.9164893186
 H   -1.9843095951   -0.1047747177   -0.8607675554
 H   -1.4871273683   -1.5675132548    0.0077544795
 H   -1.9607083562   -0.1169031577    0.9082926962
 H    0.0922704237   -0.8579354755   -2.0769486949
 H    2.5310759435   -0.5185624032   -2.5108099051
 H    2.6913546133    0.4756436210   -1.0083280554
 H    1.9252206391   -2.5481882942   -1.1658672639
 H    2.6026044289   -0.5772999643    2.4416704210
 H    2.7285462385    0.3794356731    0.9020107996
 H    0.1291950925   -0.9251550892    2.0311810008