20

 C   -0.2677690500    1.3504395000   -0.8914475078
 O   -0.2630894581   -0.0445959893   -1.0830926685
 C    0.6554722633   -0.7153936989   -0.2469403370
 C    0.5720911525   -2.2175277775   -0.5431437163
 C   -0.8136153106   -2.7657159997   -0.1913072853
 C    0.9879229991   -2.5303981257   -2.0119862361
 O    2.1961445056   -3.3231192389   -1.8843445608
 C    2.4049572362   -3.4394998086   -0.5547102037
 N    1.6105590069   -2.8956903389    0.2688722389
 H   -0.5462856360    1.6185669332    0.1394980696
 H    0.7166264621    1.7950340382   -1.1065865375
 H   -1.0046782033    1.7733312469   -1.5785570371
 H    1.6821181591   -0.3584014806   -0.4330379888
 H    0.4299758704   -0.5351438718    0.8158259467
 H   -1.5851969309   -2.2354132016   -0.7554355036
 H   -0.8736169992   -3.8334842234   -0.4211329143
 H   -1.0088955731   -2.6373715973    0.8771446779
 H    0.2471939554   -3.1263355422   -2.5516773762
 H    1.2180804335   -1.6349796535   -2.5930926570
 H    3.2823002771   -4.0206629404   -0.2908933730