16

 C    0.0940671157    1.4449500600    0.0839365857
 N    0.2647286933   -0.0006956826    0.0403592825
 C    0.4881394517   -0.5216481234   -1.2936895157
 C    0.5747126269   -2.0331887136   -1.2481412153
 C    1.5240538773   -2.7753546328   -2.1007333201
 O    1.8012012930   -2.5609084291   -0.7200272867
 C   -0.6229020287   -2.7248196571   -0.7964893306
 N   -1.5846586904   -3.2776024301   -0.4737331900
 H    0.9297413758    2.0137336331   -0.3613089724
 H   -0.8197549120    1.7208045917   -0.4540379136
 H   -0.0222602190    1.7650013142    1.1226839758
 H    1.0348172348   -0.2807459393    0.6388485101
 H   -0.3571303117   -0.2307841638   -1.9303429324
 H    1.4068137829   -0.1451910431   -1.7803167652
 H    1.2970904797   -3.8016804581   -2.3800504636
 H    2.1427767806   -2.2151778360   -2.7994605484