16

 C    0.0816511732    1.5195225721    0.0083145813
 C   -0.0237917485   -0.0167981931    0.0034055539
 C   -1.3997155501   -0.4943843275    0.0132032585
 C   -2.5446052470   -0.8764167388    0.0212522548
 C   -3.8786791100   -1.3208983146    0.0306003880
 C   -5.0777844030   -0.6620123266    0.0428593388
 C   -6.0316544823   -1.7074374924    0.0469061978
 N   -5.4693693892   -2.8927326615    0.0382091775
 O   -4.1043323586   -2.6586016482    0.0279734435
 H    1.1318285122    1.8241381230    0.0006020603
 H   -0.4081424759    1.9460991459   -0.8708880538
 H   -0.3932127456    1.9394366965    0.8988422976
 H    0.4888050020   -0.4211176268   -0.8790289983
 H    0.5036061884   -0.4277295385    0.8739848944
 H   -5.2394072596    0.4020208968    0.0479814266
 H   -7.1103640360   -1.6390778964    0.0559812492