18

 O    0.2583533768    0.1399935577    0.7103289190
 C    0.1837063131    1.2897737455    0.3372080683
 N    1.1306996688    1.9343868506   -0.4217867098
 C    2.6210958028    1.7298136436   -0.2699340546
 C    2.7849382692    2.9637620154   -1.2068017826
 C    1.6774730386    3.3273601484   -0.1757829192
 C    2.5875534333    2.7226683569    0.9163881633
 C    2.4251731280    2.5420962838    2.3802051681
 C    3.6351319989    3.2868193111    1.8103093061
 H   -0.7191356664    1.9181155177    0.4870076327
 H    3.0715940171    0.7421905571   -0.3357442248
 H    3.7214345445    3.5143428830   -1.1231910767
 H    2.4479118361    2.8264573958   -2.2343800071
 H    1.0307282109    4.2038943255   -0.1380571638
 H    1.6724149375    3.1287332262    2.8973309533
 H    2.5865897418    1.5552474671    2.8001797916
 H    4.6002130782    2.7925752075    1.8590622511
 H    3.6786080208    4.3622645773    1.9504471252