19

 O   -0.0584064472    1.5066160992    0.1340353719
 C    0.0243659549    0.1079564063    0.0379226187
 C    0.2890159677   -0.7529638664    1.3504105518
 C   -0.7485680880   -1.7546559342    0.7508957741
 O   -1.9203753737   -2.3735885807    1.2996574278
 C   -2.9394568366   -1.5947728040    0.6128540941
 C   -2.4879826362   -0.1572837032    0.9172025304
 C   -1.3350213560   -0.6003739532   -0.0419501709
 C   -2.4263694372   -1.3459843024   -0.8622596620
 H    0.8328477922    1.8598471458    0.2194102078
 H    0.7082454953   -0.2035073010   -0.7643211085
 H    1.3014651365   -1.1280392109    1.5138909553
 H   -0.0583570439   -0.2185392485    2.2346554442
 H   -0.2184740800   -2.4921448466    0.1363382172
 H   -3.9251865702   -1.9973209690    0.8398660951
 H   -3.1066605522    0.6180497342    0.4623608982
 H   -2.2707312478    0.0768793084    1.9595991539
 H   -2.1094051770   -2.2102539478   -1.4505944040
 H   -3.1219621006   -0.7197558959   -1.4238221852