14

 C    0.0961722115    1.4803436285    0.0696353631
 C   -0.0358916620    0.0028445255    0.0511090916
 C   -1.1231282215   -0.8318530829   -0.0292221174
 C   -0.5964049434   -2.1766239263   -0.0015867674
 C    0.7466729969   -2.0505755208    0.0918289958
 O    1.1020298930   -0.7333561279    0.1247882614
 C   -2.4783896002   -0.4410277255   -0.1200908951
 C   -3.6363261768   -0.1173531654   -0.1977300040
 H    0.7000517325    1.8388296460   -0.7716604541
 H   -0.8953600767    1.9321993429    0.0034655787
 H    0.5773601531    1.8276851208    0.9909245613
 H   -1.1665999036   -3.0901839406   -0.0467556529
 H    1.5600713990   -2.7546882447    0.1434166868
 H   -4.6561195018    0.1693387303   -0.2660631677