15

 C   -0.3105236703    1.6177714379   -0.1631113426
 C    0.0044901543    0.1416570071   -0.0272315458
 C    0.7559167674   -0.5771222078   -1.2215895855
 C    1.8881712482   -0.8059909254   -0.2252294192
 C    3.0667902014   -1.2103783648    0.3618018300
 N    3.0197033879   -0.7892280621    1.6663261760
 N    1.8934608408   -0.1603059749    1.9261564646
 N    1.2296612712   -0.1820736115    0.7606080459
 H    0.5584774771    2.1714709614   -0.5300935791
 H   -1.1376379053    1.7581190390   -0.8660447885
 H   -0.6070995786    2.0404028229    0.8009862815
 H   -0.8573456699   -0.4216407436    0.3404851937
 H    0.2650987080   -1.4777889916   -1.5953529280
 H    0.9920697322    0.0834710870   -2.0587501024
 H    3.9192363756   -1.7462026736   -0.0193789906