19

 C    0.1590135144    1.4796378057   -0.0566217017
 C   -0.0668667937   -0.0349065623   -0.0713706185
 C   -1.5437894426   -0.4720056044    0.0487287190
 C   -2.3811778972   -0.0535348073   -1.1659947075
 C   -1.5864936284   -1.9694995168    0.3078507303
 C   -2.6350324905   -2.8863864266   -0.1570089300
 O   -1.3612325305   -2.8423867366   -0.8053282211
 H    1.2283032215    1.7123384643   -0.0757195287
 H   -0.2964621042    1.9741846130   -0.9198482995
 H   -0.2627981663    1.9341285674    0.8473019907
 H    0.3525832623   -0.4685884276   -0.9878284898
 H    0.4951254345   -0.4822396490    0.7588143905
 H   -1.9607457208    0.0082119902    0.9472789570
 H   -2.0738551512   -0.6168821200   -2.0523956233
 H   -3.4478765805   -0.2311319743   -1.0004505728
 H   -2.2614799727    1.0113936354   -1.3787412321
 H   -1.0392073211   -2.2731594644    1.2040042025
 H   -2.8397151102   -3.7954747701    0.4077417762
 H   -3.4692374528   -2.5149877965   -0.7476894311