16

 O    0.0045095583    1.4465560061   -0.0886801403
 C    0.0240958863    0.0440420973   -0.0014857353
 C   -0.0288203454   -0.6423343056    1.3921863412
 C   -1.4907317388   -0.1217855462    1.4968887917
 O   -2.3745010844   -0.8393071278    2.3534066686
 C   -2.2640346386   -2.1793088262    2.2273398209
 N   -1.4681562262   -2.7751236716    1.4425963633
 C   -0.6498147473   -1.8782113039    0.6548775639
 C   -1.3599255397   -0.6263412925    0.0294295872
 H    0.8966077529    1.7717236362    0.0673372777
 H    0.7383296335   -0.4023032476   -0.7050086371
 H    0.7268016390   -0.6633042310    2.1772037827
 H   -1.6629245122    0.9350375779    1.6743448454
 H   -2.9471587120   -2.7071221328    2.8872660339
 H    0.0161168703   -2.4371884549   -0.0044492628
 H   -2.1266209856   -0.6254822573   -0.7437427810