22

 C    0.0365317009    1.6872305101    0.0561479006
 C    0.1247940467    0.1675891843   -0.0121397539
 C    0.8495027875   -0.5472502733   -1.1447414590
 C    0.3617100403   -0.7629829033   -2.5449818125
 C    2.2850966187   -0.7099387514   -0.7475863366
 C    2.4995510288   -0.1273149347    0.6337854750
 C    1.0711217078   -0.6505058817    0.9067350600
 C    0.6440635489   -1.1202940813    2.2673269374
 N    1.2521868047   -1.6933189453   -0.2564638074
 H    1.0134445901    2.1630199928   -0.0688025117
 H   -0.6197881017    2.0716871264   -0.7322726590
 H   -0.3790012918    2.0156092886    1.0154725235
 H   -0.8791467555   -0.2686895962    0.0721237641
 H    0.4093681758    0.1645508671   -3.1270609402
 H    0.9717400049   -1.5141710854   -3.0563656000
 H   -0.6758446402   -1.1142028234   -2.5490486159
 H    3.0396092692   -1.0125421655   -1.4662187836
 H    3.2357385513   -0.7140336503    1.1913900708
 H    2.7142712064    0.9390988893    0.7558377920
 H    0.5609396014   -0.2739498270    2.9596095013
 H   -0.3292562914   -1.6194761680    2.2212192374
 H    1.3687466274   -1.8278547518    2.6827906178