23

 C   -0.2030152517    1.4955678291    0.1082465570
 C   -0.1412013336   -0.0293852622   -0.0120425629
 O   -1.4239007943   -0.5772396277   -0.2827134072
 C    0.8507770336   -0.4682636074   -1.0898150542
 C    0.9976771640   -1.9725820692   -1.3795812568
 C    0.5453851831   -1.6152284763   -2.8192206183
 C    1.6494547485   -1.6584753670   -3.8683925179
 C   -0.7380001429   -2.2709852159   -3.3047680063
 O    0.3004399992   -0.2255705847   -2.4113191608
 H    0.7563572891    1.9067309620    0.4402950973
 H   -0.4468282447    1.9435803295   -0.8612634640
 H   -0.9740921261    1.7839318947    0.8270125974
 H    0.1754460329   -0.4636688864    0.9450091987
 H   -1.6098848422   -0.3303343608   -1.1986856249
 H    1.8057833407    0.0587641665   -0.9586987008
 H    2.0025327369   -2.3870022120   -1.2833569285
 H    0.2844410942   -2.5914714293   -0.8330327483
 H    1.9054016391   -2.6937110094   -4.1189221869
 H    1.3255511525   -1.1535685878   -4.7840929240
 H    2.5525175470   -1.1591359135   -3.5053780144
 H   -1.5049922098   -2.2384024571   -2.5267777727
 H   -1.1171151306   -1.7588041141   -4.1954827844
 H   -0.5582336651   -3.3194861209   -3.5658738771