15

 N    0.1563192306    1.0896965173    0.5995495888
 C    0.0713171201   -0.0420066456    0.0526053045
 N    0.9618711052   -0.9905844891   -0.4832412391
 C   -0.0656582782   -1.9835767708   -0.7663341925
 C   -0.5709831904   -2.8273789342    0.4491558288
 O   -1.4621262157   -1.7870530061    0.8610016328
 C   -1.1197566604   -0.9524446763   -0.2659892125
 C   -1.2723635732   -4.1011456302    0.0265238940
 O   -2.4578383010   -4.2217361019   -0.1181016109
 H    1.1255246310    1.3849108733    0.7313755584
 H    1.9114205900   -1.1702431217   -0.1845776765
 H   -0.0287822411   -2.4472299499   -1.7513173420
 H    0.1989166654   -3.0641018612    1.1974230648
 H   -1.9850590858   -0.5741405837   -0.8074330734
 H   -0.5614141566   -4.9362293799   -0.1835149252