18

 C    0.2912021105    1.0356776353   -0.3806303694
 O   -0.1869952564   -0.1467351329    0.2642065110
 C    0.6446221059   -0.6476551667    1.2122528242
 O    1.7176513230   -0.1685808067    1.5057612011
 N    0.0749479158   -1.7435365297    1.7897423555
 C    0.8319146370   -2.5990692422    2.6927479021
 C    1.0706078966   -3.9369326749    2.1530326179
 C    1.2414062255   -5.0418983055    1.7068132612
 C    1.4649091269   -6.3753062322    1.1673114726
 H    1.2404137599    0.8463552664   -0.8884471530
 H   -0.4779708129    1.3082445763   -1.1040682842
 H    0.4356815367    1.8431787580    0.3419102125
 H   -0.7570062775   -2.1122808093    1.3582407085
 H    1.7758542699   -2.0778299260    2.8793889901
 H    0.3109274556   -2.6757574422    3.6562367185
 H    2.5294254046   -6.6336616355    1.1766468707
 H    0.9319232445   -7.1366756861    1.7472335018
 H    1.1176324445   -6.4445345862    0.1305706088