21

 C   -0.0462207863    1.4588114751    0.0265314446
 N   -0.0014088527    0.0143339996    0.0343566447
 C    0.0044131917   -0.7868309114   -1.0860491913
 C    0.0456509913   -2.1032629445   -0.6934419509
 C    0.0699394229   -3.3116872821   -1.5776921537
 C    0.0615893509   -2.0943497617    0.7386495163
 N    0.1013292860   -3.2092265039    1.6334515476
 C    0.0286367683   -0.7792054991    1.1603668603
 C    0.0230361409   -0.2334119703    2.5468959088
 H    0.8201439313    1.8886895001    0.5415149730
 H   -0.0385491838    1.8075471701   -1.0078532733
 H   -0.9540198648    1.8367240082    0.5107372298
 H   -0.0200724772   -0.3477173793   -2.0719420268
 H    0.9565900964   -3.9334320108   -1.3993000501
 H   -0.8028215571   -3.9584016494   -1.4186092118
 H    0.0757070143   -3.0280615288   -2.6342242518
 H   -0.6038342527   -3.8967790017    1.3839070580
 H    0.9943918106   -3.6918838439    1.5779199927
 H    0.9118005215    0.3720030273    2.7693670105
 H   -0.8533312912    0.3963042691    2.7482439014
 H    0.0040643498   -1.0752798025    3.2423287519