13

 O   -0.1735279396    1.2210588132    0.1856060772
 C    1.3311576582    1.1957062564   -0.0059768955
 C    2.1912913673    0.0631358796    0.6954987940
 C    1.4576260587   -1.3013745267    0.5072803938
 N    0.0342196134   -1.0700262360    0.4742490028
 C   -0.0171422002   -0.0769556548   -0.3291021146
 C    1.2326689293    0.2524680038   -1.2035417938
 C    2.2678534215   -0.6946999865   -0.6325349355
 H    1.7270638624    2.2085944178   -0.0345092516
 H    2.9437611033    0.2126703468    1.4562836634
 H    1.8306846733   -2.1629080027    1.0483140630
 H    1.1168336536    0.5845224639   -2.2289225894
 H    3.1023836186   -1.1698384549   -1.1258913138