20

 C   -0.4529078017    1.5584131879   -0.0271630979
 C   -0.0300621113    0.1003768948    0.0048230588
 C    0.9757321482   -0.4809611758   -1.0592089320
 O    1.6719871458    0.4117904942   -1.9017000788
 C    1.8046274098   -1.0113792788    0.1497933576
 C    2.9738796599   -0.2363760930    0.7708190480
 C    2.7551239281    1.2476201076    0.7311306148
 C    1.9313589594    0.4207987808    1.6876762101
 N    0.8402303103   -0.4073459745    1.1281866130
 H    0.3808357872    2.2498894184   -0.1457710608
 H   -1.1561395259    1.7274827297   -0.8505073902
 H   -0.9724916350    1.8113367698    0.9032448113
 H   -0.9385791182   -0.5148991242    0.0129116148
 H    0.5315825941   -1.2922335647   -1.6517052988
 H    1.0878833120    0.6529770917   -2.6274426094
 H    1.9117747640   -2.0989717914    0.1971706476
 H    3.9277620383   -0.6816641408    1.0225528708
 H    3.5324096166    1.8160886296    1.2350444030
 H    2.3589923615    1.7175332166   -0.1570277474
 H    1.9589131868    0.6034160523    2.7565587055