23

 C   -0.0601146424    1.4145133040   -0.0951638074
 O   -0.0194865304    0.0424988906    0.2141165144
 C   -1.2678179339   -0.6089728407    0.0895744552
 C   -1.7227023642   -0.8831257601   -1.3858997598
 C   -1.8979313764   -2.4182558844   -1.4181285373
 C   -0.4980861265   -3.0723700997   -1.3807134109
 C   -0.0111286282   -2.7857888548    0.0762027621
 C   -1.2021687497   -2.0232389680    0.7016486332
 C   -2.4089004057   -2.6953580336    0.0143627631
 H    0.9426032788    1.8162435554    0.0719403805
 H   -0.3420300180    1.6000651984   -1.1427122644
 H   -0.7708846214    1.9553008494    0.5504436941
 H   -2.0307782788   -0.0136580584    0.6162899457
 H   -2.6611320153   -0.3699097304   -1.6173390933
 H   -0.9673878341   -0.5355117557   -2.0975393311
 H   -2.5304062430   -2.7736050447   -2.2342524932
 H   -0.5674969757   -4.1479138711   -1.5717354485
 H    0.1701896306   -2.6511757971   -2.1376364642
 H    0.1723603534   -3.7152801026    0.6231108600
 H    0.9038369778   -2.1933401625    0.1084544295
 H   -1.2009239753   -2.0151687925    1.7930278187
 H   -3.3650781730   -2.2093840296    0.2357378975
 H   -2.4941928287   -3.7610086719    0.2484594461