18

 C   -0.2667997548    1.2310491082   -0.3071512711
 O    0.9428586013    1.1962999826    0.4520372312
 C    0.3559533122   -0.0502973839    0.0307680679
 C   -0.1521940196   -0.8987282442    1.1682933426
 C   -1.5154076890   -1.5200930096    1.3796181189
 C   -2.1024461891   -2.2244443272    0.1269239709
 N   -1.1745857975   -2.0256929057   -1.0162324428
 C   -0.9018676593   -3.0699057326    0.0050631238
 C   -0.2657974827   -2.3987613823    1.2557378592
 H   -1.1531629658    1.5510309799    0.2401455516
 H   -0.1798124692    1.6286640937   -1.3179952767
 H    0.9198887708   -0.5618539139   -0.7426575963
 H    0.2133719137   -0.4958482108    2.1121887947
 H   -2.1063778073   -1.3206199790    2.2646388665
 H   -3.1472496022   -2.4563180429   -0.0315502884
 H   -1.5869232772   -2.4956160870   -1.8221841910
 H   -0.7969451618   -4.1114957860   -0.2678351768
 H    0.2284750675   -2.9724445394    2.0295809458