18

 C   -0.0647134885    1.4942233952   -0.0321494704
 O    1.3715169164    1.5149388807    0.2117977291
 C    1.4922400776    0.1219384123   -0.2011698560
 C    2.1805420805   -0.8817805132    0.6870045961
 N    1.5299490929   -1.1966689064    1.9674828133
 C    1.4457451560   -2.1725120663    0.8714016156
 C    0.0544729015   -2.3985330811    0.2733026568
 C   -0.6961003934   -1.0994414483    0.0712594481
 C    0.0003625281   -0.0044737400   -0.1827597386
 H   -0.6390930700    1.8790946394    0.8181496307
 H   -0.3242207263    2.0652653975   -0.9349052687
 H    1.9526431972    0.0730357212   -1.2009339338
 H    3.2667074073   -0.9166524063    0.6437257122
 H    2.2321949195   -1.4814686340    2.6443098199
 H    2.0531806622   -3.0721470645    0.9472261709
 H    0.1613385286   -2.9606033921   -0.6653286587
 H   -0.5160310976   -3.0471980967    0.9492227544
 H   -1.7686094521   -1.0806238373    0.2395429591