19

 C    0.0881806708    1.4475853765    0.1571084145
 C    0.0348425351   -0.0987481701    0.0765050020
 N   -1.2895039657   -0.6947628074    0.1577749832
 C   -2.1199665360   -0.2663404958    1.2683088742
 C   -3.3427776549   -1.0746005864    1.3440318044
 N   -4.3184101844   -1.6896996546    1.4021720813
 C    0.6396082594   -0.5148216461   -1.2733152892
 C    2.1385885900   -0.7065633608   -1.3283453237
 O   -0.0723844220   -0.6580253685   -2.2402648273
 H    1.1139790511    1.8156503282    0.0559664769
 H   -0.5153508679    1.8904171176   -0.6415723077
 H   -0.2899905826    1.8038458779    1.1192591518
 H    0.6557796242   -0.5074111217    0.8857365119
 H   -1.7574592511   -0.5942581118   -0.7372087568
 H   -1.5641720086   -0.4096605107    2.2043673774
 H   -2.4264930204    0.7940187966    1.2500190241
 H    2.6666623486    0.0973970409   -0.8061207211
 H    2.3932500697   -1.6408414685   -0.8129582661
 H    2.4721552944   -0.7681206255   -2.3647356398