16

 O   -0.6695993785    1.0725062087    0.7426591814
 C    0.1272503498    1.8459555267    0.2845913901
 C    1.2877444625    1.4381490065   -0.6133508589
 N    1.5827023783    2.4338483491   -1.6223885440
 C    2.7285620871    3.1785694239   -1.5925131761
 O    3.5635835664    3.0797629623   -0.7122937405
 C    2.8940324324    4.1716522664   -2.7368328551
 C    3.1791675137    5.5691975347   -2.1993348266
 O    2.6940364748    6.5682066848   -2.6582804297
 H    0.0806465045    2.9395301628    0.4914954039
 H    2.1864225233    1.3577567129    0.0108873944
 H    1.0770025072    0.4578896515   -1.0514297713
 H    0.9395262356    2.5568061672   -2.3871878728
 H    3.7862331802    3.8577958512   -3.2949020630
 H    2.0490814174    4.2158625129   -3.4278952712
 H    3.8846370252    5.5852746185   -1.3443894906