17

 C    0.2693827918   -0.3850586483   -1.1280456955
 C   -0.0957180061    0.5896580771   -0.0350171913
 C    0.9471959189    1.2518344912    0.7645735872
 O    0.2798561331    1.9581646037   -0.2821750210
 C   -1.4653858301    0.4947070244    0.5862186576
 N   -2.4980459276   -0.2786493166   -0.0945218950
 C   -2.0405151484   -0.7368451823    1.2288472355
 C   -1.3412875953   -1.9978644115    1.2913233876
 N   -0.7781888891   -3.0035043489    1.3834054552
 H    1.2556682829   -0.1325512180   -1.5236850563
 H    0.2928321951   -1.4122636415   -0.7550160722
 H   -0.4619612557   -0.3384656989   -1.9384981787
 H    0.7269625123    1.5948441433    1.7753956442
 H    1.9919594970    1.0081644334    0.5782798203
 H   -1.7567770401    1.4266495356    1.0677719754
 H   -3.4123956701    0.1577627153   -0.0189738746
 H   -2.6854874886   -0.5672526579    2.0875781914