16

 N   -0.0961891045    1.2042662238    0.7386768747
 C    0.0197438044    0.1579917661    0.0451371804
 O   -1.0910954014   -0.3948850637   -0.5011788881
 C   -1.1121698383   -1.7705158730   -0.8252087561
 C   -0.5530606326   -2.2699504675   -2.1223783741
 C    0.6091790236   -1.3649895526   -2.5297700111
 C    1.2211506404   -1.5655152060   -1.1033867690
 O    1.2152964338   -0.4349660287   -0.2290238207
 C    0.1332102495   -2.5781881630   -0.7690296298
 H    0.8276138705    1.5349186742    1.0099518077
 H   -2.0300744549   -2.2262456264   -0.4724508268
 H   -1.1102845808   -2.9367280354   -2.7676121523
 H    1.2478309272   -1.8095287449   -3.2955130674
 H    0.3619021605   -0.3388997515   -2.8133653493
 H    2.2477501690   -1.9261312928   -1.0964840726
 H    0.2426455536   -3.4901243987   -0.1970180555