12

 C   -0.0347421760    1.4561837944   -0.0382729924
 C    0.0052703076   -0.0297982374   -0.0124334333
 N   -0.0496317907   -0.8043735631   -1.0766192044
 N    0.0224872788   -2.0294720648   -0.5325122623
 C   -0.0031735041   -3.2028817093   -1.3373485227
 O    0.0576184065   -4.3079356888   -0.8968699115
 N    0.1167166178   -2.0121322602    0.8097523273
 N    0.1065278691   -0.7663992890    1.1475152710
 H    0.8869165302    1.8709106395    0.3807591081
 H   -0.1526773905    1.8124306073   -1.0621767613
 H   -0.8653847551    1.8260169566    0.5696302235
 H   -0.0864368435   -2.9170383751   -2.3970239119