17

 O   -0.2713069225   -0.0122859010    0.2715073151
 C   -0.2068116867    1.1792009902    0.0668464517
 C   -1.3074542248    2.0861790762   -0.5055254875
 C   -0.7786807110    3.5044410120   -0.3096637140
 C   -0.9639653276    4.1576701510    1.0945463253
 C    0.5774425141    4.3138023361    1.2206297856
 C    0.7539830276    3.3775223011   -0.0067873064
 N    0.8900506886    1.9723400766    0.2969345921
 H   -1.4521659098    1.8254867386   -1.5596486517
 H   -2.2518424964    1.8910010258    0.0092616602
 H   -1.0146890442    4.1826222872   -1.1300507375
 H   -1.5494515841    5.0787211093    1.1246724888
 H   -1.3859023745    3.4602842234    1.8232399542
 H    0.9154877808    5.3300544478    1.0001988021
 H    1.0415210117    3.9834481860    2.1528860696
 H    1.4712762876    3.7008064273   -0.7685204440
 H    1.7358768511    1.5601251725    0.6589811765