18

 O   -0.0549737983    1.4393930311   -0.0241439378
 C    0.0161099168    0.0232392554   -0.0092936215
 C   -1.4125944149   -0.5070283844    0.0582049240
 C   -1.4246069493   -2.0385534942    0.1595505280
 C   -0.4387442705   -2.6894188096   -0.7662052333
 C    0.5263997137   -2.0156227375   -1.4104239287
 C    0.7282212197   -0.5194800070   -1.2566541234
 C    1.4228921096   -2.7039197390   -2.2859509122
 N    2.1683502584   -3.2259173293   -3.0030740660
 H    0.8420824930    1.7887483684   -0.0378806699
 H    0.5615474830   -0.3250868970    0.8842537638
 H   -1.9288112044   -0.0570678645    0.9107250364
 H   -1.9425466508   -0.1848715275   -0.8459450681
 H   -1.2009067525   -2.3591163249    1.1881275259
 H   -2.4287853220   -2.4277328076   -0.0483095047
 H   -0.5175648185   -3.7634914905   -0.9081755675
 H    0.3399882833    0.0057776954   -2.1389113705
 H    1.8014524638   -0.2979718472   -1.2127251445