19

 O   -0.0697569161   -0.0338877158   -0.0031680778
 C   -0.0102535114    1.1693089821    0.0082159876
 C    1.2750678286    1.9717301393   -0.0006097611
 C    1.4099760263    2.8945633526   -1.2227761384
 C    0.4424136968    4.0308304461   -1.4665041638
 C    1.7343903197    4.2965900005   -0.7364503218
 C    1.7558068835    4.2775771941    0.7800937457
 C    0.4849121912    3.9930650316    1.5395023768
 C    1.4448925616    2.8636792984    1.2401651932
 H   -0.9377260558    1.7852411476    0.0269410418
 H    2.0934657703    1.2456546686   -0.0211933206
 H    1.8990794750    2.4704370735   -2.0925277608
 H    0.3724473526    4.3817362564   -2.4908380960
 H   -0.4990532247    4.0848635782   -0.9345070454
 H    2.4906266335    4.8949482649   -1.2308666077
 H    2.5258559740    4.8636942977    1.2678132177
 H    0.4440327406    4.3182247122    2.5738580629
 H   -0.4712203723    4.0599397778    1.0358785266
 H    1.9581949166    2.4179209041    2.0847833010