20

 C   -0.0199476653    1.5057757466    0.0720674449
 C   -0.0421532120    0.0060440542   -0.0700708096
 C    0.3538899769   -0.7529787670   -1.3656774571
 C   -0.3351084252   -1.9445014759   -0.6619642529
 C    0.4781887753   -2.1237567965    0.6205714570
 C    1.8115476144   -1.4934999305    0.7863195131
 N    0.6060401452   -0.7054169913    1.0950414663
 C   -1.3578220231   -0.8502242430   -0.1359917015
 O   -2.0956138911   -1.0416449403    1.0278844832
 H    1.0072300791    1.8859864196    0.0832853896
 H   -0.5507621653    1.9832548148   -0.7572013636
 H   -0.4982812752    1.8068241461    1.0091314676
 H   -0.2251408435   -0.3931210083   -2.2183929297
 H    1.3996014296   -0.8330520529   -1.6589950522
 H   -0.6539734876   -2.8386405336   -1.1954323862
 H    0.1349351106   -2.8530530372    1.3491987459
 H    2.3849443932   -1.7522671992    1.6727183691
 H    2.4265851500   -1.2381882916   -0.0686027860
 H   -2.0468243172   -0.5226098190   -0.9183077248
 H   -1.4595426988   -1.0280321850    1.7564522069