16

 O   -0.1178763868    1.4050258746   -0.0113224329
 N    0.0789775744   -0.0011476522   -0.0054433247
 C   -1.0271356197   -0.6073137982    0.0092060218
 C   -2.5204279071   -0.3981887580    0.0270932326
 C   -2.7085660697   -1.6606214250   -0.9054436823
 C   -3.7264873840   -2.2833477159    0.0519801842
 O   -3.7965183067   -3.6844825135   -0.0214329246
 C   -2.6803595222   -1.6428714771    0.9885545867
 C   -1.4867120189   -2.0363052926    0.0269485649
 H    0.7889985970    1.7277004711   -0.0260690116
 H   -3.1139858976    0.5114494490    0.0257840981
 H   -2.6933336670   -1.6501396740   -1.9948891134
 H   -4.7244759534   -1.8221512831    0.0622376523
 H   -4.3896772993   -3.9989014839    0.6678162047
 H   -2.6287262286   -1.6056599721    2.0772204633
 H   -0.9231497604   -2.9638264989    0.0258206009