17

 C   -0.0106280408    1.4843184929    0.0983688995
 C    0.0177644179   -0.0209143770   -0.0098289751
 C    0.6669642399   -0.5549589210   -1.2911362941
 O    0.6520338728   -1.9856372435   -1.3115446480
 C    0.0628443316   -2.5662149771   -0.1867298271
 C    0.2302661809   -1.9121456576    1.1689754377
 O    0.7150767953   -0.5905230950    1.1005399676
 C   -1.1183358105   -1.8877756768    0.4753403174
 O   -1.3067962748   -0.5539797914    0.0607973260
 H    1.0063247668    1.8829408633    0.0815414578
 H   -0.5747270842    1.9118442554   -0.7337356849
 H   -0.4895891925    1.7684666734    1.0372706511
 H    0.1191539976   -0.1843071540   -2.1665230096
 H    1.7076910006   -0.2126277159   -1.3499722836
 H    0.0777331949   -3.6485037531   -0.2538002692
 H    0.4891700902   -2.4247914679    2.0862820864
 H   -2.0294214457   -2.3793842348    0.7908293882