14

 C   -0.2596810692    1.6972339539    0.0310920941
 C   -0.0292686764    0.1721251970    0.0368029090
 O    0.7231052990   -0.2212695878    1.1527541002
 C   -1.3528507625   -0.5675691549    0.0242742829
 O   -1.7374718131   -1.2288132921    0.9599450493
 C   -2.2264692234   -0.4828689834   -1.2382522812
 O   -1.8764736504    0.0634942727   -2.2516531916
 C   -3.5316558569   -1.1538997772   -1.1244007950
 N   -4.5706973883   -1.6581736539   -1.0751624486
 H    0.7142439843    2.1853166927    0.1070616173
 H   -0.7491774395    2.0252557813   -0.8885828184
 H   -0.8611027900    1.9967242721    0.8944916363
 H    0.5089928410   -0.0987972255   -0.8837148835
 H    0.1355135154   -0.7326902348    1.7274791693