15

 N   -0.0212901450    1.3591371588    0.0099414213
 C    1.2632385058    1.8540077769    0.0001679005
 C    2.1610499336    0.8196953538   -0.0141597599
 C    1.3976255484   -0.3921533294   -0.0134033996
 C    0.0292978846   -0.0176862334    0.0019344292
 C   -0.9751917711   -0.9845383908    0.0064066494
 N   -0.6861253258   -2.2794695662   -0.0034918974
 C    0.6139938070   -2.6450273734   -0.0181250150
 C    1.6827584340   -1.7647773034   -0.0236862257
 H   -0.8578991518    1.9154851369    0.0211465741
 H    1.4339561254    2.9198899618    0.0043243623
 H    3.2356238880    0.9130069427   -0.0240695744
 H   -2.0287525235   -0.7091375161    0.0181418815
 H    0.7952132465   -3.7165567736   -0.0257421803
 H    2.7027629839   -2.1334764947   -0.0356030859