19

 C   -0.1897437445    1.5330210409   -0.0376064312
 C    0.0373711780    0.0325397353    0.0259410339
 O    0.8500997885   -0.4161790692   -1.0733093683
 C    1.8808096933   -1.2125629245   -0.4381381296
 O    1.2115171909   -1.8053288636    0.6555034315
 C    0.8376609085   -0.5464901546    1.2475496239
 C    2.1737772943    0.1919712534    1.3194323566
 C    2.5220597699    1.2290105002    2.3324610801
 C    2.8395765969   -0.2452304953    0.2455164564
 H    0.7581259902    2.0763160013   -0.0201601336
 H   -0.7089995539    1.7919210147   -0.9646776634
 H   -0.8110726471    1.8677928166    0.8006491858
 H   -0.9218144396   -0.4988428416   -0.0168064401
 H    2.2583901523   -1.9493120489   -1.1440430497
 H    0.2699998003   -0.6883638049    2.1661582519
 H    2.4998589546    0.8134448350    3.3478652670
 H    3.5191499753    1.6405957771    2.1544835135
 H    1.8065147816    2.0603251977    2.3199716857
 H    3.7906219507    0.0880583103   -0.1468918203