20

 O    0.0331940305    1.4187707917   -0.0001531721
 C    0.0354747692    0.0019489752    0.0191711678
 C    0.8376984859   -0.5586810431    1.2030803332
 C    0.8036935518   -2.0942706444    1.2354107196
 C   -0.6403364645   -2.6143914972    1.2631890833
 C   -1.4442354134   -2.0654976097    0.0760685337
 C   -1.4039817572   -0.5334900641    0.0174369519
 O   -2.0274899530    0.0628366946    1.1634609462
 H   -0.6185837900    1.6821023042    0.6620322348
 H    0.5107399557   -0.3136128881   -0.9184767639
 H    1.8649161172   -0.1859274511    1.1392448692
 H    0.4082255598   -0.1609862583    2.1305079573
 H    1.3162079983   -2.4916607139    0.3476434850
 H    1.3594287420   -2.4649628452    2.1036804468
 H   -0.6562275846   -3.7095412267    1.2514858151
 H   -1.1222025899   -2.2973333284    2.1954548621
 H   -1.0351203986   -2.4559868881   -0.8657981624
 H   -2.4879079242   -2.4029109305    0.1212069516
 H   -1.9007861434   -0.1755431650   -0.8959996580
 H   -2.9761903118   -0.0804730819    1.1025560789