18

 C   -0.1785208985    1.5414216640    0.0704978075
 C    1.3444655697    1.5354631865   -0.2178668567
 N    1.4117257194    0.1755619052    0.3371779391
 C   -0.0526801646    0.0108229264    0.2898017892
 C    2.3027095081   -0.7789311353   -0.1233218921
 C    3.4912460745   -0.5814563047   -0.7707152251
 O    4.0999253421   -1.7847895690   -1.0170814587
 C    3.2827214961   -2.7458671867   -0.5335632679
 C    2.1698566485   -2.2049156355    0.0263115108
 H   -0.4423838706    2.0860922371    0.9783371570
 H   -0.8267308113    1.8627151695   -0.7445362443
 H    1.5838951039    1.5689384908   -1.2922818064
 H    1.9632345166    2.2735918077    0.3036252306
 H   -0.4951327078   -0.4057243866    1.2008462443
 H   -0.3949213782   -0.5793709228   -0.5728338277
 H    4.0297485383    0.2950624431   -1.0852031565
 H    3.6224501584   -3.7608600897   -0.6602370501
 H    1.3555260955   -2.7367417602    0.4924625171