14

 O   -0.6757260264    0.6473477451    0.2387357918
 C    0.3610092822    0.6921221797   -0.3693612406
 C    1.4467117743    1.7163961256   -0.0844191488
 N    2.8130086506    1.3268963938   -0.5175941419
 C    2.9995126356    2.6065201945   -1.2512717909
 C    1.5116966336    2.9478372163   -1.0324639529
 O    1.2287714458    2.6424429561   -2.4275783907
 C    2.5697339626    2.4135700969   -2.7174942739
 O    3.0461670222    2.1535071903   -3.7690177501
 H    0.6033948182   -0.0073118492   -1.1963366438
 H    1.3650518822    2.0454991028    0.9578344124
 H    3.4716329692    1.1717248350    0.2344023403
 H    3.8628909092    3.2271561632   -1.0172106336
 H    1.0763385306    3.8961439900   -0.7292482472