18

 O    0.1484855557    1.4245447093   -0.2098084091
 C    0.0785083497    0.0105491308   -0.0465172582
 C    0.7040589893   -0.4912527521    1.2467637599
 C   -0.1471963530   -1.1667190134    2.0214009443
 C   -1.5109052945   -1.2564612998    1.3968394056
 C   -2.5938432548   -0.2395455503    1.8185045746
 C   -2.1029182218    1.1472415706    1.7747109504
 N   -2.4829870227    0.5176531064    0.4965043218
 C   -1.3947753565   -0.4543026520    0.0801450395
 H    1.0699963760    1.6582071466   -0.3583002887
 H    0.5474608550   -0.4767816737   -0.9164361935
 H    1.7458547615   -0.2955976478    1.4848514831
 H    0.0933382354   -1.5894373426    2.9914683076
 H   -1.8940436069   -2.2749727176    1.3032454674
 H   -3.5618708858   -0.5091150567    2.2286828189
 H   -2.8079012334    1.9234519841    2.0584859844
 H   -1.0648840312    1.3844423656    1.9735956156
 H   -1.7394462621   -0.9660009574   -0.8183594535