15

 C    0.0172885769    1.4651987577   -0.1025456156
 C    0.0107376144    0.0118276299   -0.0686467825
 C    0.0157011650   -1.1920313058   -0.0243236579
 C    0.0075115766   -2.6454202232   -0.0011353926
 O   -1.2925254384   -3.2030153864   -0.2002750533
 C    0.8422184588   -3.1491128515   -1.2009790289
 O    1.9597506288   -3.5719538741   -1.1053855907
 C    0.5872061699   -3.2456239273    1.3007356571
 O    1.0795509145   -2.6170509116    2.1922377438
 H    0.9419383564    1.8387915128   -0.5551419144
 H   -0.8227074268    1.8513646114   -0.6894470551
 H   -0.0538570556    1.8823828997    0.9073190957
 H   -1.9287760587   -2.6216759667    0.2310640210
 H    0.2878049403   -3.0810462514   -2.1598367571
 H    0.4542222180   -4.3470883033    1.3370131903