16

 C   -0.0216478676    1.5483009066    0.0243357278
 C    0.0566524051    0.0401288178    0.0172217387
 C   -0.8205520791   -0.7979063901    0.9260820715
 C    0.6932699766   -0.7818514674    1.1102340335
 C    1.4578711782   -1.8988830320    0.4321406345
 O    2.1734479791   -2.7135778706    0.9670154180
 C    1.1701185740   -1.7685784664   -1.0269807268
 C    0.4184567283   -0.6820481476   -1.2483466018
 H    0.9302436545    1.9975031158   -0.2781352461
 H   -0.7953794117    1.9055258086   -0.6651093422
 H   -0.2678648499    1.9230452923    1.0220018390
 H   -1.3991387060   -0.2801949999    1.6855421410
 H   -1.2887100440   -1.6900590911    0.5243593912
 H    1.0971519711   -0.3488073912    2.0166400640
 H    1.5247062876   -2.4839322888   -1.7572364613
 H    0.0560772537   -0.3475617660   -2.2152921611