20

 C   -0.0135572137    1.5503396051    0.1530134561
 C   -0.0037773499    0.0176658460    0.0227955022
 C    0.8510034458   -0.6254969715    1.1218750506
 C   -1.4143641838   -0.5175196253   -0.0059411323
 C   -2.2583529576   -0.9586636143    1.1506187436
 C   -1.9502479723   -1.9435097436    0.0120823859
 C   -2.8193167730   -1.5376578970   -1.1634160670
 O   -3.6590866853   -2.0509582108   -1.8458802524
 N   -2.2691593486   -0.2369627797   -1.1780406349
 H    1.0054009362    1.9479882418    0.1144131201
 H   -0.5826054678    2.0155200113   -0.6579211406
 H   -0.4602338150    1.8605463787    1.1043882616
 H    0.4389371076   -0.2334719135   -0.9501196808
 H    0.4899092251   -0.3556292866    2.1203411140
 H    0.8578272782   -1.7172559071    1.0444161237
 H    1.8859715800   -0.2796605215    1.0444492292
 H   -1.7452366605   -1.1819925323    2.0811401027
 H   -3.2682899104   -0.5776491755    1.2735693628
 H   -1.4417781768   -2.8827204831    0.1774131818
 H   -2.8486900583    0.5920211588   -1.2606899962