12

 O   -0.0379272618    0.0304148913   -0.3018907141
 C   -0.0567698930    1.1874709496   -0.0665819327
 C   -1.0617240427    2.2440401569    0.3766534067
 O   -0.0232028594    3.2476679729    0.3826388325
 C    1.0325773311    2.3556985858   -0.0530896021
 C    2.1004386985    2.1833620527    0.9095513076
 C    2.9599076277    1.9968957962    1.7270886372
 C    1.5225582601    2.7029203736   -1.3901479631
 N    1.8718414682    2.9518351150   -2.4629941039
 H   -1.8543789573    2.4544346816   -0.3509242623
 H   -1.5003381237    2.0801966863    1.3676208491
 H    3.7304022324    1.8450023282    2.4435235051