20

 C   -0.8664203918    1.1936723984   -0.6021868782
 O   -1.0167751875   -0.2060893615   -0.6203255892
 C   -0.7537386331   -0.8035656327    0.6277413891
 C   -1.0037307373   -2.3105939454    0.5114983434
 N   -0.7712154805   -2.9160522522    1.8229735148
 C   -2.4322708318   -2.5339106769    0.0119019315
 O   -3.4096393256   -2.3848384291    0.7062872863
 O   -2.4723087449   -2.9284005242   -1.2693188243
 C   -3.7855419187   -3.1163569818   -1.8145779732
 H   -1.0924924107    1.5599340541   -1.6064261015
 H   -1.5547577775    1.6683275437    0.1144606979
 H    0.1611469562    1.4894758459   -0.3384667075
 H    0.2863964969   -0.6386192129    0.9464041283
 H   -1.4152513647   -0.3897304992    1.4074319253
 H   -0.3025146658   -2.7287173946   -0.2145351841
 H   -1.5842205506   -2.7246380071    2.4053370686
 H   -0.7276676236   -3.9264977429    1.7303526981
 H   -4.3326003145   -3.8753464729   -1.2496997081
 H   -4.3493156796   -2.1807677323   -1.7836940651
 H   -3.6361172549   -3.4385891562   -2.8449643723