22

 C   -0.1937778999    1.5972046597   -0.0076963291
 C   -0.0537876967    0.0895190232   -0.0878784302
 C    0.8944104228   -0.5748983503   -1.0865573373
 C    2.0979969274   -0.2458742560   -0.1589717938
 C    2.6042935495   -1.6916454391   -0.1163965149
 C    3.3873232258   -2.1672765209    1.0977089994
 C    1.0657081708   -1.7780343795   -0.0998588036
 C    0.1967245057   -2.9893780640    0.0738674311
 N    0.9639480988   -0.5450812713    0.8644992784
 H    0.7659348615    2.1088143325   -0.1250856176
 H   -0.8667124794    1.9618464352   -0.7915439517
 H   -0.6158766846    1.8887366087    0.9598131772
 H   -1.0379405136   -0.3847642361    0.0144735913
 H    0.8781718832   -0.6053790272   -2.1829299780
 H    2.6675552623    0.6823635977   -0.0981189813
 H    3.0536072249   -2.0323197205   -1.0574146304
 H    2.9201780733   -1.8126804596    2.0202736675
 H    3.4348943572   -3.2613546703    1.1336758298
 H    4.4175427282   -1.7956901103    1.0696194034
 H    0.4367881283   -3.5020678074    1.0109291596
 H   -0.8657123841   -2.7270114039    0.0947494439
 H    0.3544503684   -3.6937702605   -0.7501887738