20

 C   -0.0434720736    1.4269282173   -0.4008816307
 C   -0.0746560342   -0.0342244204    0.0507851560
 O    0.6153097612   -0.2197944414    1.2769141432
 C   -1.5073278511   -0.6081110591    0.1887525779
 C   -1.3958004971   -2.1110413588    0.4350554017
 O   -1.1659130415   -2.9036984217   -0.4397070461
 N   -2.1653124015    0.0172019332    1.3340860109
 C   -3.1110740643    1.0988012933    1.0682571443
 C   -3.5984054582   -0.2382968570    1.4958071552
 H    0.9957002114    1.7577923778   -0.4766359168
 H   -0.5195259366    1.5526377010   -1.3794529207
 H   -0.5519256579    2.0755966731    0.3189032521
 H    0.4465806777   -0.6507555058   -0.6898694730
 H    0.0042995108    0.0773788770    1.9655578147
 H   -2.0549735442   -0.4673873517   -0.7578784064
 H   -1.5324181767   -2.4229740379    1.4928350396
 H   -3.0904584126    1.9261204118    1.7713115251
 H   -3.2756578107    1.3851048074    0.0316890445
 H   -4.0921263770   -0.8516112786    0.7443653510
 H   -3.9354093738   -0.4030971995    2.5145039574