18

 C   -0.0963108563    1.4706355588   -0.3731810487
 C   -0.0288276026    0.0469199310    0.1916845429
 O    0.5245193768    0.0625938476    1.4898512771
 C   -1.3780448636   -0.6079089590    0.2370687482
 N   -1.9574765776   -1.0786135745    1.2933715722
 C   -3.1686438461   -1.5841535448    0.8288185942
 C   -3.2570631088   -1.3886431556   -0.5080970829
 C   -4.2641477746   -1.6911136318   -1.5538501027
 O   -2.0967392261   -0.7547705195   -0.8992239357
 H    0.9064930026    1.9050295184   -0.3704336614
 H   -0.4771678796    1.4667530396   -1.3985303883
 H   -0.7464277195    2.0929983110    0.2481339704
 H    0.6143843582   -0.5559485864   -0.4715239292
 H   -0.1053560837   -0.3874462524    2.0702147682
 H   -3.8830321514   -2.0492985142    1.4892058411
 H   -4.6190317434   -0.7790434577   -2.0464531411
 H   -3.8536797838   -2.3467621746   -2.3297671468
 H   -5.1231165305   -2.1920523859   -1.1019287375