18

 C    0.0798820026    1.4873271455    0.1059885849
 C    0.1370378582   -0.0253800508    0.0868250298
 C    0.6206174964   -0.8239732591   -1.1348690583
 C    1.7719578850   -0.0940209536   -1.8116074937
 O    2.4875405693    0.0180117781   -0.5472050452
 C    1.4755328608   -0.7556152903    0.0918903822
 C   -0.8972093276   -0.8185671502    0.8421560415
 N   -1.8669718959   -0.0971182212    1.4791257053
 O   -0.8583399209   -2.0376400995    0.9060534265
 H    1.0071307208    1.9061324281   -0.2892775497
 H   -0.7532873559    1.8782447224   -0.4898923391
 H   -0.0198253393    1.8613546251    1.1307828185
 H    0.0445942661   -1.6489216870   -1.5271195933
 H    2.3301531932   -0.7315714269   -2.5051711020
 H    1.5811625976    0.8806525610   -2.2745125972
 H    1.7573797889   -1.4893459379    0.8354577326
 H   -2.0079762703    0.8825273853    1.3111251254
 H   -2.6064173489   -0.6206901389    1.9186354820