18

 C   -0.1708613060    1.5927156321   -0.2560526214
 C   -0.0299708609    0.0842477339   -0.1329126231
 C    0.7501443827   -0.6596374041   -1.2258638835
 O    2.1114940839   -0.2023819678   -1.1651769051
 C    1.6944961883   -1.2342389084   -0.2562914646
 C    1.0127525935   -0.5163665397    0.9136384058
 N    1.8613783496    0.3851647889    1.6456305180
 C    1.7934826623    0.5537702300    2.9942842793
 O    1.0224084464   -0.0215962950    3.7327433029
 H    0.7847173677    2.0555275803   -0.5170617052
 H   -0.8954464763    1.8524585087   -1.0349010160
 H   -0.5177632974    2.0306987367    0.6849747269
 H   -1.0035692393   -0.3875670255    0.0332956873
 H    0.4066518973   -1.0493147352   -2.1766942856
 H    2.2589779653   -2.1594325205   -0.2640690198
 H    0.5302624568   -1.1766748328    1.6336219655
 H    2.5342925860    0.9171258788    1.1152595921
 H    2.5405108802    1.2892279896    3.3530102963