16

 C   -0.1334217818    1.5051574693   -0.0304689341
 N    0.0597327080    0.0508448987    0.0127123669
 C    0.7429833732   -0.4973492003   -1.1547451760
 C    0.5755548263   -2.0345296731   -1.2781367786
 O   -0.3115499511   -1.8652395142   -2.4283375037
 C   -0.2030043519   -0.5070702134   -2.3944526029
 O   -0.7171178831    0.2935115067   -3.1032496644
 C    2.0868209264    0.0143051566   -1.4028129422
 C    3.1943555255    0.4516006367   -1.5712481097
 H    0.8046349473    2.0741169077   -0.1112823402
 H   -0.7621774067    1.7586295528   -0.8869421976
 H   -0.6538074907    1.8102804368    0.8808036779
 H    0.6016052572   -0.1908494059    0.8377524645
 H    1.4698031436   -2.5925874468   -1.5562233511
 H    0.0444332105   -2.4936311883   -0.4435358237
 H    4.1701091474    0.8393365567   -1.7339810849