21

 C    0.0246721045    1.4304196265    0.0044394307
 O   -0.0077037661    0.0200669683   -0.0404444091
 C    0.6638982073   -0.5565565845   -1.1577749764
 C    2.1574053121   -0.7295670875   -0.8589919940
 O    2.3960323160   -1.7914496923    0.0565092764
 C    0.0037773155   -1.9056296888   -1.4600848793
 O    0.8127517952   -2.7537655769   -2.2289315342
 C   -0.9271536645   -2.5524016806   -0.4639251257
 C   -1.4593856625   -1.9753591335   -1.7608614112
 H    1.0464630192    1.8271355753    0.0907443384
 H   -0.4414606030    1.8715231923   -0.8890485003
 H   -0.5417471488    1.7362528595    0.8875230726
 H    0.5599651756    0.1057046559   -2.0328802006
 H    2.6889213036   -0.9875435886   -1.7780828069
 H    2.5729940268    0.2184330375   -0.4863726057
 H    1.8094951030   -1.6448447967    0.8080555091
 H    1.5073719770   -3.0627366540   -1.6309951195
 H   -0.8627799569   -3.6322735541   -0.3898583570
 H   -1.1567382409   -2.0278775011    0.4542727542
 H   -2.0336103051   -1.0571237878   -1.7030715558
 H   -1.7606398879   -2.6658268590   -2.5397633456