23

 C   -0.0851819598    1.5315175978    0.0690257981
 C    0.0183366608    0.0062717091   -0.0290827602
 C    0.7740152055   -0.5018614495   -1.2700848391
 C    2.2512757927   -0.0867168758   -1.2837440009
 C    0.6383851883   -2.0213719726   -1.3687595847
 O    1.2177924132   -2.4618404209   -2.5829586002
 C    1.1635929425   -3.8649836308   -2.7315772904
 C    1.7770749546   -4.2592358352   -3.9934294113
 C    2.2769556420   -4.6121054040   -5.0265724590
 H    0.8968143856    2.0025800705    0.1722381275
 H   -0.5638236660    1.9523447876   -0.8223533374
 H   -0.6830216559    1.8262175254    0.9370995652
 H    0.5072447481   -0.3852861412    0.8739438677
 H   -0.9950402765   -0.4164942570   -0.0336155575
 H    0.2885293236   -0.0842398459   -2.1633880584
 H    2.3655403300    0.9992273461   -1.3389917098
 H    2.7596302909   -0.4310858189   -0.3742713699
 H    2.7621452507   -0.5269441428   -2.1428367315
 H    1.1390644773   -2.5057146216   -0.5108246529
 H   -0.4249072218   -2.3141450155   -1.3308426976
 H    1.6839793538   -4.3636990017   -1.8953035882
 H    0.1176608626   -4.2174182775   -2.7029218419
 H    2.7205046078   -4.9171579854   -5.9419214177