17

 C   -0.4497063847    1.5321105276   -0.0138711789
 C    0.0778467714    0.1108987276   -0.0709736784
 O    1.1646469366    0.0475830460   -1.0490126431
 C    2.1201285904   -0.7057190929   -0.4627989071
 N    1.9906577560   -1.0950510900    0.7386369298
 C    0.7213644617   -0.5046077270    1.2168293854
 C    1.0107930274    0.4554451269    2.3731644726
 C    3.2583078076   -1.0070468471   -1.2886956156
 N    4.1709090439   -1.2461827588   -1.9548916301
 H    0.3182158170    2.2325475708    0.3224078433
 H   -0.7912633622    1.8445817128   -1.0039955190
 H   -1.2997707502    1.5906746190    0.6723631616
 H   -0.7022933426   -0.5587459249   -0.4500798690
 H    0.0899121987   -1.3167497531    1.5908579852
 H    1.6667439266    1.2729657234    2.0608843698
 H    0.0857141673    0.8825937382    2.7710442087
 H    1.5133533052   -0.0890426986    3.1759812448