17

 C   -1.8901523079    0.6250939575   -0.7268190139
 N   -0.8292281006   -0.3603705561   -0.5210660463
 C    0.3758089833   -0.3549216756   -1.2961671715
 C    0.6969674876    0.6877261321   -2.3632499809
 C   -0.0472403110    0.4371656155   -3.5973820754
 N   -0.6424990999    0.2298970059   -4.5658203958
 C    0.4201551992   -0.0182036476    0.1858923859
 C    0.7476279258    1.3548512950    0.6518442107
 O    0.4335795031    2.3922672901    0.1080490715
 H   -1.5480839305    1.6588872189   -0.8333468716
 H   -2.4446579178    0.3310502547   -1.6220130371
 H   -2.5681235864    0.5722605707    0.1293826307
 H    0.7322112644   -1.3518051317   -1.5538865563
 H    0.4844690739    1.6973957362   -2.0042722782
 H    1.7684716439    0.6459302522   -2.5899491419
 H    0.7620398172   -0.7944517792    0.8677611677
 H    1.3272665656    1.3712125414    1.6000050023