12

 N   -0.0575316960    1.3026956391   -0.1855197360
 C   -0.0098602096    0.0449321844   -0.0113189164
 N    1.1969462796   -0.6708201541    0.1906692331
 C    1.1646893571   -1.9239754190    0.3571919406
 O    0.0578332012   -2.7266902166    0.3690482260
 C   -1.1319913735   -2.1078077494    0.1815714012
 C   -1.2341887668   -0.7783642715   -0.0069836463
 C   -2.5178771129   -0.1902913708   -0.1985188649
 N   -3.5739088955    0.2569647130   -0.3511464313
 H    0.8894116157    1.6855401949   -0.1546433533
 H    2.0588257623   -2.5183314445    0.5154924743
 H   -1.9644649416   -2.7980862956    0.2021679530