19

 O   -0.0303793234    1.4635836794    0.0236768087
 C    0.0695131544    0.0436705800   -0.0352049359
 C   -1.3693536515   -0.5453098681   -0.0014397799
 C   -1.2753750714   -1.7883668306   -0.9070479392
 O   -1.0919120357   -2.9989238077   -0.1800003133
 C   -2.0743539576   -2.0289188620   -2.2416764482
 C   -0.6914594599   -2.2005673149   -2.9850495392
 C   -0.0944062462   -1.4934113067   -1.7918806285
 C    0.6232532939   -0.4593520486   -1.3746851068
 H    0.8538569171    1.8194200710    0.1552094606
 H    0.6672810074   -0.3192053518    0.8153740594
 H   -1.7142454874   -0.7762941674    1.0101360722
 H   -2.0286057069    0.2155060808   -0.4305037376
 H   -1.9431585577   -3.2360325985    0.2039145238
 H   -2.7426334215   -2.8942187202   -2.2509412072
 H   -2.6099540806   -1.1387442830   -2.5787727978
 H   -0.4111057202   -3.2558507429   -3.0459370699
 H   -0.5697255039   -1.7373388112   -3.9665102666
 H    1.4205112811    0.0593147023   -1.8967254147