18

 N   -0.3861165403    0.6615447179   -1.0249577381
 C   -0.6459194026   -0.3059864672   -0.2581909639
 O   -0.1547468167   -1.5318616070   -0.5364333362
 C   -0.5130079162   -2.5729637128    0.3843929323
 C   -1.9177349747   -2.9542775272    0.3244152026
 C   -3.0844066006   -3.2550628664    0.2680391343
 C   -4.4682173968   -3.6162509715    0.1987193332
 C   -5.1554896924   -3.7305061359   -1.1553633389
 C   -4.8761036145   -4.9708502243   -0.3646232174
 H   -0.8191696172    1.5109712418   -0.6683408486
 H   -1.2520982824   -0.2713345667    0.6566884547
 H    0.1305480374   -3.4134243903    0.1097968562
 H   -0.2417387740   -2.2752289590    1.4070293885
 H   -5.0841168847   -3.2377928292    1.0091940576
 H   -6.1764907201   -3.3720785440   -1.2189755084
 H   -4.5488336678   -3.5344588369   -2.0310185050
 H   -4.0791437239   -5.6226436892   -0.7013828383
 H   -5.7027672926   -5.4760674821    0.1216574054