20

 N   -0.2080443885    1.1753908481    0.6733169592
 C    0.0251167241   -0.0283310984    0.0693163545
 O    1.1177463326   -0.3290529953   -0.3722497255
 C   -1.1918214015   -0.9491738638   -0.0192630969
 C   -0.8037770413   -2.4291258329   -0.1154775517
 C   -0.2102049844   -2.9448059996    1.2289577779
 C   -1.3501107134   -3.7135633812    1.8509081557
 C   -2.3456265874   -3.9187249524    0.9904291916
 C   -2.0522954141   -3.3245040118   -0.3664120376
 H    0.5278090678    1.8627700199    0.6618860324
 H   -1.1264644402    1.4567503083    0.9677319123
 H   -1.8623237953   -0.7835317962    0.8336789164
 H   -1.7513837851   -0.6515015640   -0.9167463068
 H   -0.0714700690   -2.5205799189   -0.9189243985
 H    0.6577817393   -3.5965276580    1.0628532963
 H    0.1512354093   -2.1262178116    1.8628837556
 H   -1.3234759060   -4.0733475870    2.8739909115
 H   -3.2539058603   -4.4729528528    1.2013239112
 H   -2.8974513405   -2.7546711038   -0.7734382814
 H   -1.8410019060   -4.1156123586   -1.0993257162