19

 C    0.2103756672    1.5171255870    0.0258512411
 O    1.1443580501    0.4715109300   -0.2478048602
 C   -0.2149456195    0.1110641579    0.0042655162
 C   -0.4862005986   -0.6696458919    1.2665162692
 C   -1.9777604384   -0.6215762180    1.6917460521
 O   -2.2681872192   -1.8502076674    2.3504216807
 C   -1.3660001639   -2.8213607083    1.8843989874
 C   -1.2182718139   -3.0139129791    0.3983491531
 C   -0.2180158963   -2.1677707651    1.1752782893
 H    0.3441261521    2.0225360469    0.9819484940
 H   -0.0237836790    2.1696340576   -0.8140634135
 H   -0.7474639373   -0.2444012191   -0.8802159900
 H    0.1454933293   -0.2576264396    2.0616249812
 H   -2.2013108795    0.1948041486    2.3835638280
 H   -2.6232739391   -0.4972996186    0.8091100900
 H   -1.2701972619   -3.6507145267    2.5746769473
 H   -0.8731663969   -3.9827148272    0.0539422602
 H   -1.9282965892   -2.5354903428   -0.2681901770
 H    0.8027480641   -2.5150162943    1.2755175608