22

 C   -0.6934730518    1.4900417009   -0.6306027259
 C   -0.2723930936    0.0527293907   -0.3557013951
 N    1.0220909672   -0.4637890002   -0.9265073622
 C    1.8567955193    0.3778287326   -1.7632044315
 C    1.5083531429   -0.8404136160    0.4031360313
 C    2.2995443919   -2.0973764645    0.6071859195
 C    1.5447166028    0.3514030325    1.3518378122
 C    0.2338710827   -0.3335280489    1.0391298421
 O   -0.5363468358   -0.9688880357    1.9973076396
 H    0.0471581213    2.2179263150   -0.2877417547
 H   -0.8637297765    1.6576706989   -1.6992917893
 H   -1.6362834293    1.6992408101   -0.1133899743
 H   -1.0826023528   -0.6236437686   -0.6571008601
 H    2.1946826169    1.3190094310   -1.2951404724
 H    2.7509508661   -0.1857639837   -2.0505956731
 H    1.3216511147    0.6315680007   -2.6837291338
 H    3.3320353472   -1.9843552500    0.2559789999
 H    2.3361588317   -2.3598585484    1.6686799856
 H    1.8437890620   -2.9273227828    0.0586845806
 H    1.9286250417    0.1201863552    2.3412827811
 H    1.7702229579    1.3559919428    1.0052852538
 H   -0.8476119165   -0.3074422817    2.6242729468