18

 C   -0.0142461070    1.5852027101    0.1503788467
 N    1.4778485558    1.2460053640    0.0647369313
 C    1.1176438268    0.0473948874    0.9911890233
 C   -0.0068964255    0.0407400539   -0.0548450204
 O   -1.0570464767   -0.8181960903   -0.3338271471
 C   -1.4950300532   -0.5255734619   -1.6658802998
 O   -0.4694598123   -0.5033032672   -2.6247560242
 C    0.4885985093    0.5590621406   -2.4423414214
 C    1.0971715367    0.2611842825   -1.0787253051
 H   -0.3149804352    1.9610445635    1.1307235365
 H   -0.3652263344    2.2470838996   -0.6402859379
 H    1.8493888770   -0.7628829616    0.9614383180
 H    0.8883449080    0.3584666658    2.0127109000
 H   -2.1720417249   -1.3320561420   -1.9487936507
 H   -2.0274093345    0.4410562189   -1.6590715997
 H    1.1961116294    0.4688440194   -3.2686612975
 H   -0.0054692245    1.5354323447   -2.5162094519
 H    1.8352067052   -0.5402756873   -1.1652815301