18

 O   -0.0803929082    1.5901143669   -0.0817405232
 C    0.0534605747    0.2053332815    0.1645296786
 C   -1.2909551260   -0.5055977825    0.0476288307
 O   -1.7563077880   -0.3147607817   -1.3294949749
 C   -1.8632269530   -1.5567247611   -1.8537170298
 N   -1.6590782882   -2.5701221971   -1.1238967270
 C   -1.3287424012   -2.0518715960    0.2233744403
 C   -0.0592884987   -2.7540252420    0.7221970780
 O   -0.2686758651   -4.1472385273    0.7808077845
 H   -0.4732097680    1.6789723375   -0.9575808490
 H    0.7813714574   -0.2572661271   -0.5187520657
 H    0.4382366699    0.1023777626    1.1843722222
 H   -2.0130043906    0.0034757720    0.6910414538
 H   -2.1333303769   -1.5793451770   -2.9039121863
 H   -2.1391648741   -2.3420559833    0.9020716328
 H    0.7900140147   -2.5022247429    0.0681925068
 H    0.1884394559   -2.4257100714    1.7373656972
 H   -0.6496724547   -4.3931777611   -0.0720770591