19

 O   -0.0092340792    1.4704923569   -0.1529422042
 C    0.0683140101    0.0749195698    0.0609266319
 C   -1.3063945727   -0.5699463617   -0.0323278373
 O   -1.8184063057   -0.2972252219   -1.3415282336
 C   -2.9411189602   -1.1526593364   -1.5274199256
 C   -2.5600523667   -2.4735268801   -0.8616296880
 O   -1.6673552211   -3.2715297930   -1.6615616395
 C   -0.5478778542   -2.9771020556   -0.8010584043
 C   -1.4173566277   -2.0904977133    0.1203645165
 H   -0.4992559384    1.5864593247   -0.9754616670
 H    0.7510678498   -0.4024167076   -0.6578274788
 H    0.4789097831   -0.0727738086    1.0655008359
 H   -1.9603980441   -0.0927300728    0.7181697713
 H   -3.8375944538   -0.7304955297   -1.0441174286
 H   -3.1231900082   -1.2584751966   -2.5993858000
 H   -3.4188644274   -3.0496360617   -0.5026761228
 H   -0.1526744075   -3.8829200396   -0.3261070784
 H    0.2606708993   -2.4750178020   -1.3432073113
 H   -1.4978519555   -2.4167571809    1.1567650238