16

 N    0.1217268370    1.3907002653    0.1453680686
 C   -0.0125062101    0.0044342971    0.0315897491
 C   -1.1788863399   -0.6819377298   -0.0080772634
 C   -1.2116451201   -2.1456003143   -0.0150023648
 O   -2.2579258490   -2.7888733950   -0.0476720551
 C    0.1094415149   -2.7765130612   -0.0255241559
 C    1.2484114873   -2.0455783043    0.0145144744
 N    2.5469923641   -2.5523156660    0.1125255581
 H    2.5697672543   -3.5608840948    0.0484649617
 H    3.1926194462   -2.1454265367   -0.5545872518
 N    1.2003317403   -0.6623242514    0.0183668138
 H    0.7711382909    1.7914641677   -0.5217786997
 H   -0.7685790281    1.8666347218    0.0936576246
 H   -2.1242736544   -0.1546976839   -0.0541458019
 H    0.1532038565   -3.8574434132   -0.0849883727
 H    1.9920338500   -0.1786820312    0.4163669951