19

 C    0.0806614580    1.5846920327   -0.0545873647
 C    0.0382931189    0.0686316734    0.0462909347
 C    0.9001668019   -0.7672490571   -0.9561430290
 C    1.4360909608   -1.6182516926    0.2191961924
 O    2.8521537316   -1.5049636993    0.4520069296
 C    2.9727004197   -0.4502510237    1.3116295514
 N    4.2675430749   -0.0695347449    1.5324335253
 N    1.9238074820    0.0979965772    1.7935827373
 C    0.7861822402   -0.6260082099    1.2324456886
 H    1.1075699527    1.9508480973    0.0312779993
 H   -0.3302002046    1.9226994947   -1.0125971102
 H   -0.5030176324    2.0517726713    0.7456438287
 H   -1.0012923687   -0.2770990898    0.0253302169
 H    0.3562486087   -1.3079314399   -1.7342926028
 H    1.7005103634   -0.1900557614   -1.4275634593
 H    1.1703038754   -2.6754562460    0.2323248070
 H    4.9573397555   -0.7923389030    1.3978683437
 H    4.3952871547    0.4945713419    2.3578921424
 H    0.1448361872   -1.0134115708    2.0305642285