16

 N    0.2779929342    0.4263728392    1.3053868643
 C    0.0782601230   -0.0018967034    0.1292318120
 O    1.0553284910    0.2071527637   -0.8386969626
 C    1.3961462458   -0.6281169096   -1.8738645137
 O    2.1767499957   -0.2264911076   -2.6866073291
 C    0.7714215342   -2.0031352229   -1.8890530839
 C   -0.7133327552   -1.9607044233   -2.2796346509
 C   -1.6012836835   -1.3196969921   -1.2569150964
 C   -1.2420463101   -0.5425438161   -0.2320615599
 H    1.2189930664    0.8163237751    1.3853628565
 H    1.3365685307   -2.5899143710   -2.6143164685
 H    0.8754119717   -2.4707096144   -0.9034620254
 H   -0.8333512408   -1.4641658396   -3.2529715732
 H   -1.0591788461   -2.9895862382   -2.4367771862
 H   -2.6578972271   -1.5617862333   -1.3452456647
 H   -1.9946384499   -0.2372054365    0.4867707917