19

 C    0.0611468027    1.5411927914   -0.0074518782
 C   -0.0669406925    0.0193155232    0.0959717048
 C   -1.5044749189   -0.5277962580   -0.0249834434
 C   -2.1608991716   -0.1473998087   -1.3584332344
 C   -1.5334447908   -2.0713189057    0.2096837300
 O   -2.3991291020   -2.2550118377    1.3548730675
 C   -2.7488531152   -1.0038269242    1.7368829409
 N   -2.3344620862    0.0001153654    1.0882706381
 H    1.0897609678    1.8525326516    0.1989001697
 H   -0.1961365296    1.9065957805   -1.0061141272
 H   -0.5978159675    2.0315566990    0.7135202272
 H    0.5494623068   -0.4630832858   -0.6748225063
 H    0.3321568296   -0.3105462517    1.0630523951
 H   -1.5575997006   -0.4977174557   -2.2035754607
 H   -3.1552138730   -0.5974966396   -1.4363709207
 H   -2.2782494706    0.9351615552   -1.4397805238
 H   -1.9563794568   -2.6307476689   -0.6292780034
 H   -0.5512183978   -2.4858293684    0.4570390565
 H   -3.3899811540   -0.9703495518    2.6114972583