22

 C   -0.0632098811    1.3630889809    0.2412934662
 O   -0.0309312895   -0.0170600423   -0.0269015849
 C   -1.2991194557   -0.6261986115    0.0709215740
 C   -1.1482740706   -2.1127387844   -0.2226277559
 C   -2.4803427138   -2.8651725066   -0.1598178802
 C   -2.3134846861   -4.3634400276   -0.4420380411
 N   -3.5690110265   -5.0975280436   -0.4084448141
 C   -3.9527785274   -5.8620702510    0.6488078346
 O   -3.2961863434   -6.0545677359    1.6502240514
 H    0.9573286233    1.7410399500    0.1420333361
 H   -0.7122217056    1.9036505442   -0.4666955715
 H   -0.4223191912    1.5744418568    1.2614023154
 H   -1.7219202765   -0.4754006208    1.0799342662
 H   -2.0038979101   -0.1625419588   -0.6426458931
 H   -0.6939483478   -2.2266176572   -1.2146768830
 H   -0.4396701087   -2.5404118346    0.4966466282
 H   -2.9376599701   -2.7464566723    0.8299100991
 H   -3.1857439220   -2.4349830548   -0.8842568669
 H   -1.8390705941   -4.5128902267   -1.4195680392
 H   -1.6710538357   -4.8203912392    0.3145119334
 H   -4.2227829531   -4.9785422307   -1.1659218347
 H   -4.9538438144   -6.3103591339    0.4872160099