20

 C   -0.7178189703    0.7190563678   -0.3691165768
 O    0.2890175953    0.3767201071   -1.2946178814
 C    1.3739096198   -0.3374605006   -0.7345791384
 C    1.0995229375   -1.8425595647   -0.5937758120
 C    0.7589089151   -2.4995065124   -1.9352922623
 C    0.7869882799   -4.0110148903   -1.7613564691
 O    2.0417331362   -4.4476226625   -1.2091282583
 C    2.6281567668   -3.6022938737   -0.3308795539
 N    2.2776080852   -2.4431996569    0.0342221873
 H   -1.2301857344   -0.1600067181    0.0500571027
 H   -0.3129252007    1.3095643297    0.4671447663
 H   -1.4545133428    1.3242162272   -0.9037798962
 H    2.2233602928   -0.1944701199   -1.4120189311
 H    1.6570071934    0.0682080243    0.2475746313
 H    0.2527122522   -1.9733188281    0.0957737498
 H   -0.2179840730   -2.1735473470   -2.3018684993
 H    1.5037916578   -2.2053016457   -2.6848106968
 H   -0.0148694819   -4.3438520112   -1.0894718062
 H    0.6815146728   -4.5435011611   -2.7094259013
 H    3.5273246682   -4.0637098939    0.0745696856