18

 C    0.0407856470    1.5078985805   -0.1085516379
 C   -0.0442734272   -0.0237032986    0.0296392586
 C    0.6983468738   -0.4849640005    1.2095228370
 N    1.2929996687   -0.8561356721    2.1280807256
 C   -1.4962216789   -0.5344159670    0.0872728658
 O   -2.1227267087    0.1208362982    1.1529235058
 C   -2.1932389113   -0.5511287717   -1.3007582071
 O   -1.9782401610   -1.9695472266   -1.4164783633
 C   -1.6200754767   -2.0757651676   -0.0240971663
 H    1.0824978251    1.8294988644   -0.1733587785
 H   -0.4757467554    1.8305630193   -1.0168593648
 H   -0.4270101927    1.9928217166    0.7490775458
 H    0.4224847410   -0.4945497574   -0.8442504362
 H   -3.0094152729   -0.2377305636    1.2639868685
 H   -3.2607029061   -0.2927180914   -1.2376637220
 H   -1.7362165744    0.0088975557   -2.1238525020
 H   -0.7207510819   -2.6786806690    0.1369312635
 H   -2.4403541085   -2.4814158492    0.5868944875