16

 C    0.0162731118    1.4501445588    0.1271165944
 C    1.4819262482    1.8915310694   -0.1146054375
 C    2.2267251875    0.5789422092   -0.0300221554
 N    3.5286766155    0.3945670424    0.0699680011
 C    3.9131744415   -0.8958264822    0.0964913437
 N    3.1269577552   -1.9644468214    0.0341371837
 C    1.8049601126   -1.7599162253   -0.0729731456
 C    1.2968094358   -0.4696742971   -0.1126284215
 N    0.0058987880    0.0216361779   -0.2611155600
 H   -0.2478673702    1.5741944343    1.1873346888
 H   -0.7023886611    2.0159773277   -0.4702426023
 H    1.6054318210    2.3229864604   -1.1154499236
 H    1.8319862225    2.6321365316    0.6069276244
 H    4.9803479774   -1.0779004381    0.1854269793
 H    1.1687531476   -2.6410364546   -0.1199527734
 H   -0.7513235932   -0.5366560629    0.1058827441