25

 C   -0.5284159832    1.2501726462   -0.1289081576
 C    0.2339174002   -0.0642416602   -0.1365487743
 O    0.2233865082   -0.5981644196    1.1736328578
 C    0.8747699519   -1.8339941028    1.2893652302
 C    2.4269850890   -1.8870613627    1.2740403051
 C    2.3470716062   -2.9008192499    2.4477276311
 C    0.8736718097   -2.4518699222    2.7201766077
 C    0.7939185731   -1.3821705386    3.8133659946
 C   -0.1457570009   -3.5599289745    2.9666265908
 H   -0.0599151546    1.9609074770    0.5578843773
 H   -0.5409059190    1.6911359642   -1.1302288282
 H   -1.5611146097    1.0924430718    0.1951111674
 H   -0.2309540242   -0.7780200698   -0.8381243568
 H    1.2695189116    0.0935060279   -0.4788074347
 H    0.4580590523   -2.5491052280    0.5603576821
 H    2.9202562194   -2.2107119209    0.3547923103
 H    2.8521285496   -0.9291155882    1.5855558449
 H    2.4033590515   -3.9376121252    2.1036370526
 H    3.0570455847   -2.7693322656    3.2680913476
 H    1.5310006087   -0.5878395973    3.6657668894
 H   -0.1935515350   -0.9120973183    3.8278721984
 H    0.9752892057   -1.8345925385    4.7948951848
 H    0.0296355127   -4.0500038369    3.9314912339
 H   -1.1664759212   -3.1603969894    2.9786054609
 H   -0.0946180368   -4.3290649586    2.1882726346