15

 C    0.0645120453    1.3581513342   -0.0530809473
 N    0.2386832374   -0.0881731446   -0.0726709443
 C    0.5977946734   -0.6773795820    0.9691997674
 O    0.8765113377   -0.1891490158    2.2403417769
 C    1.0040352343   -1.5401102285    2.7773613397
 C    0.8254000376   -2.1370006218    1.3614925302
 N   -0.2064581676   -3.1352444982    1.1845498897
 H    0.8311096651    1.8228586349   -0.6837467268
 H   -0.9058352712    1.6065292296   -0.4958085978
 H    0.1227253428    1.8009042786    0.9481356791
 H    1.9693920504   -1.6842266600    3.2673673172
 H    0.1871489550   -1.7697277545    3.4679121264
 H    1.7627683785   -2.5242048675    0.9522640205
 H   -1.1201289472   -2.7289509384    1.3683265218
 H   -0.2248571613   -3.4389383059    0.2158313572