22

 C    0.1155190259    1.3100519952   -0.2095813365
 O    0.0240047834   -0.0585079873    0.0977351052
 C   -1.2827792641   -0.5708957950   -0.0577486102
 C   -1.2617876083   -2.0515713788    0.3111147482
 C   -2.5927772804   -2.7588197840    0.1060971911
 C   -3.7345467608   -2.2892866556    0.9905432629
 C   -2.9325296128   -3.2200742146   -1.2936209564
 C   -2.5459963276   -4.2288079894   -0.2371934582
 H    1.1554595222    1.6120901892   -0.0614173039
 H   -0.1682184870    1.5162969951   -1.2544608786
 H   -0.5277679192    1.9218657290    0.4436777466
 H   -1.9859703247   -0.0127743068    0.5831449355
 H   -1.6259593137   -0.4421608313   -1.0990255296
 H   -0.4880831821   -2.5347974943   -0.2963401063
 H   -0.9421756926   -2.1469140993    1.3568785551
 H   -3.9969569526   -1.2425041663    0.8011047406
 H   -4.6351057078   -2.8872764829    0.8190350937
 H   -3.4734022250   -2.3789131803    2.0519217621
 H   -3.9697030490   -3.1830992359   -1.6101927336
 H   -2.2214832952   -3.0190234890   -2.0884446493
 H   -1.5758947519   -4.7077631692   -0.3196598633
 H   -3.3236637868   -4.8710309282    0.1630736750