22

 C    0.3010939411    1.0470005960    0.7099239012
 C    0.1942169553   -0.2842529381   -0.0484963595
 C    1.1418748523   -1.3398885862    0.5417312164
 C   -1.2379482016   -0.7957591408   -0.0373018232
 C   -2.2958067488   -0.3688327467   -1.0464807422
 C   -2.0107732672    0.5880319013   -2.1847133478
 C   -1.7340522462   -1.7777026799   -1.0615656735
 O   -0.8169925301   -2.1448577585   -2.0567062230
 H    1.3281520065    1.4274076068    0.6946381894
 H   -0.3493402713    1.8116618494    0.2736929145
 H    0.0100429832    0.9237872469    1.7602905422
 H    0.4975872520   -0.1151529191   -1.0862186754
 H    0.8713586998   -1.5750639663    1.5784628623
 H    1.0999794340   -2.2652760667   -0.0388816759
 H    2.1771129500   -0.9817827431    0.5432808794
 H   -1.6143634930   -0.9645482622    0.9707476317
 H   -3.3016232169   -0.2813479725   -0.6419765006
 H   -1.0631632469    0.3589904543   -2.6769110732
 H   -2.7995602614    0.5281139800   -2.9437842756
 H   -1.9708460938    1.6263066330   -1.8386522363
 H   -2.3761177659   -2.5922021481   -0.7255958133
 H   -1.3040034411   -2.2848368996   -2.8755515776