18

 C    1.1614715487   -0.9524447641   -0.4219134985
 C    0.0055320023   -0.1919716416   -0.9742877164
 N    0.5470172121    0.1250228524    0.3464826657
 C   -0.1935218439   -0.2358580377    1.5349381224
 C   -1.3550102892    0.7118116092    1.9964376978
 C   -2.2227302309   -0.5334818220    2.2028384247
 N   -2.3937999219   -1.1402083076    0.8646610317
 C   -1.1683690647   -1.4352598804    1.6565356751
 H    0.9716012392   -1.9780309592   -0.1086893365
 H    2.1720279981   -0.7667199879   -0.7760837678
 H    0.1759011175    0.5719881766   -1.7286262702
 H   -0.9537391880   -0.6939698173   -1.0255935871
 H    0.5362227130   -0.3243683746    2.3474414061
 H   -1.1183032398    1.2668430368    2.9056262973
 H   -1.7302811021    1.3942698110    1.2310775792
 H   -2.9415104138   -0.7216982986    2.9901035114
 H   -3.0084603871   -1.9466586601    0.9739281732
 H   -0.9277155697   -2.4561294050    1.9297364817