17

 O   -0.0774045587    1.4039323001   -0.1301522682
 C   -0.0404795011    0.0618670690    0.3148776903
 C   -1.3879724289   -0.5891940432    0.0315906280
 O   -1.6802187554   -0.5349086390   -1.3850556563
 C   -1.6351120510   -1.9733678480   -1.5057795031
 C   -1.4476142616   -2.1465707012    0.0175757801
 O   -0.2624687428   -2.7363855953    0.4990381545
 C   -2.6547026600   -2.6977172949    0.7589667515
 O   -3.7564925785   -2.8100664683    0.2890783469
 H   -0.3532852971    1.3697527294   -1.0546819069
 H    0.7607511409   -0.5112447553   -0.1698281271
 H    0.1590005466    0.0788022765    1.3907218628
 H   -2.1765819603   -0.0904604359    0.6075974384
 H   -2.5713326626   -2.3774791619   -1.9011816464
 H   -0.7787518364   -2.3184788623   -2.0964065162
 H   -0.2755617293   -3.6785407355    0.2972650337
 H   -2.4217720437   -2.9936692542    1.8071033780