17

 C    0.0621743398    1.4464276015    0.2124735974
 C    1.3101264954    0.6395903033    0.0528710804
 O    1.6758269064    0.0017334267    1.2850000132
 C    0.4514535580   -0.7502376684    1.2423356672
 C   -0.0318102199   -0.0551489005   -0.0055342251
 C    0.3541330559   -2.2225069482    1.4847212614
 C    1.1728315051   -2.5636702192    2.7260586084
 O    0.5128986106   -1.5356608600    3.5131306553
 C   -0.3339356627   -1.2019930750    2.4171794034
 H   -0.1747711302    1.8798711726    1.1795050817
 H   -0.2223016054    2.0428379515   -0.6491476790
 H    2.0876639100    0.7960606143   -0.6845234658
 H   -0.5569387689   -0.5152015559   -0.8311318188
 H   -0.0355113951   -2.9264135806    0.7597103129
 H    0.9551255946   -3.5546754006    3.1377204045
 H    2.2546003780   -2.4072870632    2.6613470482
 H   -1.3700246414   -0.9577816384    2.6299013645