16

 N    0.1907303346    1.4651744548    0.0536713936
 C    0.0953166874    0.0462499679   -0.0160971801
 C   -0.1234915930   -0.7048197714    1.3210091415
 O   -1.5251092437   -0.2089443880    1.3386538118
 C   -1.3195934105   -0.6888219741   -0.0441801094
 C   -2.3871337883   -0.5591355083   -0.9976373973
 N   -3.2059783442   -0.4495821596   -1.8072010415
 C   -0.6541092395   -1.9670170817    0.5542673784
 N    0.1170458678   -2.8551805971   -0.2590991475
 H    0.1372728535    1.8909693373   -0.8647815752
 H   -0.5632692500    1.8321707477    0.6264132979
 H    0.8451759174   -0.3545782692   -0.7024426688
 H    0.4390650173   -0.6212457757    2.2504530345
 H   -1.3712058072   -2.5222318245    1.1595863713
 H    0.9614397373   -2.4394287703   -0.6324670104
 H    0.3776276112   -3.6875456078    0.2550421212