17

 C    0.0387193053    1.4070666744   -0.0173768086
 N    0.0183093049   -0.0426507549   -0.1402766639
 C   -1.1966681507   -0.6694250184   -0.1207764606
 N   -2.3439762186   -0.1860930583    0.2406887495
 C   -3.2094110154   -1.2838847606    0.1587192505
 C   -2.5294332686   -2.3631848436   -0.2736213127
 O   -2.8675279956   -3.6070180388   -0.6151775430
 C   -2.2507168721   -4.6440251956    0.1595008727
 O   -1.2018794835   -1.9837835185   -0.4638952827
 H    1.0762896539    1.7372944079    0.0662700250
 H   -0.4374719132    1.9181282958   -0.8652328454
 H   -0.4983290530    1.6931246616    0.8889759949
 H    0.6729064609   -0.4423416426   -0.7959419246
 H   -4.2564995167   -1.2093449079    0.4010586897
 H   -1.1636900852   -4.6340067561    0.0306160916
 H   -2.4947816059   -4.5262133223    1.2215547041
 H   -2.6559147966   -5.5859711422   -0.2127260064