21

 C   -0.9802583561    1.2772697672   -0.1549910938
 C   -0.4782789243   -0.1150246100    0.1669506321
 C    0.8514106878   -0.5989754152   -0.3100065400
 N    0.5891622688   -0.4368870215    1.1147151236
 C    1.3185103879    0.5225180503    1.9695516446
 C    2.2076248707   -0.3320397150    2.9024674235
 C    2.2026597377    1.5767363914    1.2634248840
 C    0.3196131021    1.2249519148    2.8021560149
 N   -0.4476801999    1.7848314666    3.4604092192
 H   -0.1761831538    1.9754633176   -0.3971785738
 H   -1.6408150987    1.2237214902   -1.0270126471
 H   -1.5569328972    1.6936670773    0.6755845475
 H   -1.2827969819   -0.8477549562    0.2239798261
 H    1.0016494777   -1.6219589345   -0.6476273815
 H    1.4709556724    0.1357395193   -0.8206043321
 H    2.9313258999   -0.8808639865    2.2931405031
 H    2.7492417015    0.2950176267    3.6158467354
 H    1.5954910910   -1.0529597898    3.4459791371
 H    1.6307391826    2.2350477245    0.6088042853
 H    2.6990383655    2.1988010407    2.0128210072
 H    2.9750904966    1.0740160418    0.6754487949