19

 C    0.1274145060    1.1980382704   -0.5581642811
 C   -0.0604745145   -0.1925818564   -0.0211950028
 C   -0.6237896695   -0.5010377889    1.3396236236
 C    0.8109934099   -0.8740544059    0.9970901969
 C    1.0594445598   -2.2930458701    0.4928676492
 C    0.5214897424   -2.2178205809   -0.9681342468
 O   -0.4034507239   -1.1524196287   -1.0108224832
 C    1.6871198993   -2.0167782298   -1.9303827605
 O    1.9514293780   -0.9902183134   -2.4966168460
 H    0.8889837735    1.1953135177   -1.3421490991
 H   -0.8072419773    1.5749330388   -0.9866618320
 H    0.4330314695    1.8806407589    0.2403798130
 H   -0.7730825675    0.3208890469    2.0324481827
 H   -1.3559451444   -1.2989819031    1.4094428846
 H    1.6193725057   -0.3437775744    1.4864455551
 H    2.1208479090   -2.5582013510    0.5275729435
 H    0.5160045140   -3.0468589615    1.0700963241
 H    0.0043970091   -3.1401753058   -1.2626135331
 H    2.3202635510   -2.9289058529   -2.0528217182