18

 C   -0.3776460740    1.5937668537   -0.0156559637
 C    0.0482806602    0.1344787121   -0.0346435324
 O   -1.0851627417   -0.7430927938   -0.0282046641
 C    0.9197443155   -0.3095660894   -1.2204566638
 C    1.8554245016   -1.3644669463   -0.6211693470
 C    3.0237719679   -0.9149705302    0.1762905736
 N    1.7715167926   -1.3292765609    0.8494372461
 C    0.9079556556   -0.2543830365    1.1996586257
 O    0.8146973755    0.2247866318    2.2980367117
 H    0.4850937311    2.2619265917   -0.0989862480
 H   -1.0627237223    1.7960805941   -0.8436014168
 H   -0.8801627446    1.8225100896    0.9293141102
 H   -1.5666265134   -0.5908257908    0.7940240091
 H    0.2876441120   -0.7290865343   -2.0049362721
 H    1.4749219904    0.5327847429   -1.6429533758
 H    1.8648514443   -2.3578883704   -1.0576125866
 H    3.8672382042   -1.5757758895    0.3516066453
 H    3.2693298450    0.1449622663    0.1785987685