19

 C   -0.3259621078    1.5958278426    0.0993472837
 C    0.0721138541    0.1283056285   -0.0291743658
 C    1.1283603473   -0.2160393968   -1.1047664451
 C    1.7024067662   -1.5946421319   -0.7034559788
 C    3.0545219648   -1.9767388043   -1.2987690449
 C    1.6932864987   -1.5511107166    0.8202133144
 O    2.3617322614   -2.1968148759    1.5818975350
 C    0.6620585737   -0.4612446854    1.2467287977
 O    0.4250857244   -0.1500031816    2.3829017434
 H    0.5547379690    2.2242039652    0.2675832835
 H   -0.8275581097    1.9496338585   -0.8059963611
 H   -0.9993524836    1.7332876910    0.9492017248
 H   -0.8287969808   -0.4733251206   -0.2341978693
 H    0.7134356158   -0.2130141913   -2.1157099137
 H    1.9301283051    0.5336840034   -1.0819511503
 H    0.9591166286   -2.3628397082   -0.9736829954
 H    3.8066828441   -1.2125271746   -1.0773485465
 H    3.4040134739   -2.9202979485   -0.8719742015
 H    2.9909582549   -2.0858174434   -2.3852708201