18

 C   -0.0743093745    1.5853027742    0.0724221876
 C   -0.0126455506    0.0644871933    0.0397790305
 O   -1.3275836235   -0.5063581069   -0.0272546528
 C   -1.9835908603   -0.6934223586    1.1370897621
 N   -3.1717010476   -1.1154447301    1.1279104581
 C    0.7302470533   -0.4551526179   -1.2104185569
 O    2.0167275794    0.0903677818   -1.2680161254
 C    0.8045408430   -1.9733021778   -1.2160697857
 O    1.8722848288   -2.5369206074   -1.2708572561
 H    0.9368592361    1.9953141225    0.0315021951
 H   -0.6441314242    1.9572535157   -0.7844602327
 H   -0.5613994911    1.9332224316    0.9882316974
 H    0.5078016746   -0.3129172149    0.9315678811
 H   -1.3777847886   -0.4588839829    2.0233491677
 H   -3.5115061199   -1.2213631080    2.0814379343
 H    0.1311104211   -0.1593084760   -2.0901142448
 H    2.6175353555   -0.6726536135   -1.3042803575
 H   -0.1520853214   -2.5221955950   -1.1707107021