18

 O    0.0039603206    0.0394161500    0.2017644806
 C   -0.0330778590    1.2382439331    0.1322349393
 C   -1.2799005644    2.0945511294   -0.1341185978
 C   -0.7436529664    3.4966755277   -0.1039099782
 C    0.5740257207    3.5612362051    0.1342888775
 C    1.1715460854    2.1819442833    0.2992941966
 C    1.3509008071    4.8122069256    0.2207113323
 C    2.5544185995    4.9316158138    1.0955873471
 N    2.7093435750    4.9243375227   -0.3622546080
 H   -1.7299943438    1.8103300689   -1.0947022383
 H   -2.0435408994    1.8906513475    0.6282534802
 H   -1.3724719099    4.3665332132   -0.2589417921
 H    1.6361144318    2.0120157028    1.2788022916
 H    1.9339643517    1.9294673619   -0.4495337551
 H    0.7564044298    5.7098913293    0.0674203161
 H    2.7669159902    5.8824349756    1.5761599180
 H    2.8675604421    4.0593867835    1.6625410015
 H    3.0288881289    4.0090098667   -0.6706061215