21

 C   -0.1640025831    1.3183847531   -0.1267893221
 C    0.0004782986   -0.1878426414    0.0971192811
 C    0.8690278041   -0.5518783248    1.3306566827
 C    0.1838841843   -0.2451052951    2.6696257471
 C    1.1186763502   -0.3557893056    3.8786377028
 C    1.2361040058   -2.0311817150    1.2232636419
 O    0.7166165115   -2.9031675788    1.8864064429
 C    2.2514228580   -2.3552835782    0.2286009122
 C    3.1036400963   -2.6122074366   -0.5822804114
 H    0.8083349257    1.8043166910   -0.2632559809
 H   -0.7604027337    1.5092326165   -1.0243169523
 H   -0.6674177740    1.8081053487    0.7117542358
 H   -0.9820446868   -0.6624208706    0.2118369674
 H    0.4541162925   -0.6291423958   -0.7978586436
 H    1.8064313619    0.0171534095    1.2506128123
 H   -0.2343327126    0.7659081366    2.6276818679
 H   -0.6580376063   -0.9346026007    2.7914400517
 H    1.5108889995   -1.3709168742    3.9838300065
 H    1.9684150501    0.3305299060    3.7882219124
 H    0.5893935354   -0.1068547940    4.8033775675
 H    3.8541665125   -2.8568386408   -1.2942874518