16

 N   -0.2002393367   -1.0545646504   -0.3981299284
 C   -0.0874146422    0.0671416767   -0.1493983301
 C    0.0778106829    1.5013424329    0.1390225552
 O   -0.6488719762    1.7924546235    1.3315909728
 C   -1.2318208353    3.0777456765    1.3512115272
 C   -0.3075686229    4.2398806588    1.1352724219
 C    1.0082187751    4.2501190732    0.8675422368
 C    1.8987167655    3.1252725255    0.6014767051
 C    1.5356045873    1.8838423494    0.2577652507
 H   -0.3700675269    2.0551683149   -0.7027503270
 H   -2.0720768186    3.1454603013    0.6366000993
 H   -1.6776179297    3.1590939141    2.3510464598
 H   -0.8058032478    5.2005810491    1.2570982742
 H    1.4871224015    5.2255504914    0.8220265236
 H    2.9616538483    3.3457517078    0.6573255878
 H    2.2775064856    1.1158333455    0.0713758811