18

 O   -0.1974912998    1.3372490412    0.1860305800
 N   -0.0497541985   -0.0582996148    0.3167445274
 C   -1.0996086628   -0.6719449275   -0.0508232205
 C   -2.4396832918   -0.1248019675   -0.5054727301
 N   -3.4391461515   -1.1355055191   -0.0948167365
 C   -2.7570812158   -2.4244727346    0.0532107334
 C   -2.5870497399   -3.2626794296   -1.2416743521
 N   -1.2005085732   -2.7571360365   -1.3855491118
 C   -1.2126717833   -2.1695394396   -0.0172261127
 H    0.6416405199    1.6623087185    0.5293182104
 H   -2.6559101670    0.8536496650   -0.0733370317
 H   -2.4380404706   -0.0097663586   -1.5966699933
 H   -3.8225657565   -0.8647454599    0.8025327518
 H   -3.1520496481   -2.9699984572    0.9103367502
 H   -2.6677162122   -4.3425166437   -1.0586708511
 H   -3.2506072411   -2.9925473636   -2.0698873185
 H   -0.4854482961   -3.4560395775   -1.5434781785
 H   -0.5633955116   -2.6433984651    0.7230434238