18

 C    0.0573879225    1.5308846202   -0.0187321842
 C   -0.0484712372    0.0403961060    0.0884007907
 C   -1.3613959702   -0.7749905245    0.0556417397
 C   -0.7048176917   -1.7561446770    1.0525195339
 C   -1.3570738018   -2.4621593084    2.1709187145
 N   -0.7407625948   -3.2196151428    1.0554709009
 C    0.5711173956   -0.9408488389    1.0531635609
 N    1.0811157966   -0.7929415307   -0.3111626485
 H    1.0794721133    1.8544391827    0.1937727141
 H   -0.1982749396    1.8701298215   -1.0298030903
 H   -0.6223017867    2.0271418199    0.6822085875
 H   -2.2180758873   -0.2466665439    0.4845614571
 H   -1.6444708997   -1.1715075737   -0.9271384553
 H   -0.8450886485   -2.5674426945    3.1241248292
 H   -2.4414223808   -2.4221248049    2.2434792066
 H   -1.4693697493   -3.5484665269    0.4257002481
 H    1.2536658079   -0.7920885329    1.8824094664
 H    0.8191403116   -1.5798946412   -0.9032411413