18

 C   -0.0659447078    1.5194690146   -0.0423284588
 C   -0.0771166824    0.0097160033    0.0363431908
 C   -1.1972765994   -0.7016119867   -0.6860559107
 O    1.2242266155   -0.6097709837   -0.1011286537
 C    0.6038357614   -0.6579136007    1.1583475654
 C    1.1857219250   -0.1437169759    2.4760100502
 O    0.7268330406   -1.3750125199    3.1221514292
 C    0.2556993795   -1.9014578539    1.9307612178
 N   -0.2643388714   -3.0097346255    1.6661297535
 H    0.8048698115    1.9364629002    0.4693164443
 H   -0.0335221466    1.8420361484   -1.0883719064
 H   -0.9728418285    1.9362978211    0.4080796963
 H   -1.1420390048   -0.4908917673   -1.7594830919
 H   -1.1363009041   -1.7796413224   -0.5284181949
 H   -2.1687014980   -0.3488376127   -0.3240529643
 H    2.2752263612   -0.0642693847    2.5022477020
 H    0.7170103263    0.7354452917    2.9246698037
 H   -0.3318246579   -3.6057342960    2.4925133675