15

 C   -0.0154058172    1.5214365475    0.0503241752
 C   -0.0060031136    0.0251472835    0.0237716006
 C   -0.0325834439   -0.7961004663   -1.0916562866
 N   -0.0126998824   -2.1319771237   -0.7347012489
 C    0.0274206501   -2.1901350230    0.6369179470
 C    0.0318798202   -0.8931787335    1.1067630900
 O    0.0706978409   -0.8853037829    2.4511223719
 N    0.0924431538   -2.2280069291    2.8816876630
 C    0.0666459666   -2.9852953222    1.8022848968
 H    0.8802294188    1.9224011970    0.5378815413
 H   -0.0539448199    1.9281375011   -0.9639295148
 H   -0.8800558056    1.9099467880    0.5998545932
 H   -0.0649462473   -0.5134940788   -2.1332012814
 H   -0.0261304340   -2.9032415994   -1.3764550271
 H    0.0778436436   -4.0579677081    1.9297913299