21

 C   -0.0091804096    1.5173175399    0.0204930773
 C    0.0021374593   -0.0119638201   -0.0056418720
 C   -1.4111240587   -0.5939633115   -0.0402276197
 C   -1.4562412018   -2.1156844034   -0.0113622856
 O   -2.8266666889   -2.4958259619   -0.0312294392
 O    0.7227335582   -0.4962175552   -1.1357931791
 C    2.0602280520   -0.7117404917   -0.7175351698
 C    1.8831166844   -1.1675921997    0.7316197724
 O    0.7126878748   -0.4804405425    1.1515754646
 H    1.0124658898    1.9049307781   -0.0092374985
 H   -0.5600131337    1.9098632849   -0.8384638515
 H   -0.4831111008    1.8739524172    0.9387158642
 H   -1.9689655264   -0.2045108808    0.8175849570
 H   -1.9149586901   -0.2365994431   -0.9444527058
 H   -0.9160586584   -2.5166082188   -0.8802617749
 H   -0.9545620722   -2.4785799290    0.8976615621
 H   -2.8683784725   -3.4561639631   -0.0184545878
 H    2.5101265448   -1.4647566760   -1.3687699531
 H    2.6546183511    0.2117282958   -0.7787015987
 H    1.7346414296   -2.2551099060    0.7921088908
 H    2.7184594290   -0.8890179630    1.3815487573