17

 C   -0.2193881028    1.1337460074   -0.2759543338
 O   -0.1167688983   -0.2443224081    0.1124945808
 C   -1.2860587667   -0.8859025578    0.2708256370
 O   -2.3707018966   -0.3919453581    0.1217669981
 C   -1.0201747349   -2.3292762213    0.6815323202
 O   -2.2323606100   -3.0522971128    0.8099809269
 C   -2.8037212423   -3.4353285040   -0.3637112382
 C   -4.1429144193   -4.0759202854   -0.1120236649
 O   -2.2832705399   -3.2698836976   -1.4353342901
 H    0.8052975603    1.4948447876   -0.3596053112
 H   -0.7374260339    1.2221341733   -1.2337842892
 H   -0.7677682890    1.7050233760    0.4770526308
 H   -0.3557712198   -2.7917075768   -0.0524002553
 H   -0.5409758709   -2.3464723578    1.6631237077
 H   -4.8513422985   -3.3041974762    0.2046547613
 H   -4.5004226906   -4.5439363832   -1.0283225077
 H   -4.0744112070   -4.8104745352    0.6938139676