21

 C    0.0652277393    1.5100852990   -0.1252451016
 C   -0.0371044177   -0.0201068302   -0.0310087025
 C   -1.5123094832   -0.4539948452   -0.0030825708
 C    0.8394690536   -0.6444755572   -1.1305019492
 C    1.6042093917   -1.6268691422   -0.6165044269
 C    3.0123086931   -1.2256831516   -0.1581462140
 C    2.2559823996   -1.0009362706    1.2064669987
 C    1.1755294074   -1.9722080953    0.8241570473
 C    0.7196789390   -0.6094672277    1.1900901688
 H    1.1088707417    1.8372801498   -0.1606571454
 H   -0.4438132488    1.8898251973   -1.0177961470
 H   -0.4027768661    1.9749356575    0.7499648751
 H   -2.0235282148   -0.1322205036   -0.9164916687
 H   -1.5998333138   -1.5418022936    0.0676404296
 H   -2.0410073921   -0.0127898262    0.8501280361
 H    1.1832400043   -0.0197919882   -1.9520274055
 H    3.7388621122   -2.0354610001   -0.0221897205
 H    3.4796662258   -0.3807857513   -0.6724533206
 H    2.7673750915   -0.9628481839    2.1660316756
 H    0.9209699728   -2.9377197180    1.2405382378
 H    0.3388039245   -0.4083862789    2.1917268639