18

 C   -0.4820121694    0.9711895899   -0.2449408130
 O    0.3661542577   -0.1270279364    0.0695379218
 C    0.9686779039   -0.6781667976   -1.0624995420
 C    1.6479574205   -1.9952050170   -0.8913158937
 C    0.3007362796   -1.9426491365   -1.5932143073
 O   -0.8327121833   -2.3908643261   -0.9068222416
 C    0.2680519015   -2.1337318873   -3.0789455222
 N   -0.8946147483   -2.6504716414   -3.5504524384
 O    1.2168356356   -1.8191374824   -3.7797363861
 H    0.0883550739    1.7887196527   -0.7056419126
 H   -1.2891690804    0.6770794423   -0.9291383183
 H   -0.9116786138    1.3204339683    0.6961546496
 H    1.3685567085    0.0316106151   -1.7833529807
 H    2.5198877624   -2.1882116008   -1.5043178558
 H    1.6381456118   -2.4322044781    0.1011266289
 H   -0.9453171843   -1.7930547126   -0.1536506243
 H   -1.6244049208   -2.9126423959   -2.9105148450
 H   -0.9845159152   -2.8255980363   -4.5365289894