16

 C   -0.2591100156    1.5559075441    0.0434444971
 C   -0.0368381639    0.0499054915   -0.0141588931
 C    0.7650478992   -0.5019419575   -1.2686589021
 N    1.7573012716   -0.9800335360   -0.2835864088
 N    2.8935629941   -1.6239136315   -0.0408541529
 N    2.9997740294   -1.5881743936    1.2816942253
 C    1.9417261799   -0.9386469114    1.8387522014
 O    1.8209394387   -0.7740988866    3.1697508538
 C    1.1146752639   -0.5332164101    0.8108275144
 H    0.6767510681    2.0992715525   -0.1191541995
 H   -0.9803387027    1.8716321843   -0.7173747523
 H   -0.6520108495    1.8477055150    1.0218457174
 H   -0.9805963550   -0.4843835347    0.1283816324
 H    0.2883910756   -1.3064786298   -1.8317213452
 H    1.1584681103    0.2603267779   -1.9446498187
 H    2.5949108356   -1.1930695240    3.5680386707