18

 C    0.6839999693    1.2939985218    0.2558032873
 C   -0.0116823141   -0.0165367508   -0.1040284328
 C    0.5794403103   -0.7509981836   -1.3227476156
 C    1.5581049175   -1.7682479308   -0.7107110567
 N    2.9420300433   -1.2760268599   -0.5992241937
 C    3.1985726769   -1.2508933504    0.6435195399
 O    2.2590044148   -1.6298431919    1.5389033712
 C    1.0636779806   -1.9105858706    0.7552768333
 O    0.0657777501   -0.9753907206    0.9768549469
 H    1.7690630248    1.1749978725    0.3051378242
 H    0.4627149273    2.0527118003   -0.5024707445
 H    0.3247095359    1.6584264305    1.2219940471
 H   -1.0811691152    0.1735429126   -0.2379001964
 H   -0.2098275571   -1.2766165978   -1.8672720594
 H    1.0889386825   -0.0810226093   -2.0171347829
 H    1.5608632835   -2.7112394052   -1.2625846525
 H    4.1417981092   -0.9414909811    1.0814597672
 H    0.7106822605   -2.8882840259    1.0875374973