19

 C    0.0929369652    1.4530118856   -0.1603183905
 O    1.2150823232    0.5621126603   -0.2225505195
 C   -0.0638445872    0.0015065955   -0.0341813976
 C   -0.5444069586   -0.8046377410    1.1744453584
 C   -1.5645239546   -1.4923860434    0.2152266452
 C   -0.7545426996   -0.9729897629   -1.0012063039
 C   -1.3101398619   -0.6134701893   -2.3889852435
 C   -0.2637841313   -1.6137109463   -2.9140784685
 O    0.1386376378   -1.9565688161   -1.5715530347
 H    0.0366953347    2.0754990899    0.7323133679
 H   -0.1542849949    1.9573099428   -1.0936915580
 H    0.2242594451   -1.4991378697    1.5227245292
 H   -0.9401594066   -0.2479755129    2.0264249009
 H   -1.6436486617   -2.5790209535    0.2712770665
 H   -2.5618709994   -1.0469792521    0.2664065027
 H   -2.3507245753   -0.9058494912   -2.5440259552
 H   -1.1806194729    0.4256325859   -2.6975040324
 H   -0.6513863454   -2.4829138832   -3.4576532348
 H    0.5614126733   -1.1723586785   -3.4853236022