17

 C    0.1529796911    1.5296077517   -0.1073140756
 C    0.0896954606    0.0253012440   -0.0253397848
 O    0.8545592823   -0.5691588323   -1.0726051248
 C    1.2909794889   -1.8096646949   -0.5913609745
 C    2.5235010589   -1.8061036291    0.2524534848
 C    1.1586213613   -1.7268140073    0.9230264988
 O    0.6742607370   -0.4387096514    1.1926788734
 C    0.6227239122   -2.8437242929    1.7293316186
 O    1.0243773711   -3.9806253056    1.6524449201
 H    1.1920782555    1.8598716377   -0.0419216573
 H   -0.2740069457    1.8674593855   -1.0546674971
 H   -0.4181064706    1.9698443975    0.7137268393
 H   -0.9481358826   -0.3461546265   -0.0862126330
 H    0.9780130016   -2.6845326094   -1.1511812642
 H    3.0418738567   -2.7510966835    0.3765110241
 H    3.1183988383   -0.9012996693    0.2746356687
 H   -0.1994058367   -2.5449441943    2.4147404636