20

 C    0.0203950571    1.4035552437   -0.1427142474
 C   -0.0815705639   -0.0477108469    0.3414139225
 C   -1.4638604509   -0.6317219273    0.1334015084
 C   -1.8943716235   -1.1881749717   -1.1983425102
 O   -0.9165710092   -1.2051979020   -2.2074774948
 C   -1.7018601760   -2.1283286127   -0.0296509816
 N   -0.5981812724   -3.0327824393   -0.1160407916
 C   -0.3844415299   -4.0296885480    0.7816783556
 O   -1.0691228258   -4.2498793368    1.7583979344
 H    1.0180967035    1.8118035331    0.0467535774
 H   -0.1743913845    1.4668022842   -1.2174657063
 H   -0.7045576224    2.0460536168    0.3692083210
 H    0.6630938471   -0.6570450986   -0.1775490442
 H    0.1641497086   -0.1054255277    1.4088191716
 H   -2.2512762362   -0.1118926661    0.6746491456
 H   -2.9045282617   -0.9860027159   -1.5493259214
 H   -1.2099938965   -1.8154711585   -2.8926159611
 H   -2.5606107052   -2.5708562808    0.4606696942
 H    0.0114408636   -2.9397341763   -0.9143201015
 H    0.5006567881   -4.6391313992    0.5092105195