18

 C   -0.0150725109    1.5248200470    0.2257579456
 O    0.5347403248    0.2694861984   -0.1069723491
 C    0.7776828514   -0.5446128717    1.0079059056
 C   -0.4420622919   -1.2245054824    1.7244548814
 C    0.1862152863   -2.6072906737    1.4223869772
 O   -0.3329528354   -3.1968561742    0.2173834021
 C    0.7221730089   -2.6007559185   -0.5801147461
 C    1.3573986241   -1.9308535073    0.6509640797
 H    0.6552522535    2.0976110519    0.8858864287
 H   -0.1512874934    2.0779144628   -0.7064272451
 H   -0.9900376125    1.4273942259    0.7257111511
 H    1.4167766465   -0.0137905822    1.7306033334
 H   -0.5421403519   -0.9739683155    2.7835447106
 H   -1.4021153358   -1.0897099569    1.2211214141
 H    0.2890663609   -3.3293047888    2.2359402403
 H    1.3452323603   -3.3722404704   -1.0478100017
 H    0.3383859929   -1.9223327807   -1.3481670969
 H    2.4176152922   -2.1020581834    0.8302052091