13

 C   -0.0107460300    1.5460214776    0.0117833112
 C   -0.0016079941    0.0004630639    0.0189605541
 N    0.6918790910   -0.4588886439    1.2325941918
 C   -1.3749239673   -0.5199163381    0.0257360195
 C   -2.5004642207   -0.9357150126    0.0334645264
 C    0.6774164326   -0.4797508764   -1.2189033485
 N    1.2609399932   -0.8544161246   -2.1439772987
 H    1.0160944121    1.9222786791   -0.0034960080
 H   -0.5366201638    1.9244193827   -0.8663424663
 H   -0.5087816134    1.8927035699    0.9185662736
 H    0.6827188343   -1.4741123843    1.2709578555
 H    1.6662919966   -0.1710737156    1.1896404714
 H   -3.4956030303   -1.3079487075    0.0383834080