17

 N   -0.1158337116    1.1916556579   -0.7290579744
 C   -0.0644234344    0.0882014299   -0.1397614202
 O    0.9560587734   -0.4972504963    0.5909171936
 C    0.2057251922   -1.7618180482    0.6940096449
 C   -0.2002513443   -2.1811324720    2.1069766844
 N   -1.5364199644   -1.6323131541    2.4069391486
 C   -1.6103353308   -0.1664890865    2.3998752950
 C   -2.0231128406   -0.9307197022    1.1938816397
 C   -1.0222101969   -1.0725612911    0.0484552591
 H    0.7572540603    1.7119072469   -0.6252045964
 H    0.7253600252   -2.5358879841    0.1255091010
 H   -0.2721555616   -3.2736329108    2.1473817352
 H    0.5351260377   -1.8647478487    2.8531785320
 H   -2.3684494295    0.2511239697    3.0565705872
 H   -0.6856221507    0.4026687330    2.3580385665
 H   -3.0756386634   -1.0456654965    0.9568694780
 H   -1.4599431806   -1.4926762870   -0.8556098142