16

 N   -0.1001920987    1.2344720309   -0.2578199244
 C   -0.0756665198    0.0023093481   -0.0286608744
 O    0.9684149259   -0.8247085234    0.3660722899
 C    0.0855554729   -1.9878433098    0.4456543344
 C   -1.0692554246   -1.1090041201   -0.0253537881
 C   -2.5094399429   -1.1642215297    0.4276532794
 C   -3.2474751350    0.0245882222   -0.1918224289
 O   -2.8100568182   -0.3597084316   -1.5303122910
 C   -2.1504548270   -1.4935601838   -0.9994737217
 H    0.8209091091    1.6565550688   -0.1311097073
 H    0.4133275606   -2.7787819805   -0.2348507289
 H    0.0285325536   -2.3642253787    1.4711210233
 H   -2.8400124039   -1.7817628846    1.2524502359
 H   -4.3363044557   -0.0514098859   -0.1144933783
 H   -2.9015353918    1.0249674628    0.0798746161
 H   -2.1360544245   -2.4105404347   -1.5790808960