23

 C    0.1199495772    1.2058237982   -0.3562353651
 O    0.0209628353   -0.0787544424    0.2142875987
 C   -1.2857846736   -0.5925506495    0.2120348740
 C   -1.8963312819   -1.1125025016   -1.1270277471
 C   -2.2595367579   -2.4538400483   -0.4264168076
 C   -1.2465167306   -3.5901553156   -0.6809696425
 C   -0.3062283397   -2.9857853843    0.4040112562
 C   -1.4312704593   -1.9934692664    0.8404771779
 C   -1.9127824894   -2.0901070503    2.2712915201
 H    1.1664398968    1.5137122916   -0.2900951336
 H   -0.1840320737    1.2129998432   -1.4138548388
 H   -0.5010881842    1.9384450126    0.1836595975
 H   -1.9689752862    0.1235733547    0.6988474526
 H   -2.7382446396   -0.5340229987   -1.5137472299
 H   -1.1547912959   -1.2251844278   -1.9242165145
 H   -3.3215003723   -2.7010770371   -0.3826320588
 H   -1.6367021755   -4.5698402661   -0.3905592426
 H   -0.8502995372   -3.6685571054   -1.6982889062
 H   -0.0001234625   -3.6832793908    1.1874907918
 H    0.5853304969   -2.4860872649    0.0214371837
 H   -1.1429847671   -1.7299703241    2.9649846687
 H   -2.8158835380   -1.4906471509    2.4344796877
 H   -2.1453081414   -3.1254533160    2.5453462578