18

 C   -0.8811885562    1.5006269311   -0.0417943116
 C   -0.1775532827    0.1462890729   -0.0166274923
 C   -1.1440667508   -1.0123274545   -0.2887774733
 N    1.0817938954    0.1158569465   -0.8316017764
 C    1.9183208597   -0.3937113905    0.2956018716
 C    3.1616396780    0.3027900696    0.5548432294
 C    4.1860272333    0.8818276287    0.7991118215
 C    0.6969892676   -0.1106093051    1.2252631543
 O    0.5238183053   -0.0841626632    2.4023814120
 H   -0.1648939931    2.3091997208    0.1202569491
 H   -1.3618420795    1.6603204025   -1.0128239353
 H   -1.6490024616    1.5469736388    0.7367073138
 H   -1.5808826073   -0.9064741926   -1.2882662359
 H   -0.6400311779   -1.9830289978   -0.2363557819
 H   -1.9610986378   -1.0152766794    0.4387169993
 H    1.0459855144   -0.5217119184   -1.6197218917
 H    2.0978911708   -1.4799386617    0.2660058800
 H    5.0902960824    1.3974288922    1.0093344974