22

 C    0.0764337780    1.5636714721   -0.1039102575
 C    0.1634316854    0.0396265490   -0.0085096803
 C    0.6409503275   -0.4759343836    1.3704557266
 C   -0.2807369550   -0.0484645115    2.4334790817
 N   -1.0173890217    0.2791324582    3.2622347075
 C    0.7952143644   -1.9924283432    1.3857876002
 C    2.0767036280   -2.6330692723    0.9063318160
 C    1.6884289811   -2.7210150147    2.3631125081
 C    2.4907973637   -2.0148774803    3.4353605814
 H    1.0518481124    2.0293513608    0.0754704356
 H   -0.2605175632    1.8700761842   -1.0983674157
 H   -0.6276976620    1.9679522069    0.6295525635
 H   -0.8122290060   -0.4080851776   -0.2301283865
 H    0.8645148302   -0.3494169364   -0.7548815436
 H    1.6105926869   -0.0115863923    1.5876966542
 H   -0.1251402959   -2.5067781580    1.1221432556
 H    2.0150508758   -3.5173624630    0.2818438352
 H    2.9012896062   -1.9718031745    0.6542910846
 H    1.2978679812   -3.6842918255    2.6807129067
 H    2.9395299099   -1.0855362386    3.0717153401
 H    1.8683014687   -1.7677185091    4.3015431377
 H    3.3104008945   -2.6533249507    3.7817353890