16

 N    0.0768395480    0.8795674014    0.8782131329
 C   -0.0283401323    0.0353789762   -0.1807552074
 O    0.8049068790   -0.0911175835   -1.0592013576
 C   -1.2889002006   -0.7575381380   -0.1867549728
 O   -2.2525434177   -0.6124564833    0.8733901904
 C   -2.4383630247   -2.0646719179    0.9186009739
 C   -1.5378121521   -2.2688763909   -0.2918357016
 C   -1.9755938071   -1.3263597954   -1.3888771652
 O   -3.3065475812   -1.0323885968   -1.6556291596
 H    0.8998772365    1.4510773519    0.9684612801
 H   -0.6378402329    0.8981223413    1.5859767127
 H   -2.0330168742   -2.4660284946    1.8515635451
 H   -3.4916448839   -2.3420049091    0.8101120813
 H   -0.8209679014   -3.0658770741   -0.4335912266
 H   -1.3558614614   -1.3604150874   -2.2788116835
 H   -3.6271445138   -0.4992977499   -0.9158268220