19

 C    0.0492500261    1.5013899902    0.0183777570
 C    0.0349523034    0.0089282782    0.0004072424
 C    0.0196151616   -0.8135166111   -1.0574304978
 C   -0.0021073367   -2.2937610385   -0.6824810785
 C    0.3353400515   -2.1813196553    0.7772633944
 C    1.1822777176   -2.7299472345    1.6373665275
 C    1.4027276372   -1.7620335029    2.7818559318
 O    0.8314856414   -0.5226897741    2.3439164101
 C   -0.0636033002   -0.8139575234    1.2738313493
 H    0.8937714531    1.8672426525    0.6137366726
 H    0.1244028524    1.9206906362   -0.9886707251
 H   -0.8585105064    1.8988543056    0.4906593082
 H    0.0021929705   -0.4847977059   -2.0919298502
 H   -0.9941806232   -2.7338166156   -0.8626732591
 H    0.7172054130   -2.8972899735   -1.2468045199
 H    1.7279875240   -3.6594349308    1.5346905777
 H    0.9287473451   -2.0907771595    3.7226720232
 H    2.4692503616   -1.6054903790    2.9912181874
 H   -1.1010568220   -0.7685246287    1.6592142191