17

 N    0.0513642003    1.3627031773   -0.1325708290
 C   -0.0234168178   -0.0036675290   -0.0387335833
 C   -1.0944312113   -0.8245260802   -0.0329580198
 C   -0.6264460752   -2.2068333605    0.0011192803
 N   -1.2111978122   -3.3331539995    0.0204353359
 O    0.7558861804   -2.1846190893    0.0226890343
 C    1.1943920770   -0.8516267631   -0.0174978206
 C    2.4489210029   -0.5460711793   -0.7929536348
 C    2.4647971385   -0.5123746212    0.7186569041
 H    0.8691288579    1.8023973574    0.2619341741
 H   -0.7979435767    1.8708860501    0.0616384884
 H   -2.1383178337   -0.5473888141   -0.0489916110
 H   -2.2199153353   -3.1957627147    0.0014819673
 H    2.9205725733   -1.3903058263   -1.2817422441
 H    2.4901289694    0.3888914729   -1.3413479340
 H    2.5380982596    0.4435973393    1.2285204243
 H    2.9403790929   -1.3369365397    1.2365734780