19

 N   -0.0184597974   -1.1704885170    0.2284831212
 C   -0.0133403975   -0.0253405119    0.0782860227
 C   -0.0133094185    1.4309420978   -0.0828972538
 N    1.3305575573    1.9756806120    0.0777227904
 C    1.3647716558    3.4453481663    0.0449181870
 C    2.7460541156    3.9726004614    0.5028619537
 C    3.0571490090    5.1890516126   -0.4036391985
 C    2.1410808918    4.9698433191   -1.5832278451
 C    1.2328031702    4.0262271477   -1.3485444661
 H   -0.3788032763    1.6605612519   -1.0907290634
 H   -0.7566905161    1.8512375520    0.6207388174
 H    1.7068456442    1.6572164260    0.9656984575
 H    0.5614202693    3.8619481797    0.6864611064
 H    2.7737192112    4.2126711764    1.5687485403
 H    3.4785563396    3.1806377590    0.3156319021
 H    2.8256109152    6.1395917110    0.0964376783
 H    4.1139982095    5.2423307578   -0.6869610281
 H    2.2141384723    5.5520316396   -2.4954721989
 H    0.4514445948    3.7277123184   -2.0384260733