14

 C   -0.0203777271    1.4086206087    0.0192739089
 O    0.0139652188   -0.0213029304   -0.0210229745
 C    0.6142612182   -0.5923330855   -1.0709633224
 N    1.1486476265    0.1633049977   -2.0232381467
 C    1.7286418767   -0.4906750322   -3.0364417175
 N    1.8307674664   -1.8032823529   -3.1980236657
 C    1.2806231613   -2.5428873560   -2.2182148129
 C    0.6529345832   -1.9939388041   -1.1196990082
 H    0.9905093376    1.8241111951    0.0314195492
 H   -0.5534924275    1.8117582674   -0.8455523713
 H   -0.5461477988    1.6576897480    0.9414830939
 H    2.1651429529    0.1325464611   -3.8140145946
 H    1.3529220608   -3.6220223173   -2.3306285450
 H    0.2115233010   -2.5924775097   -0.3335131032