21

 C   -0.2029810081    1.5992956972   -0.2858105753
 C   -0.0160029665    0.1214487853   -0.0080461309
 O    0.9578883336   -0.5349136737   -0.9359244457
 C    1.7831258430   -0.7625728257    0.2060829480
 C    2.5049129973   -1.7584022751    1.1500291473
 C    2.1068353014   -0.4334029088    1.9935248780
 C    2.3783205728   -0.2160513481    3.4586853845
 C    2.6581819052    0.3786750901    0.8059366220
 C    0.7102649389   -0.5398779181    1.2409121098
 H    0.7261647359    2.1676362415   -0.2457358433
 H   -0.6324895381    1.7305224676   -1.2845714579
 H   -0.9034980351    2.0222909045    0.4422398838
 H   -0.9788381102   -0.3863248293   -0.1222541412
 H    1.9641845124   -2.6722513310    1.4054880772
 H    3.5787589117   -1.9329037610    1.0260391475
 H    3.4498420189   -0.2974509386    3.6732448962
 H    2.0471165624    0.7807513931    3.7679735679
 H    1.8524560456   -0.9534265348    4.0738743049
 H    3.7346097918    0.3168347843    0.6257890715
 H    2.2976361373    1.4009969747    0.7108501526
 H    0.1484432097   -1.4317467440    1.5294930932