15

 O    1.3642182102    1.4243559517   -0.1380009516
 C    0.3870804944    0.3977804764    0.0032404039
 C    0.3095003582   -0.4579287057   -1.1910591854
 C    0.2690017533   -1.1409969332   -2.1781744938
 C    0.5976689295   -0.4095583228    1.2137730569
 C    0.8031270995   -1.0542481460    2.2078292107
 C    1.0400663288   -1.8367358266    3.4223372946
 C    2.2234988057   -2.6950385405    3.3448740611
 C    3.1927122647   -3.4011808710    3.2935887386
 H    2.2225814146    0.9916941443   -0.2169979952
 H   -0.5617622515    0.9406382029    0.1033242028
 H    0.2272139738   -1.7472790937   -3.0493420937
 H    1.1375212648   -1.1582832308    4.2810102528
 H    0.1555925521   -2.4539761108    3.6321887515
 H    4.0498822320   -4.0259862443    3.2441291168