18

 C   -0.1481263146    1.5365665474   -0.0259378018
 C    0.0667283910    0.0280983017    0.0119236977
 N    0.8563980059   -0.4831786622   -1.1133693299
 C    1.4433949214   -1.7767539880   -0.7005166072
 C    1.8925930868   -1.4761738787    0.7447609641
 C    0.8810873251   -0.4352115782    1.2267195193
 O    0.7435302356   -0.0401176335    2.3538075642
 C    0.4975966971   -2.8999140153   -0.7653155961
 C   -0.3045420749   -3.7932145208   -0.8411100127
 H    0.8055973567    2.0529400601   -0.1653102431
 H   -0.8159711559    1.8204332562   -0.8447505469
 H   -0.5936229089    1.8644837540    0.9171641951
 H   -0.9132859523   -0.4765665163    0.1074892273
 H    0.3014617920   -0.5869170723   -1.9552814263
 H    2.2993849554   -2.0001913110   -1.3457301832
 H    1.9225010657   -2.3460493724    1.4010007037
 H    2.8834427104   -1.0090718186    0.7428295487
 H   -1.0042062864   -4.5897694820   -0.9064643328