15

 N    0.1592085342    1.4407247097   -0.1670210840
 C   -0.0048638827    0.0040587789   -0.0050242806
 C    0.5968692286   -0.4931231754    1.3350786687
 O    1.6706066174   -0.2416403038    1.8175489528
 N   -0.3734427256   -1.3156993442    1.8954805964
 C   -1.5477238586   -1.3186082681    1.1460400948
 C   -1.4247793874   -0.5753897126    0.0288799000
 C   -2.3800561923   -0.3427796190   -0.9743596510
 C   -3.1497586045   -0.0922261951   -1.8695935739
 H   -0.2413692539    1.7211445806   -1.0577789586
 H   -0.3671334572    1.9327581658    0.5498556242
 H    0.5658168712   -0.4862574987   -0.8056229663
 H   -0.2618409496   -1.7352261335    2.8038946866
 H   -2.4041909188   -1.8804794069    1.4903705456
 H   -3.8413591207    0.1090593123   -2.6495154047