21

 C    0.0644340395    1.6293663691    0.8392949600
 C    0.1081828293    0.1456623616    0.4987434920
 C    0.7393613510   -0.3962311590   -0.8270999561
 C    2.1711135643    0.1686269024   -0.7792340789
 C    2.4606368116   -0.1391689062    0.7110714990
 O    3.4564986785    0.0943865109    1.3417897340
 C    1.1682389764   -0.8091438225    1.1554059342
 C    0.9368637259   -1.7579155517   -0.0835278889
 C   -0.2318908313   -2.7332733378   -0.0157912653
 H    1.0419848093    2.1155025677    0.7755514217
 H   -0.6177677234    2.1596710176    0.1656323542
 H   -0.3035339132    1.7747921863    1.8606812170
 H   -0.8891781702   -0.2759699926    0.6337806585
 H    0.2046887332   -0.3379337877   -1.7762367330
 H    2.8720167642   -0.3608318719   -1.4322599811
 H    2.2545474843    1.2379008028   -0.9914703818
 H    1.1145566129   -1.1472270631    2.1891852111
 H    1.8315008675   -2.3093123267   -0.3961873335
 H   -1.1689273500   -2.2713711150    0.3049160773
 H   -0.4049773910   -3.1812325478   -1.0006165235
 H   -0.0098024088   -3.5479620663    0.6814434633