23

 C   -0.1654457344    1.5342091842   -0.0301497980
 C    0.0583797966    0.0235167825   -0.0436501054
 C    0.9842209839   -0.5078820160   -1.1599974051
 C    1.1978517171   -1.9767519434   -0.7005638463
 C    1.9854763149   -1.2997648647    0.4631796688
 C    2.9813776733   -2.0416003290    1.3236411480
 C    2.4081421227   -0.2347983086   -0.5985431007
 C    0.8509713119   -0.5540071890    1.1930804518
 O    1.4240859314    0.4208124902    2.0518814171
 H    0.7728038432    2.0879213685    0.0518853342
 H   -0.6708388100    1.8521751069   -0.9481430905
 H   -0.8027229261    1.8384728383    0.8088737646
 H   -0.9185604335   -0.4702561663   -0.1150350863
 H    0.7129978050   -0.2596112269   -2.1874515450
 H    0.3137153261   -2.5747812956   -0.4521684226
 H    1.8581194245   -2.5423006278   -1.3630603642
 H    3.7678538049   -2.5018818325    0.7165531624
 H    3.4531187508   -1.3615392096    2.0393631252
 H    2.4909421862   -2.8387904942    1.8954258163
 H    3.1934928200   -0.6100874015   -1.2596745650
 H    2.6589887029    0.7669283702   -0.2446575811
 H    0.2337366577   -1.2510835331    1.7792170390
 H    0.7132307208    0.8715476173    2.5167565428