21

 C   -0.1929895175    1.5154607482   -0.0962174283
 C    0.1588920565    0.0257209778    0.0051856657
 C    0.7723155507   -0.5179029764   -1.2496789668
 O    2.0085100660    0.0825034232   -1.6235145912
 C    2.2826063955   -0.6541559259   -2.8252427918
 C    2.1786479944   -2.1224075846   -2.3546776480
 C    0.8108367391   -1.9608816572   -1.7031117288
 C    0.0514179195   -0.9081431610   -2.5239831392
 C    0.9849054992   -0.4668288049   -3.6438416412
 H    0.6966709550    2.1038311706   -0.3352088647
 H   -0.9321512810    1.6907571090   -0.8847546229
 H   -0.6081245997    1.8855853729    0.8460030672
 H    0.8557903072   -0.1354475234    0.8372766860
 H   -0.7387429647   -0.5610724913    0.2320969615
 H    3.2206056933   -0.3175622355   -3.2620193782
 H    2.1933751310   -2.8343141142   -3.1850909157
 H    2.9650207543   -2.3800841041   -1.6396780967
 H    0.3063670602   -2.7532960187   -1.1662776575
 H   -1.0272799373   -0.9052717391   -2.6076720237
 H    0.8341612120    0.5752533322   -3.9393687766
 H    0.9490259162   -1.1059560876   -4.5308913093