18

 C   -0.0187309351    1.5373644151    0.0447442066
 C   -0.0092523805    0.0400129391   -0.0046177098
 C    1.0510690745   -0.8706615126   -0.5413748780
 O    0.5764252831   -1.7437517447   -1.5385097261
 C   -0.7533338777   -2.0684200622   -1.1546322232
 C   -0.7220769585   -2.9981868336    0.0742488045
 N   -0.6987333256   -1.7956408535    0.9831013193
 C    0.5866006534   -1.0537936399    0.8965660961
 C   -1.1947036368   -0.9228652614   -0.1550030319
 H    0.9804453408    1.9274051565    0.2641816782
 H   -0.3336952577    1.9608687289   -0.9162715914
 H   -0.6989332401    1.9133013118    0.8166784606
 H    2.0581206542   -0.5180683193   -0.7296966207
 H   -1.3289105044   -2.3297047931   -2.0450846419
 H   -1.6513769705   -3.5531288359    0.2364499945
 H    0.1355356593   -3.6716358722    0.1476965015
 H    1.2523727142   -0.9921404807    1.7521185792
 H   -2.2292148526   -0.5818465720   -0.1250792073