17

 O    0.5940749466    0.7095603010   -0.9138721471
 C    0.1992748915   -0.2575375438    0.0118681180
 C    0.0421334057    0.1047010037    1.5179612722
 C   -1.2214466114   -0.8055806657    1.5553429642
 O   -2.3490635509   -0.4256629822    2.2835329192
 C   -1.2902488723   -0.7151951858    0.0018349963
 O   -2.1114976242    0.4102211835   -0.3395051319
 C   -2.9661619483    0.3059607459   -1.3848273045
 O   -3.6564530770    1.2122382950   -1.7339445018
 H   -0.0511091300    1.4258342393   -0.8778291344
 H    0.8617759328   -1.1159173675   -0.1285203398
 H    0.8663898646   -0.1235914392    2.1952497099
 H   -0.2382571291    1.1565905518    1.6357875687
 H   -0.9715755672   -1.8238442622    1.8657953112
 H   -2.6886716226    0.3843895232    1.8840926861
 H   -1.5873702144   -1.5908022109   -0.5825118320
 H   -2.9433787338   -0.6946750563   -1.8533626643