21

 C   -0.5743649285    0.2648199417    1.5074222301
 O   -0.5756877142   -0.4163060191    0.2510362683
 C   -1.7032006730   -0.3591868042   -0.5402777719
 C   -2.0609396135   -1.7412126556   -1.0350768459
 C   -2.5714717404   -2.6407113825    0.0759123615
 C   -2.2321147902   -4.0846711491    0.0933787885
 N   -1.6459095363   -3.1704671159    1.0896332613
 N   -2.3746383589    0.6535294617   -0.8831741562
 C   -1.9715048825    2.0056613350   -0.5385999379
 H    0.0863803514   -0.3040235418    2.1652356570
 H   -0.1988228008    1.2882869123    1.4202279219
 H   -1.5775392395    0.2829253796    1.9435400750
 H   -2.8134500964   -1.6380960255   -1.8200881096
 H   -1.1610414277   -2.1894073300   -1.4760765142
 H   -3.5309936636   -2.3353080039    0.4897126887
 H   -2.9364304294   -4.8088111815    0.4928919661
 H   -1.5991936388   -4.4641547602   -0.7053937557
 H   -0.6947718818   -2.9283052900    0.8221910396
 H   -2.3902690070    2.3175447434    0.4260944600
 H   -0.8831419006    2.1402664033   -0.5002656061
 H   -2.3725888583    2.6866506922   -1.2949997505