19

 C   -0.1121534461    1.5111148396   -0.0233559149
 C    0.0439536626    0.0219869327    0.0187417219
 C    0.7240097099   -0.8779852690   -0.9456763161
 C    1.6899334677   -1.8447243861   -0.2592404169
 C    1.4229755508   -1.6276117927    1.2549492880
 C    0.0734277417   -0.8905224227    1.2872221862
 C   -1.0432729202   -1.7059931536    0.5899424738
 O   -1.9195721753   -2.4121330406    1.0123252723
 C   -0.7891997237   -1.0692214483   -0.7304328767
 H    0.7619803496    2.0107989681    0.4102754671
 H   -0.2193495431    1.8657389624   -1.0533258800
 H   -0.9941290693    1.8379122544    0.5378391531
 H    0.9626568267   -0.4972909934   -1.9341354011
 H    1.5032784955   -2.8791219635   -0.5644502157
 H    2.7256431537   -1.6114528937   -0.5241284064
 H    1.3913123899   -2.5642036025    1.8182588871
 H    2.2020529255   -1.0002233108    1.7016687694
 H   -0.2102609986   -0.4607437617    2.2484390550
 H   -1.4873281071   -0.9680497584   -1.5536109562