21

 C    0.0605947004    1.3131214838   -0.4732173786
 C    0.1096241380   -0.0130867564    0.2825422982
 O    0.5121747874    0.1548301212    1.6399708913
 C   -1.2418120214   -0.7100200395    0.2592625094
 O   -1.7429364522   -1.2222400689   -0.9902513908
 C   -1.4583246744   -2.1496960447    0.0752806083
 C   -0.3644918372   -3.1733434365   -0.2321611961
 C   -0.9789153515   -4.5189077117   -0.6321620082
 O    0.5067403954   -2.6957608222   -1.2441577615
 H    1.0343299492    1.8084140829   -0.4325638255
 H   -0.2109070815    1.1509986101   -1.5205223768
 H   -0.6883165632    1.9862062855   -0.0351736781
 H    0.8597599898   -0.6675829505   -0.1644573346
 H   -0.0278828019    0.8543698495    2.0249075859
 H   -2.0065097487   -0.1718580510    0.8288935299
 H   -2.3523558354   -2.5770554387    0.5321838364
 H    0.2474865745   -3.3107374234    0.6686439779
 H   -1.6299630430   -4.4008029091   -1.5053588897
 H   -0.1853573537   -5.2250048778   -0.8880403862
 H   -1.5728784944   -4.9428315239    0.1849566610
 H   -0.0471160062   -2.1648344887   -1.8339513521