16

 C   -0.0263467264    1.4568641058    0.0394936834
 C    1.4145428535    1.9818797560    0.0189336626
 O    2.1451727927    1.5485500148    1.1712513238
 C    1.9904961838    0.2163401460    1.3949261194
 C    2.7616553430   -0.6186248116    2.1408168052
 O    2.2373478176   -1.8775940301    2.0920956173
 C    1.1166097522   -1.8343263619    1.3187712532
 C    0.9149077205   -0.5692057017    0.8556369767
 N   -0.1038733577   -0.0076026901    0.0616135457
 H   -0.5253342501    1.8498923984    0.9341928948
 H   -0.5695529198    1.8311423015   -0.8324316520
 H    1.9289190486    1.6402883151   -0.8916250207
 H    1.4352187228    3.0741443210    0.0455040456
 H    3.6512264216   -0.4846555812    2.7303402101
 H    0.5948116672   -2.7661095991    1.1824588576
 H   -0.1415258395   -0.4040554329   -0.8685700826