16

 C   -0.0088501734    1.6426966714    0.0273922834
 C   -0.0136664208    0.1269794662    0.0078517803
 C    1.2006867963   -0.6235675170   -0.6095513733
 O    2.0328645514   -0.1972222714    0.5352149273
 C    0.7515025791   -0.6444525201    1.1207650815
 C    0.8330592006   -1.9084447513    0.2030932119
 C   -0.3332857052   -2.7037999233   -0.1092915068
 C   -1.2927390098   -3.3822188328   -0.3665073254
 H    0.9811478354    2.0216175519    0.2890255649
 H   -0.2895185543    2.0435153042   -0.9524866865
 H   -0.7330862675    2.0229041750    0.7557576780
 H   -0.9891870345   -0.2927719000   -0.2504567579
 H    1.6378560811   -0.5577532493   -1.6065245928
 H    0.6482123508   -0.6037668555    2.2056982229
 H    1.7133915978   -2.5152211555    0.4243018679
 H   -2.1409367769   -3.9794642424   -0.5937299452