19

 C   -0.0792327589    1.5124284121   -0.1880549766
 C    0.1314696169    0.0176686615   -0.0810069353
 O    1.2902803876   -0.4755232342   -0.8249892727
 C    1.7498610335   -1.1767768828    0.3304212430
 C    2.0970356315   -0.2191385407    1.4295026233
 C    0.6534401573   -0.6271551047    1.2103856784
 C   -0.2179563870   -1.2662503773    2.2650568797
 C   -0.9183145216   -0.2830307247    3.0908811788
 C   -1.4921578651    0.5432574650    3.7486299686
 H    0.7846663339    2.0679588001    0.1854615322
 H   -0.2449954692    1.7975042810   -1.2318496586
 H   -0.9590396821    1.8046330063    0.3941824487
 H   -0.7608652984   -0.5188055018   -0.4333636453
 H    2.1609462306   -2.1711344034    0.1963857658
 H    2.5508667153   -0.6636639690    2.3107651334
 H    2.4559871074    0.7753544073    1.1825428477
 H   -0.9550271298   -1.9257587305    1.7865844014
 H    0.3952616961   -1.9121973746    2.9062715560
 H   -1.9981629679    1.2660081603    4.3394233314