15

 O    0.0876514439    0.0012499550   -0.1407592106
 C    0.1176882388    1.1848241739   -0.2695574120
 O    1.0226928984    1.9615005748    0.3875675633
 C    0.9222428404    3.3296883363    0.2154689027
 C    0.1251911656    4.4170827892    1.0080391916
 C    0.1061374035    5.2835067952   -0.2451212853
 C    1.2552655467    5.4029493373    0.7452254656
 C    2.0438929343    4.3081217997   -0.0339410646
 C    0.8886089777    4.1948540415   -1.0384042052
 H   -0.5479030408    1.7784943072   -0.9209342864
 H   -0.5780709758    4.3672490234    1.8277471858
 H   -0.6285556621    6.0145316604   -0.5549518025
 H    1.5807303825    6.2453143521    1.3405435698
 H    3.0968078551    4.1169269276   -0.1861436618
 H    0.9253877319    3.9273469464   -2.0854936504