17

 C   -0.0005728206   -1.1722028161    0.0220966347
 C    0.0071003135    0.0297931126   -0.0022639752
 C    0.0050854699    1.4742813322   -0.0162697117
 C   -0.6281151313    2.1578600816    1.2536803770
 O   -0.1587956759    3.5034634611    1.1966399736
 C    0.6685540828    3.5918787429   -0.0020095865
 C    1.3725948338    2.2303679149    0.0027318684
 C   -0.2613676213    3.4464154558   -1.1961306011
 C   -0.6672398305    2.1735114964   -1.1983868842
 H   -0.0026714764   -2.2338661061    0.0372874016
 H   -1.7224780698    2.1259816566    1.2267619859
 H   -0.2732340097    1.6743409270    2.1711408056
 H    1.2695601304    4.4957414879    0.0744336286
 H    1.9562845922    2.0502278241    0.9087232703
 H    1.9654155813    2.0288916739   -0.8894180292
 H   -0.6159908145    4.2560095867   -1.8200792318
 H   -1.4148789039    1.7006372285   -1.8211736362