23

 C   -0.0904926380    1.5128257869   -0.1358788860
 C    0.0576744215    0.0036686874   -0.0103462414
 O    0.7613737695   -0.4455918128   -1.1658242407
 C    0.7187013314   -1.8480645675   -1.3172500969
 C    0.9899629940   -2.6126930289   -0.0436830811
 C    1.1974909388   -4.0931655982   -0.1954410382
 C    1.0203571576   -1.9726987043    1.1258927468
 C    0.7820153890   -0.4869303942    1.2598823560
 C    2.1001110551    0.2558627587    1.5467048886
 H    0.8849262099    1.9951751646   -0.2393913050
 H   -0.6833036923    1.7577487293   -1.0212208282
 H   -0.5927992825    1.9268864812    0.7440810368
 H   -0.9478920049   -0.4519832113   -0.0095807120
 H   -0.2588875444   -2.1634538032   -1.7312189414
 H    1.4718340605   -2.0976568790   -2.0756722654
 H    0.3334634793   -4.5698507797   -0.6769929400
 H    2.0664939805   -4.3125679234   -0.8293585899
 H    1.3518511273   -4.5758758596    0.7730742234
 H    1.2403823215   -2.5247969325    2.0381555790
 H    0.1035103912   -0.3216223368    2.1094000380
 H    2.7496318751    0.2223852455    0.6671861697
 H    1.9279885926    1.3030592733    1.8132340776
 H    2.6341813473   -0.2156545853    2.3777896604