19

 C   -0.0031538106    1.4903482863   -0.0138646701
 C   -0.0445311788   -0.0181455535    0.0567949870
 C   -1.3949314120   -0.7140515500   -0.1834831897
 C   -1.3659418815   -1.9081415526    0.7449511569
 C   -0.2403493184   -1.9497500355    1.4618370039
 C    0.6664887823   -0.8148225511    1.1201719903
 C    1.2372235541   -0.7764202181   -0.3111530069
 C    1.2889422700   -1.9577883856   -1.2008847680
 O    2.1288931143   -2.1009913951   -2.0604902337
 H    0.9781316767    1.8779083521    0.2757653735
 H   -0.2145926435    1.8463346233   -1.0285168770
 H   -0.7501272376    1.9306653059    0.6566373465
 H   -2.2211760807   -0.0333373441    0.0647313202
 H   -1.5470036799   -1.0014977498   -1.2312593266
 H   -2.1651168257   -2.6393974689    0.7820639655
 H    0.0185889098   -2.7096248660    2.1898766893
 H    1.2754893103   -0.3499801840    1.8887862081
 H    2.1018049260   -0.1327454226   -0.4440904806
 H    0.5075635852   -2.7266764408   -1.0362036586