23

 C    0.0831171957    1.5333637480    0.0495875570
 C   -0.0862130958    0.0029473191    0.0011762892
 C   -1.5803321355   -0.3572212047    0.0500118537
 C    0.5898072279   -0.5143727922   -1.2928370461
 C    0.2932501668   -1.9610630843   -1.7141560621
 O    0.2524646903   -2.9396262550   -0.6785140273
 C    1.0951139093   -2.7675867092    0.4246441195
 O    0.5334925433   -1.9668041434    1.4287647205
 C    0.6480095179   -0.5682886490    1.2355917434
 H    1.1384279289    1.8238915310   -0.0078487638
 H   -0.4382565050    2.0076943102   -0.7882462960
 H   -0.3291266117    1.9487113594    0.9755100191
 H   -2.1023183074    0.0192194850   -0.8370100946
 H   -1.7239239486   -1.4377906875    0.1078344683
 H   -2.0552549578    0.0936290610    0.9282293165
 H    0.2843861321    0.1166324759   -2.1377600608
 H    1.6728417476   -0.3677510342   -1.1948101236
 H   -0.6940876512   -2.0166770841   -2.1833440777
 H    1.0293506131   -2.2617363405   -2.4755116130
 H    1.2147838573   -3.7597815569    0.8671054590
 H    2.0810317159   -2.3729763593    0.1229236084
 H    1.7132741791   -0.2854987572    1.1783447704
 H    0.2358835679   -0.1212833122    2.1463529201