19

 O   -0.0164509988    0.0281417020   -0.1879979558
 C    0.0270547663    1.2218439091   -0.2103190813
 O    1.0414241907    1.9256807518    0.3193429489
 C    1.0182009690    3.3580212891    0.2126371350
 C    1.3658553008    4.0212124162    1.5791954886
 C    2.6491931114    4.7662480084    1.1618746581
 C    2.2206600301    5.3781279434   -0.2049146022
 C    2.1858741063    3.8816150959   -0.6356523369
 C    3.3944238860    3.6850676702    0.3263719133
 H   -0.7555293322    1.8661210621   -0.6582836426
 H    0.0430946968    3.6671064810   -0.1796884829
 H    0.5774715074    4.6921982662    1.9312707343
 H    1.5390866956    3.2576196123    2.3412372699
 H    3.1542116553    5.3554730657    1.9266587267
 H    1.2912317608    5.9555835070   -0.2465366850
 H    3.0252487992    5.9276586584   -0.6977002999
 H    2.2089479913    3.5709114417   -1.6802119506
 H    4.3256008094    4.0574507091   -0.1052384828
 H    3.5438274544    2.6964059906    0.7656623252