20

 O   -0.0781752844    1.4719285769   -0.0356052098
 C   -0.0196359046    0.0721478748    0.0200533346
 C   -1.4433524945   -0.5205559088    0.0440473154
 C   -1.5425800156   -1.9519134462    0.5842072968
 C   -0.8260837041   -3.0240606598   -0.2476185066
 C    0.6869827337   -2.8054866020   -0.3815619484
 N    1.0642576608   -1.7360008419   -1.3000153143
 C    0.8009536310   -0.4124408193   -1.1860815423
 O    1.1867408734    0.4022516491   -2.0153024089
 H    0.3876699077    1.7012964358   -0.8597248342
 H    0.5033838341   -0.2404577803    0.9413434465
 H   -2.0317955073    0.1452110173    0.6830002602
 H   -1.8783429632   -0.4527836606   -0.9609896705
 H   -1.1400182812   -1.9738189539    1.6069645323
 H   -2.6007981427   -2.2225335264    0.6707418821
 H   -0.9836875089   -4.0012227267    0.2246161153
 H   -1.2617417105   -3.0830601973   -1.2527682003
 H    1.1248196359   -2.6251936801    0.6102663204
 H    1.1561047204   -3.7148022630   -0.7657936516
 H    1.5984379501   -1.9774100178   -2.1212404668