23

 C    0.7091398408   -0.5635444550    1.5252480057
 C    0.0903008080   -0.1318250190    0.1909088896
 C   -1.3309199475   -0.6556459293   -0.0516095893
 C   -2.3384437700   -0.0520121369    0.9240989171
 O   -2.3480888805    1.3590979807    0.7500524521
 C   -1.8786712330   -0.5518275812   -1.5237187150
 C   -2.1250552662   -2.0646000981   -1.5285164039
 C   -0.8350075711   -2.7979860920   -1.3019181093
 C   -1.5362693911   -2.1852479878   -0.1210185585
 H    1.7453119619   -0.2193519135    1.6014763485
 H    0.1670629038   -0.1507283439    2.3820884311
 H    0.7141961750   -1.6545647018    1.6260226090
 H    0.0674428823    0.9616456684    0.1280273797
 H    0.7364752369   -0.4731922362   -0.6258652361
 H   -3.3320668993   -0.4838205544    0.7246237290
 H   -2.0691986606   -0.3211815191    1.9577420877
 H   -2.9874994901    1.7338547499    1.3621573559
 H   -2.7823670411    0.0571121453   -1.5824058448
 H   -1.1689878518   -0.1886409159   -2.2745969643
 H   -2.9958981261   -2.5594329596   -1.9411158222
 H   -0.8970035585   -3.8805812425   -1.3540654414
 H    0.1025015459   -2.3934776184   -1.6755681799
 H   -1.8777585679   -2.7971892297    0.7073541794