16

 C    0.0632106468    1.5111836495   -0.0192494939
 C   -0.0305297775   -0.0040556063   -0.0424114423
 O    0.6849416778   -0.4693059293   -1.1795829573
 C    0.7338787042   -1.8766521928   -1.3024319552
 C   -0.5056757610   -2.4563388790   -2.0000509247
 C    1.9551939023   -2.2074156712   -2.0599893562
 N    2.9003714264   -2.4998238550   -2.6554582415
 H    1.1076241738    1.8292027270    0.0369312504
 H   -0.3776071512    1.9365382763   -0.9248802293
 H   -0.4715311923    1.9090020589    0.8481606771
 H    0.4050527417   -0.4364191526    0.8729252760
 H   -1.0832587997   -0.3221632898   -0.0867542554
 H    0.8411692868   -2.3388712580   -0.3075406793
 H   -0.4141081418   -3.5405474445   -2.1077410706
 H   -1.4004295218   -2.2425416946   -1.4102598101
 H   -0.6180991745   -2.0098326988   -2.9905213476