17

 C   -0.0263110720    1.5660886887   -0.1400004604
 C    0.0223018936    0.0457820122   -0.0481944456
 C   -1.1473472421   -0.6264124317   -0.5495098593
 C   -2.1324262541   -1.1747462501   -0.9683152898
 C    1.3331353219   -0.6681846765   -0.2075916971
 O    2.4415370243    0.1325365734   -0.4666292218
 C    0.6912827540   -0.6554737210    1.1770022841
 C    1.2752880591    0.1394695341    2.2808849076
 O    1.2043581507   -0.1897458359    3.4419215704
 H    0.9394609141    2.0124973872    0.0955868067
 H   -0.2903670186    1.8558081414   -1.1607004498
 H   -0.7858564449    1.9698324829    0.5346716249
 H   -3.0016323703   -1.6590107132   -1.3392341491
 H    1.3133176203   -1.6230081271   -0.7301962218
 H    3.2251739230   -0.3134112425   -0.1270254267
 H    0.2154847499   -1.5723645974    1.5055743288
 H    1.8061298911    1.0659711257    1.9826733288