18

 C    0.0285798340    1.4073211075    0.0203534077
 N    0.0162452143   -0.0412560325    0.0019590875
 C    0.0130447098   -0.8221928684   -1.1268124074
 C    0.0238695971   -0.2337507236   -2.4982609321
 C   -0.0008975015   -2.1463855414   -0.7272960692
 C   -0.0065349412   -2.1739175936    0.6831304222
 C    0.0041488166   -0.8601926092    1.1264347172
 C    0.0040367326   -0.3472326027    2.4368047001
 C    0.0038547772    0.0923015023    3.5608554552
 H    0.9229166900    1.8000861923   -0.4746621958
 H   -0.8547091800    1.8152673113   -0.4821443788
 H    0.0271134618    1.7416321792    1.0579380675
 H    0.9128266336    0.3832607743   -2.6809528661
 H    0.0189950922   -1.0349092604   -3.2404151923
 H   -0.8516770777    0.4001787839   -2.6876852885
 H   -0.0062594123   -2.9961515028   -1.3930953592
 H   -0.0169516419   -3.0410106766    1.3244039974
 H    0.0035577053    0.4665763506    4.5540928747