15

 N   -0.0404800257   -1.2243178449   -0.0621367842
 C   -0.0225775130   -0.0690164792   -0.0234040474
 C   -0.0128104536    1.3833861659    0.0129626858
 C    0.0578298058    2.1002186684    1.4062614513
 C    1.5370322341    1.6285129330    1.5127821520
 C    1.3686013656    2.1254234427    0.0476528334
 C    0.6079965831    3.3564287298    0.6485144132
 C   -0.2859641110    4.1283278385   -0.1996483417
 N   -0.9922054526    4.7523526230   -0.8694475066
 H   -0.7478144122    1.7837933054   -0.6887334772
 H   -0.7136377293    2.0953148298    2.1743366695
 H    2.1915794103    2.2205096639    2.1552651620
 H    1.6969756621    0.5589170482    1.6472510817
 H    2.1083629591    2.1495788771   -0.7506547503
 H    1.2246785473    4.0219138483    1.2558286585