20

 C    0.0986426214    1.5529897112   -0.0672000400
 C   -0.0683386076    0.0374494886   -0.1215791834
 C   -1.4957685373   -0.4326116607    0.1304617170
 O   -2.3904550832    0.3524566558    0.3787358713
 C   -1.7144820132   -1.9052502643    0.0519834074
 C   -2.9059944529   -2.5083363746    0.7780864708
 C   -2.9178551509   -2.4826936401   -0.7127131637
 C   -3.8819460963   -1.6161331621   -1.4909203218
 H    1.1406383405    1.8349476542   -0.2430218415
 H   -0.5245194109    2.0413670849   -0.8207883798
 H   -0.2075721430    1.9433692471    0.9065526413
 H    0.2501613694   -0.3669851684   -1.0927732258
 H    0.5779191185   -0.4604595755    0.6155695479
 H   -0.8081502580   -2.5000423289    0.0031166752
 H   -2.7540246206   -3.4478714051    1.2974527893
 H   -3.5350917583   -1.7872878945    1.2896844498
 H   -2.6819527591   -3.4282541234   -1.1951327740
 H   -4.0513184483   -0.6625196623   -0.9884727834
 H   -3.5051428060   -1.4108299697   -2.4989723895
 H   -4.8446070740   -2.1288261622   -1.5948475370