16

 O   -0.0479945366    0.0300394768   -0.0958623470
 C   -0.0631779332    1.2213903294   -0.0161547239
 C   -1.1284432870    2.3234611656    0.1326610657
 C   -0.0185988110    3.1591986859    0.8195272949
 C    1.0371688789    2.3267506325    0.0160975389
 C    1.1271285135    2.8993214130   -1.3969669646
 O    2.1348719722    2.9283212481   -2.0523386605
 C   -0.2262581044    3.4436939057   -1.8953675099
 N   -1.3986411625    2.8714126239   -1.2116289257
 H   -2.0657663288    2.1153934492    0.6516098717
 H   -0.0392427408    4.2377986256    0.6557256660
 H    0.0377682534    2.9492470004    1.8884591215
 H    2.0213606066    2.0949679579    0.4196842415
 H   -0.2059264232    4.5338161995   -1.7613618386
 H   -0.2942196992    3.2685334933   -2.9710099109
 H   -1.8048715379    2.1384594032   -1.7829771790