20

 C   -0.0596345665    1.5182550385    0.0472859905
 C    0.0508660251   -0.0051297685    0.0175359381
 O   -1.2461590153   -0.5491437835   -0.2196356090
 C    1.0179124569   -0.6363951074   -1.0094283380
 C    2.3638243088   -0.0380810090   -0.5778872100
 N    2.2362091160   -0.8525891072    0.6820666189
 C    1.4800950426   -1.8918786340   -0.1536524611
 C    0.5527527000   -2.1419155943    1.0342055744
 C    0.8020106144   -0.6349598928    1.2370499373
 H    0.8730518519    2.0135722314    0.3240803729
 H   -0.3883225650    1.9017622929   -0.9235204429
 H   -0.8071487319    1.8137785846    0.7943944637
 H   -1.8436226848   -0.1989444471    0.4499238861
 H    0.6693721467   -0.6898414326   -2.0415453148
 H    3.2156628403   -0.4339729450   -1.1391944609
 H    2.4807437013    1.0424470340   -0.4713728680
 H    2.0632406167   -2.6649560328   -0.6563534240
 H   -0.4676194769   -2.4800573754    0.8700014550
 H    1.0668190565   -2.7417132431    1.7880726464
 H    0.7269195832   -0.1403967288    2.2065364555