15

 O    0.1359015431   -0.1841510864    0.0464143313
 C    0.0504738190    0.9982199219   -0.1547911239
 C    1.2493422201    1.9335022773   -0.1478344526
 C    1.1866264898    2.9640442277   -1.2290020571
 N    0.3149914355    3.0222522716   -2.1503884210
 C    0.6554484539    4.1916794613   -2.9749798260
 C    1.9401640126    4.7687403812   -2.3238463199
 O    2.1715017545    3.9004109071   -1.1884838598
 H   -0.9230906079    1.4952897867   -0.3364240319
 H    1.2822701969    2.4477221235    0.8236865716
 H    2.1699850366    1.3465425043   -0.2214394157
 H    0.8133202517    3.8827668025   -4.0130796771
 H   -0.1753089133    4.9049882542   -2.9708344586
 H    2.8187610368    4.7224565151   -2.9729190802
 H    1.8255842907    5.7905700220   -1.9532521289