12

 C    0.1235416861   -1.1764077454   -0.0043246301
 C    0.0286981631    0.0240758385    0.0029972482
 C   -0.0830879977    1.4255893336    0.0115508519
 C   -1.1820948720    2.2750071547    0.0313722871
 N   -0.7944633110    3.5755673600    0.0323394217
 C    0.5296547259    3.5486677295    0.0134039128
 N    1.0058947395    2.2681605247    0.0003042717
 C    1.3963473505    4.6714470612    0.0066860966
 N    2.1369562640    5.5611809927    0.0006024214
 H    0.2006593383   -2.2359128608   -0.0106981071
 H   -2.2222064370    1.9893952277    0.0447140916
 H    1.9727933503    1.9839699237   -0.0148277657