17

 N   -0.0778156553    1.5261384998    0.0565093069
 C   -0.0283670337    0.0763023669   -0.0141252292
 C   -1.4001300427   -0.5814061927   -0.0774472531
 N   -2.3140088421    0.0573727875   -1.0597844784
 C   -2.4480003813   -1.2121011671   -1.8215373206
 C   -1.2356006407   -1.7756955810   -1.0540965157
 O    0.0039662943   -1.5808286473   -1.7396700208
 C    0.6734476784   -0.4881968995   -1.2655732116
 O    1.6672058921   -0.0707750607   -1.7836428821
 H    0.8471461997    1.8890022138   -0.1624639967
 H   -0.6929182356    1.8415652132   -0.6914138796
 H    0.5256253794   -0.3088620074    0.8534155706
 H   -1.8379055270   -0.8069314737    0.8980505030
 H   -3.1726767352    0.4305005059   -0.6747318893
 H   -3.3640896712   -1.7782176596   -1.6100191568
 H   -2.3254982922   -1.1098596238   -2.9037257421
 H   -1.2794390870   -2.8027914344   -0.6933016645