16

 O    1.1259545094   -1.0085822670   -0.0864919093
 C    0.0945923204   -0.0478924576   -0.2516720263
 C   -1.3212797217   -0.5589060455   -0.0230994768
 C   -1.6440425157   -2.0137222883    0.0135612601
 N   -1.7745440048   -1.1943321419    1.2173863414
 C   -0.7963436686   -1.4111617148    2.2854138287
 C   -1.2326849690   -2.5085808617    3.1547202574
 N   -1.5546176986   -3.3839845453    3.8359035825
 H    1.0732505334   -1.6325656850   -0.8176744300
 H    0.3200312497    0.7521071325    0.4632115870
 H    0.1304778283    0.4057738273   -1.2531728003
 H   -2.0695863735    0.1187480786   -0.4336327395
 H   -2.5727417049   -2.3912949905   -0.4039965028
 H   -0.8083656949   -2.7094616778   -0.0287308800
 H    0.2170710809   -1.6336863954    1.9235735595
 H   -0.7366993206   -0.4983512576    2.8896699683