17

 C   -0.0185046451    1.3261385150    0.2913710593
 O   -0.0960202727    0.0876494189   -0.3854961651
 C   -1.2822989882   -0.6014323999   -0.1293073490
 C   -1.2566249261   -2.0556754592   -0.7374079352
 N   -1.4032620548   -2.5115118091    0.6515080824
 N   -1.6574217165   -3.5500903120    1.4490102398
 C   -1.8392279867   -2.9358805289    2.6338238428
 C   -1.7365076925   -1.5199106434    2.5689487103
 C   -1.4483431688   -1.3019360456    1.2323222762
 H    0.9308105661    1.7865260785    0.0107690984
 H   -0.8421255005    1.9969554784    0.0026332372
 H   -0.0431968386    1.1896707156    1.3820170715
 H   -2.1574203513   -0.0074427946   -0.4308550557
 H   -2.0972395860   -2.3160981927   -1.3848132120
 H   -0.3053563220   -2.3229594382   -1.2018737903
 H   -2.0368864657   -3.5371690458    3.5097704388
 H   -1.8538591707   -0.8159433870    3.3754633406