20

 C   -0.7041159993    0.9035103562   -0.0556384194
 N    0.4831432444    0.0691792413    0.1636854778
 C    0.9963336597   -0.5687966353   -0.9844502460
 C    1.7801017128   -0.1238020644   -2.0240834533
 C    2.0140104795   -1.2253241676   -2.8956556578
 C    1.3455613136   -2.3089524765   -2.3694049235
 N    1.1457437439   -3.6182238217   -2.8540654219
 N    0.7248353491   -1.9159930267   -1.2078206748
 C   -0.0692472486   -2.7724569667   -0.3552559114
 H   -0.5496734033    1.7071740631   -0.7916222160
 H   -1.5264413316    0.2769569459   -0.4139887207
 H   -1.0103000516    1.3516514194    0.8952206670
 H    1.2062460628    0.6090083126    0.6231439354
 H    2.1542177513    0.8827486508   -2.1387531394
 H    2.5995625184   -1.2275158501   -3.8027518861
 H    1.5082166506   -3.6999901545   -3.7960206884
 H    1.6088395667   -4.3217015340   -2.2845743857
 H    0.5252768153   -3.6040004332    0.0413512369
 H   -0.4215233213   -2.1708210863    0.4829022301
 H   -0.9185934023   -3.1907776024   -0.9040853729