19

 C    0.0517233860    1.5325077044   -0.1603225271
 O    1.4989851125    1.4416425446    0.0284401498
 C    1.3021533648    0.2375000859    0.7859512943
 C    2.0719752964   -1.0878623045    0.9289615768
 C    1.1538278787   -1.2485009506    2.2082037894
 C    1.2198240749    0.3065646954    2.3230597324
 C   -0.2997828670   -1.5725914296    1.8859054728
 C   -0.9414310647   -0.8691075497    0.9432733310
 C   -0.0534227537    0.0123358065    0.1172152630
 H   -0.4056844500    2.1785441316    0.5996492779
 H   -0.2080809386    1.8877766304   -1.1606704359
 H    1.9811163584   -1.8154564916    0.1189541528
 H    3.1175772350   -0.9768216399    1.2281073630
 H    1.5528144338   -1.8488982393    3.0246021142
 H    2.1691915948    0.6542265866    2.7402890604
 H    0.3788626090    0.8158573053    2.7966354752
 H   -0.8101104416   -2.3201120345    2.4859133140
 H   -1.9875281185   -1.0288176158    0.7014700653
 H    0.1239577200   -0.4733178551   -0.8522559491