19

 C   -0.3505925866    1.4362834078    0.0846194591
 C    0.1574666567    0.0160092847   -0.0572349328
 O    1.4287261443   -0.0504292625   -0.7541309406
 C    2.0526553447   -0.7957512571    0.3113046535
 C    0.7937402676   -0.6715725363    1.1606315149
 C    0.6768913930   -0.3321713695    2.5966214451
 C    0.2198848937   -1.7083859353    2.1055257162
 C   -1.2333026102   -1.9817914809    2.0763555992
 O   -1.7374414285   -3.0632097041    2.2504869754
 H    0.3675592365    2.0559937621    0.6290598562
 H   -0.5060602276    1.8748762043   -0.9057859457
 H   -1.3083327810    1.4556286727    0.6162960011
 H   -0.5873976390   -0.6080337274   -0.5713770203
 H    2.3115696580   -1.8174935807    0.0038142309
 H    2.9504830593   -0.2957763159    0.6960608740
 H    1.5735519441   -0.3026088867    3.2064984290
 H   -0.0987742576    0.3654526854    2.8998506318
 H    0.8400515156   -2.5677031742    2.3403450202
 H   -1.8614087629   -1.0797147864    1.8791141828