18

 O    0.0752696182   -0.0490064870   -0.3791577490
 C    0.0117158999    1.1088103517   -0.0849663577
 C   -1.1149063444    2.0834849823    0.3229349256
 N   -0.1573953131    3.2293349159    0.2237820280
 C    0.4536465841    3.6272624471    1.5368464768
 C    1.7180829631    2.7857977238    1.2623784951
 C    2.7834577283    3.4345867402    0.3248143977
 C    2.1689578305    2.6996152033   -0.9079122287
 C    0.9938125943    2.2622978546   -0.0332823716
 H   -1.9384914180    2.1497142504   -0.3958210635
 H   -1.5333212191    1.9069860509    1.3213820055
 H    0.6064213660    4.7079329522    1.6258541228
 H   -0.1310870879    3.2894421331    2.4010223104
 H    2.0955378708    2.1315177561    2.0476050032
 H    2.7155220330    4.5245484992    0.2818781586
 H    3.8156456609    3.1616570119    0.5520688805
 H    1.9064619094    3.3006147447   -1.7810310417
 H    2.7693660640    1.8428041196   -1.2262658021