15

 C   -0.4484951167    1.9242341046    0.8672851611
 C   -0.2193484470    0.5028343483    0.3083130289
 C    0.5892809607   -0.3098989558    1.2002656916
 C    1.2615959664   -0.9802223488    1.9507598155
 C    2.0177243103   -1.7374789762    2.7984076194
 N    2.6574676130   -2.3869831667    3.5186820006
 C   -1.5854810382   -0.1326040198   -0.0904059479
 N   -1.7568988140   -1.4377939367    0.2255096319
 O   -2.4069773815    0.5344448078   -0.6824309187
 H    0.5018619352    2.4508448001    0.9749722500
 H   -1.0951028490    2.4640477532    0.1746397238
 H   -0.9366034665    1.8812034858    1.8441680039
 H    0.3227898276    0.5943767772   -0.6437101674
 H   -1.0769672721   -1.9546684428    0.7557552413
 H   -2.6261940381   -1.8779573403   -0.0284765640