20

 C    0.0843417534    1.4783685731   -0.2872551824
 C    0.0355434753    0.0077038388    0.0575022320
 N    1.3134457179   -0.7213098110    0.0990587005
 C    0.5261852026   -0.5807439785    1.3342144301
 C    1.1356877944    0.2210353217    2.4520631659
 O    1.8378997752   -0.6763546846    3.2938082000
 C    2.4722979021   -0.0173149581    4.3701708337
 C    3.1520833506   -0.9866573515    5.2196933739
 C    3.7209524319   -1.7627494201    5.9379063800
 H    0.9700279443    1.9583024859    0.1343306080
 H    0.1204120457    1.6130884428   -1.3736271980
 H   -0.8055113979    1.9977912411    0.0851137548
 H   -0.8121325382   -0.5166330897   -0.3837954909
 H    1.2154628750   -1.6569220646   -0.2844349881
 H   -0.0046623866   -1.4603972074    1.6951418423
 H    1.8166637069    0.9840518796    2.0479234996
 H    0.3473807039    0.7395595722    3.0261638646
 H    3.2010305128    0.7224639271    3.9959008664
 H    1.7348086864    0.5454328609    4.9695329480
 H    4.2229732742   -2.4548142776    6.5676740097