19

 C   -0.0648567595    1.3488840770   -0.0483363840
 O    0.0031118829   -0.0737058591    0.0575987842
 C    0.7122407328   -0.5267617347    1.1263878757
 O    1.2455954736    0.1906787573    1.9452501791
 N    0.7440913091   -1.8860005251    1.1200264919
 C    1.3019189385   -2.6498250103    2.2323299347
 C    0.2863610343   -2.8237241971    3.3700337070
 C    1.8279492589   -3.9891890722    1.7138219537
 H    0.9329068500    1.7809287617   -0.1628690949
 H   -0.6678161390    1.5508802451   -0.9344952634
 H   -0.5339396033    1.7854538316    0.8374145034
 H    0.1575343112   -2.3555358223    0.4483048686
 H    2.1379867728   -2.0518485471    2.6066254303
 H   -0.0569389583   -1.8476737845    3.7222652355
 H   -0.5840412734   -3.3990861407    3.0341212035
 H    0.7378761097   -3.3541595614    4.2147705988
 H    2.5736484994   -3.8408613120    0.9279108200
 H    2.2878776078   -4.5595688858    2.5255874394
 H    1.0139787226   -4.5995851205    1.3031506265