19

 O    0.6456628078    0.2139436794    0.8722840018
 C    0.3562047722    1.3384733363    0.5626204069
 C   -0.9965604387    2.0219425592    0.2344012238
 C   -0.1762714363    3.1937953585   -0.3211086893
 C    0.6522540204    3.7640035985    0.7733743170
 C    1.1698990601    2.5042708203    0.0797191013
 C    2.5012859087    2.4427995427   -0.5775705848
 C    3.5600299217    1.4868776773   -0.0687667499
 C    2.9123990144    1.2477110482   -1.4073894143
 H   -1.5307476967    1.4389010113   -0.5214517815
 H   -1.6756011780    2.2421275284    1.0639584075
 H   -0.3760787654    3.7130860104   -1.2489490082
 H    1.2368680243    4.6471856340    0.5339158777
 H    0.3024558828    3.7318069073    1.8024030100
 H    2.8636747521    3.4070394800   -0.9243240852
 H    4.5863195689    1.8356677935   -0.0388660380
 H    3.2763530298    0.8211843535    0.7374290495
 H    2.2192826110    0.4175449690   -1.4785772088
 H    3.4892883911    1.4331849921   -2.3066832052