18

 C    0.0090973122    1.5334430796    0.0421359078
 C    0.0176369722    0.0183798031   -0.0524446769
 C    0.7800324063   -0.5070330502   -1.2668898415
 O    0.8575134864   -1.9260426089   -1.2448942809
 C    1.4964123303   -2.3858081591   -0.0769569402
 C    0.7629716899   -1.8816247323    1.1773093484
 O    0.6415805396   -0.4731512733    1.1479308937
 C   -0.5569207747   -2.5366508150    1.3304508369
 N   -1.5827992864   -3.0508483218    1.4641853989
 H    1.0300902803    1.9245773115    0.0863699014
 H   -0.4951123224    1.9670525390   -0.8265560899
 H   -0.5196846810    1.8514182042    0.9438760728
 H   -1.0119505349   -0.3675163570   -0.0940336424
 H    0.2660681039   -0.2383064846   -2.1937104556
 H    1.7926781188   -0.0708077550   -1.2824108226
 H    1.5038969448   -3.4779936242   -0.1163233404
 H    2.5339156371   -2.0183916595   -0.0237340325
 H    1.3566789777   -2.1171191264    2.0674997730