18

 C   -0.1243445078    1.5583726319   -0.0803434502
 C    0.0472120938    0.0500472367   -0.0097992959
 N    1.1495223593   -0.5053584750   -0.8061583985
 C    1.7857735035   -1.1576669592    0.2133770207
 O    2.7590405296   -1.8558173703    0.2703286213
 C    0.7482184689   -0.6009294476    1.2575366621
 C    1.3839223421    0.3461991538    2.2823577694
 C   -0.0489598101   -1.6309488832    1.8958035572
 C   -0.7134559294   -2.4814664679    2.4259068224
 H    0.8153170372    2.0842886091    0.1047786776
 H   -0.4853480618    1.8517755947   -1.0720260674
 H   -0.8653822397    1.8939026193    0.6520736773
 H   -0.9060771613   -0.4468928338   -0.2189048828
 H    1.3053175289   -0.5372512609   -1.8033294838
 H    2.0122267371    1.0959763365    1.7950900562
 H    0.6176831172    0.8553816757    2.8736357226
 H    2.0140053437   -0.2318643775    2.9625692376
 H   -1.2905650810   -3.2394071920    2.8951608643