18

 C   -0.0011697259    1.5069488705    0.0509869527
 C    1.3953525534    2.0775290691   -0.0586600898
 C    2.4111274979    1.5337527464   -1.0339163530
 C    2.5945207880    1.3479885685    0.4770319285
 N    2.5102730807   -0.1328546228    0.3451453328
 C    1.1885118103   -0.8024949490    0.4931906592
 C    0.0355676575   -0.0022469412   -0.0430252403
 C    0.9343808277   -0.7249033219   -1.0169426481
 C    2.2894778447    0.0004332999   -1.1275561122
 H   -0.4493442971    1.8071573811    1.0071738180
 H   -0.6395112421    1.9183440793   -0.7421930831
 H    1.4657451464    3.1553411536    0.0650566227
 H    2.9609441379    2.1651093172   -1.7201778136
 H    3.3083885576    1.7917972208    1.1617105992
 H    1.0730306583   -1.6271732512    1.1874008132
 H   -0.9226299305   -0.4976510858    0.0925178934
 H    0.5718571234   -1.4889508850   -1.6927179865
 H    3.0391335821   -0.4943878596   -1.7511052933