17

 C    0.0024968770    1.5718780615   -0.1010980056
 C   -0.0407861362    0.0464457208    0.1010868710
 C   -1.3899531099   -0.4962721112    0.1234130659
 C   -2.5192499968   -0.9253987227    0.1387556840
 C   -3.8549810043   -1.4546703066    0.1597988481
 O   -4.1201518501   -2.6309080864    0.3063483271
 C   -4.9939152619   -0.4183592528   -0.0200094212
 C   -6.3904127775   -0.9874183712    0.0039726589
 O   -4.7327227840    0.7504994950   -0.1656611227
 H    1.0389308251    1.9204967656   -0.1091017595
 H   -0.4654191954    1.8512838504   -1.0482311520
 H   -0.5305950505    2.0852288556    0.7028652090
 H    0.5251771847   -0.4568052390   -0.6937194593
 H    0.4606810813   -0.2252827297    1.0391654222
 H   -6.5026271444   -1.7396987903   -0.7831476442
 H   -6.5665706027   -1.5097232788    0.9496117410
 H   -7.1150509042   -0.1840727701   -0.1294266328