16

 O    1.1216058662   -0.8659749786    0.1230081275
 N    0.0181813963   -0.0201297010    0.2827671888
 C   -1.0665724439   -0.6624942655    0.0607831087
 C   -1.2231360925   -2.1184412724   -0.3553275515
 N   -2.6089184226   -2.2545035007   -0.8367984830
 C   -3.3850515414   -1.2461270263   -0.0962172239
 C   -2.4211615121   -0.0951942846    0.1652279797
 N   -2.8601403397    1.0828419792    0.3967129802
 O   -1.8517327754    2.0151460858    0.6039310520
 H    1.8611807945   -0.2721968343    0.2944681373
 H   -0.4968058869   -2.4073898097   -1.1175867469
 H   -1.0566283201   -2.7733537050    0.5109844769
 H   -2.6248662010   -2.0035220328   -1.8205440319
 H   -4.2745284122   -0.9348510753   -0.6461560892
 H   -3.7182154705   -1.6770890438    0.8580841004
 H   -2.3515845288    2.8278088649    0.7429085648