21

 O   -0.7067885355    1.0189747026    0.7676365708
 C    0.0606742658    1.0177230782   -0.1616382628
 C    1.3735835277    1.7672112776   -0.1951611408
 C    1.3058340264    2.9374442765   -1.1743521233
 C    1.3033754891    2.6352871644   -2.6991253527
 C    2.4103592417    3.7098944231   -2.9161987367
 C    2.4944335003    3.9542188616   -1.3833367663
 C    1.6051709500    5.1062845013   -0.8586925564
 C    0.3902457041    4.1349177926   -0.7673297443
 H   -0.1832936322    0.4650093267   -1.0987487732
 H    1.5942051784    2.1197694376    0.8175964569
 H    2.1668108079    1.0744623777   -0.5089749147
 H    1.6499150880    1.6238120506   -2.9326619420
 H    0.3534671984    2.7945388990   -3.2177532214
 H    3.3276135922    3.3163401024   -3.3599213788
 H    2.1056103115    4.5860672762   -3.4959676928
 H    3.4747786709    3.8212391600   -0.9218045942
 H    1.9203369568    5.4788362847    0.1193150307
 H    1.4967513181    5.9639657832   -1.5290916515
 H   -0.4274269715    4.3361948787   -1.4652789617
 H   -0.0385717282    4.0420941254    0.2333849052