19

 O    0.8161923248    0.3237715319    1.6581161301
 C    0.1263775500   -0.0454394310    0.4857094098
 C    0.6047120032    0.5603599400   -0.8083969663
 C    0.9379264335   -0.8789278184   -0.4601160154
 C   -1.3290096496   -0.3555302173    0.7429575371
 C   -2.3558242633    0.8208780697    0.9882218252
 C   -3.2357059268    0.2075338467   -0.1087626349
 O   -2.4712686366    0.2079864511   -1.3183016039
 C   -2.2547552639   -0.8562855653   -0.3811593807
 H    0.5493356671    1.2221524135    1.8824898803
 H   -0.1245970740    0.7523229021   -1.5850828617
 H    1.4122735973    1.2802713108   -0.7322382470
 H    1.9537694490   -1.1002039360   -0.1542361222
 H    0.4432207772   -1.6698785857   -1.0129860349
 H   -1.3801819210   -1.0526183291    1.5862617674
 H   -2.8012148872    0.7956372410    1.9848139683
 H   -2.0043494492    1.8314863235    0.7635864659
 H   -4.3145710257    0.2124939034   -0.2086039381
 H   -2.3874722447   -1.8667778510   -0.7506507491