21

 C    0.2072386712    0.7309481778    0.5566707344
 O    0.0263336432   -0.4803019362   -0.1385231564
 C    0.5464074405   -0.4672093171   -1.4575179166
 C    2.0910907531   -0.6515487097   -1.4915393432
 O    2.3563764801   -1.9393814061   -2.0445866536
 C    1.1721378449   -2.6979865252   -1.9564775739
 C    1.2356522321   -4.1031891255   -2.4424216329
 C    1.1063947919   -3.8180842248   -0.9516800653
 C    0.0385865506   -1.7216003759   -2.1857705981
 H    1.2689362753    0.9722914364    0.7183206098
 H   -0.2580443615    1.5761915809    0.0243953468
 H   -0.2736898535    0.6196655994    1.5315662738
 H    0.2385148545    0.4611322506   -1.9596989315
 H    2.5993807892    0.0896444854   -2.1166853875
 H    2.4861233297   -0.5801850279   -0.4688504132
 H    0.3796643952   -4.5067505629   -2.9731607336
 H    2.1973662986   -4.4540040644   -2.7997893227
 H    1.9873386014   -3.9830257069   -0.3417440322
 H    0.1616434008   -4.0273746428   -0.4614922574
 H   -0.9223289268   -2.0440716173   -1.7827256100
 H   -0.0720936606   -1.5161113479   -3.2558739767