19

 C    0.0138989240    1.5211810864    0.0075010350
 C   -0.0544994057    0.0237549192    0.0745959923
 N    1.1408301406   -0.7598695072   -0.2695923353
 C    0.5445780812   -0.9607045875    1.0591792146
 C    1.3949987173   -0.7481718121    2.2769920320
 C   -0.7087506888   -1.8155899811    0.9793823483
 C   -1.9250197331   -1.0051345886    1.3497682172
 C   -1.3139043691   -0.8208888310   -0.0161578347
 H    0.9902527296    1.8795591759    0.3438188304
 H   -0.1312068931    1.8732487663   -1.0207894645
 H   -0.7624782367    1.9790801294    0.6295587005
 H    0.9254660434   -1.5262314563   -0.9048389012
 H    2.0777007203    0.0928024386    2.1304171879
 H    0.7769756426   -0.5501568369    3.1591626422
 H    2.0038898452   -1.6353559237    2.4880575425
 H   -0.7339193630   -2.8990678807    0.9278008944
 H   -2.8661725215   -1.5476666401    1.3795138678
 H   -1.8467750719   -0.2147856817    2.0918495071
 H   -1.8604937610   -1.0471535791   -0.9257045665