15

 N   -0.1635830463    1.3512811000   -0.2883501843
 C    0.1072426414    0.0332853425   -0.0573245642
 O    1.2169051355   -0.4405370455   -0.1429051723
 C   -1.1326650197   -0.7760481331    0.3809546791
 C   -0.9431388406   -2.2129802242    0.2859221406
 C   -0.7964410046   -3.4018608129    0.2043606393
 C   -0.5903566797   -4.8436226300    0.1000607485
 C   -1.7541791936   -5.5536288475   -0.4480811422
 N   -2.6635583956   -6.1216453740   -0.8763163564
 H    0.5910002243    1.9381149243   -0.6047332021
 H   -1.1005931551    1.7116222093   -0.3308093316
 H   -1.3579617251   -0.4902181100    1.4175113936
 H   -2.0040125503   -0.4707616635   -0.2123749324
 H    0.2756365872   -5.0587616936   -0.5391436196
 H   -0.3591250678   -5.2739383818    1.0829859438