19

 C   -0.0312494735    1.5294616621    0.1352677863
 C    1.5230944279    1.5848271801   -0.0191980431
 C    1.5686825369    0.0417613829   -0.0367428489
 C    2.4776475653   -0.8368664178   -0.8187156753
 C    2.7699783366   -1.9616634590   -0.1592705113
 C    2.1328469718   -2.0293315375    1.2135168448
 C    1.3751125621   -0.6902767227    1.3223652698
 O   -0.0591148367   -0.7914816700    1.1297926821
 C    0.0053406284   -0.0119272624   -0.0749443308
 H   -0.4123045566    1.8029059537    1.1216237481
 H   -0.5866226882    2.0850099436   -0.6238838959
 H    1.8285482338    2.0163764588   -0.9769510546
 H    2.0908161310    2.0791091544    0.7745579143
 H    2.8201039628   -0.5935030017   -1.8188596698
 H    3.3893939449   -2.7637181055   -0.5468006073
 H    1.4235669933   -2.8609553675    1.3041748152
 H    2.8796367949   -2.1603154882    2.0069724952
 H    1.6132113390   -0.1336832326    2.2360451084
 H   -0.5976921836   -0.4378830307   -0.8810740173