20

 C    0.4688659575    1.2739513907    0.1118389867
 C    0.0756129337   -0.1731806485    0.1795670953
 N    1.0994030231   -1.2100392799   -0.0399926050
 C    0.3468328787   -1.2337252926    1.2237985401
 C    1.1657544355   -1.1762941796    2.4889754589
 O    2.3667316632   -0.4577236166    2.2979990175
 C   -1.0445504871   -1.8031561259    1.0424933839
 C   -2.0848438664   -0.7345100623    1.2680347280
 C   -1.3202506756   -0.7385096521   -0.0294762297
 H    1.4234920355    1.4326221809    0.6167765934
 H    0.5621762026    1.6074775731   -0.9281831782
 H   -0.2871642732    1.8997020145    0.5973302271
 H    0.7993378862   -1.9334872172   -0.6896926693
 H    0.6007039077   -0.6790609922    3.2863352008
 H    1.3649738341   -2.2075154463    2.8322874426
 H    2.6470130327   -0.6785459767    1.3975114702
 H   -1.2982484262   -2.8569992582    1.0076680039
 H   -3.1185050201   -1.0638293068    1.2091169085
 H   -1.9106059473    0.0490605436    2.0003343203
 H   -1.8108100647   -0.8799627880   -0.9864952650