21

 C    0.1300351335    1.5674840796   -0.0943665976
 C   -0.0124051597    0.0482613514    0.0301152018
 C   -1.4672587261   -0.4592673649    0.0836247712
 C   -2.2644120047    0.1474022850    1.2372495875
 O   -2.1707226489   -0.1023055732   -1.1054442667
 C   -1.4374075099   -2.0208085432    0.1905683991
 O   -0.7501880942   -2.4644689188    1.3590834928
 C   -2.7713670300   -2.6155472567    0.0963102471
 C   -3.8597031093   -3.1262861521    0.0830591753
 H    1.1722325268    1.8409729142   -0.2843845681
 H   -0.4798371072    1.9484239393   -0.9186137121
 H   -0.1814359441    2.0820702186    0.8194206587
 H    0.4713501695   -0.4306241051   -0.8347109073
 H    0.5189488831   -0.3219753443    0.9121466931
 H   -2.3505732630    1.2282474453    1.1111484298
 H   -3.2731507339   -0.2723305173    1.2603480380
 H   -1.7715041011   -0.0514265125    2.1929921887
 H   -1.6727026900   -0.4334978088   -1.8615012595
 H   -0.8310591181   -2.3852692950   -0.6510985133
 H   -1.3927278047   -2.5010383639    2.0753893182
 H   -4.8226422280   -3.5734295078    0.0502398434