16

 C    0.1782646281    1.5175382917    0.1177053728
 C    0.0850651781    0.0330084396   -0.0001776585
 C   -0.0430478080   -0.7331671592   -1.1454201886
 N   -0.0542616691   -2.0505421331   -0.6998912106
 C    0.0395140361   -2.0126484655    0.6519085483
 N    0.1434703503   -0.7821465714    1.1052476296
 C   -0.1180965666   -0.3557576444   -2.5614654618
 N    0.1243114007   -1.3946991026   -3.4564791489
 O   -0.4106274015    0.7627446169   -2.9436833981
 H    1.1357377772    1.8099903609    0.5623984644
 H    0.0709479617    1.9864451447   -0.8602297864
 H   -0.6090150308    1.8926276482    0.7801083309
 H   -0.2791124899   -2.8544796890   -1.2626807201
 H    0.0243186883   -2.9079326518    1.2563727758
 H    0.8282953412   -2.0724586394   -3.2020293389
 H    0.1903052142   -1.0771853955   -4.4141296099