21

 C   -0.0260188276    1.3867099448   -0.3715364079
 O   -0.0700828687    0.1667976442    0.3378137222
 C   -1.2893766212   -0.5085020245    0.2065041594
 C   -1.5573637605   -1.3985933339   -1.0504543865
 C   -0.4561964255   -2.3702398862   -0.5343499789
 C   -1.3216281858   -1.9795428549    0.7176728547
 C   -2.5750005451   -2.1723039746   -0.1637160013
 O   -1.2327044446   -2.4373887848    2.0092112893
 C    0.0190243972   -2.1842917006    2.6309650550
 H    0.9421194390    1.8487614127   -0.1644478008
 H   -0.1231861368    1.2337172170   -1.4562061724
 H   -0.8239060419    2.0722318203   -0.0468708900
 H   -2.1278699210    0.1312113809    0.5198993452
 H   -1.7109050305   -1.0675225695   -2.0743431180
 H   -0.5375036506   -3.4084689640   -0.8650647477
 H    0.5684101877   -2.0023209282   -0.5645116578
 H   -3.4804238148   -1.6406514930    0.1420905882
 H   -2.7883062112   -3.1984434347   -0.4680410056
 H   -0.0510413638   -2.5735305691    3.6489134908
 H    0.8368702502   -2.6976874037    2.1068658313
 H    0.2438934454   -1.1119372481    2.6618713409