8

 N   -0.0413393221    1.3364778946    0.0087787157
 C    0.0656844318   -0.0224966436    0.0011423448
 O    1.1242026913   -0.6177774489   -0.0116131245
 C   -1.2228275614   -0.7087485678    0.0097190711
 C   -2.2631862690   -1.3109562945    0.0164381360
 H    0.8041486822    1.8831010437    0.0037416280
 H   -0.9341721071    1.7971831597    0.0194988467
 H   -3.1750322556   -1.8569693232    0.0223261921