17

 C   -0.0256127120    1.5943744926   -0.0090237980
 C   -0.0075172879    0.0646579773    0.0275542984
 C   -1.4116483744   -0.5471540665   -0.0129135101
 C   -1.3823364326   -2.0833960754    0.0856357563
 O   -0.7902669172   -2.5136102663    1.2815892323
 C   -2.7808260172   -2.6487415818   -0.0404374918
 O   -3.2657849346   -3.3512465481    0.8139659450
 H    0.9892399278    2.0026751688    0.0201543765
 H   -0.5085435019    1.9673223491   -0.9194102692
 H   -0.5732452661    2.0043372860    0.8467952855
 H    0.5756366036   -0.3199865814   -0.8198064941
 H    0.4970190622   -0.2848112822    0.9341172406
 H   -2.0110613898   -0.1591938920    0.8207663114
 H   -1.9222460518   -0.2559339035   -0.9413028052
 H   -0.8128396275   -2.4690802087   -0.7819769532
 H   -1.4560469820   -3.0696379623    1.7164066503
 H   -3.3402025386   -2.3780812756   -0.9596467850