17

 O    0.0259726393    0.1492977816   -0.8724766141
 C    0.0209180711    1.1795772092   -0.2664737919
 C   -1.0702038962    1.9804860917    0.4699640172
 C   -0.0274405293    3.1198202468    0.6865704350
 O    0.3493604938    3.3862446714    2.0280034345
 C    1.5603196771    2.7474533249    2.3370930419
 C    1.5943255475    1.2453493730    2.3827570136
 C    2.0829727965    1.9860493280    1.1454366174
 C    1.0963499008    2.2543845457    0.0184999089
 H   -1.9340642537    2.2289390987   -0.1534782785
 H   -1.4281276846    1.5233600055    1.3971554234
 H   -0.2899301151    4.0634422370    0.2025673082
 H    2.1869537462    3.3402139039    2.9942784313
 H    2.3563361253    0.7806384647    2.9995954591
 H    0.6591093581    0.6978988818    2.3473290470
 H    3.1377132330    1.9516794030    0.9042150213
 H    1.5914991302    2.6503228733   -0.8706357642