16

 C    0.0005912799    1.4135657081    0.0422166302
 N    0.0623847204   -0.0195541210   -0.1000994334
 C    0.6542765577   -0.6536044670   -1.1293391833
 N    1.2270301885    0.0319878730   -2.0915904439
 N    1.7918308987   -0.7129095716   -3.0772365258
 C    1.8012503456   -2.0536405105   -3.1280191692
 C    1.2150392237   -2.8053475314   -2.1446130881
 C    0.5823383508   -2.1466309022   -1.0450465163
 O    0.0130832177   -2.6702563779   -0.0847801097
 H    1.0040555981    1.8542887240    0.0885531345
 H   -0.5228990777    1.8770911590   -0.8030420774
 H   -0.5332501441    1.6563612872    0.9626654505
 H   -0.3421803459   -0.6524435335    0.5753740250
 H    2.2226098025   -0.1611232556   -3.7997963033
 H    2.2989614973   -2.4827445190   -3.9907289845
 H    1.2251041867   -3.8861173016   -2.1899362351