19

 C   -0.2357315153    1.5452832046    0.0258946868
 C    0.1746941882    0.0785358321   -0.0448715400
 C    1.2447276352   -0.3066675730   -1.0719668699
 O    1.8452344420   -1.5109057530   -0.5748802793
 C    1.8786895317   -1.4535399472    0.8515240480
 C    3.2744480374   -1.0413288191    1.3373721321
 O    4.2530555627   -1.9232827812    0.8356886010
 C    0.8006908569   -0.4468315572    1.2502168391
 O    0.5306658172   -0.1088702618    2.3732432845
 H    0.6409588945    2.1936811848    0.1256391939
 H   -0.7839514028    1.8501305483   -0.8699080921
 H   -0.8728950891    1.7113308492    0.8982970061
 H   -0.7106670109   -0.5511487808   -0.2172909501
 H    0.8506102676   -0.5272383172   -2.0662686187
 H    1.9932831004    0.4953455115   -1.1678545318
 H    1.6485438910   -2.4535810966    1.2362690476
 H    3.4782655376    0.0011710553    1.0407599164
 H    3.3051525998   -1.0862948511    2.4296844688
 H    4.0788495259   -2.0025297377   -0.1105126726