18

 C   -0.0805211543    1.4728308356   -0.0640752472
 N    1.2339594230    0.8181299498    0.0182193826
 C    0.0149122258   -0.0068866122    0.0526776399
 C   -0.2681644377   -0.7366304199    1.3205084056
 C    0.0664211158   -0.1621908783    2.6852820735
 O   -0.0338180230   -1.2494844960    3.6009865633
 C    0.1470455041   -2.4798904400    2.9112725871
 C   -0.2229063042   -2.1959428725    1.4740362748
 O   -1.4776386209   -1.5165029737    1.3413622545
 H   -0.3448842623    2.0737427447    0.8011892477
 H   -0.4080074696    1.8828751239   -1.0155160478
 H    1.6668491447    0.7672171815   -0.8994230864
 H   -0.2454439284   -0.5790318189   -0.8352448557
 H    1.0792359650    0.2639530221    2.6578773381
 H   -0.6379504706    0.6088971195    3.0142758503
 H    1.1922429251   -2.8289517872    2.9568667329
 H   -0.4923141902   -3.2292305778    3.3898782816
 H    0.0473602278   -2.8809615105    0.6743897851