17

 C   -0.5210339009    0.2770019095    0.0835611823
 O    0.2114921375    0.2888456819    1.2913513075
 C    1.4445136338   -0.3792546119    1.2044866876
 C    1.3255782413   -1.8886153094    1.0690514768
 N    1.9954164031   -2.5257099191    0.2082109771
 O    0.4450432839   -2.3679477159    2.0051562009
 C    0.1159075006   -3.7423295326    1.9694908974
 C    1.1853610302   -4.6123302330    2.4849780468
 N    2.0140835117   -5.3077358896    2.8894979446
 H   -0.8112176893   -0.7408148021   -0.2165719925
 H   -1.4259298101    0.8640803675    0.2545086128
 H    0.0506783206    0.7286658554   -0.7409559061
 H    2.0523818843   -0.0294021587    0.3601571157
 H    1.9764348109   -0.1596360323    2.1367779676
 H    1.9050073891   -3.5394254951    0.2596391116
 H   -0.7674515087   -3.8544935341    2.6028637989
 H   -0.1467451579   -4.0628805405    0.9531176711