19

 C   -0.0476134194    1.5282942286   -0.0211057784
 C    1.2711456156    0.7414085134   -0.0761260819
 C    2.3101333923    0.4215998385    0.9623126669
 O    2.4034254964   -1.0044763456    1.1878228155
 C    1.7766219577   -1.9172123152    0.2854624372
 C    0.2170610123   -1.8828678894    0.2419796450
 C   -0.3038474706   -0.8733241178    1.2764458978
 C   -0.0456518962    0.0526072234    0.0938101170
 O   -0.2896315001   -1.0153268674   -0.8350788377
 H   -0.3211667370    2.0742709185    0.8779486880
 H   -0.3390426363    2.0138668780   -0.9460439581
 H    1.6283778177    0.6565122633   -1.0989268455
 H    3.3015076920    0.7874509854    0.6660282116
 H    2.0703586314    0.8676868608    1.9352789721
 H    2.1500129564   -1.8116980093   -0.7429692494
 H    2.0938601846   -2.8969090419    0.6566851188
 H   -0.2157611962   -2.8828059235    0.1611732197
 H   -1.3737436421   -0.9884372631    1.4616060117
 H    0.2542989014   -0.7432587666    2.2013570196