23

 C   -0.0262439553    1.5572519118   -0.0224272886
 C    0.0154362395    0.0231085059   -0.0475517664
 C    0.7516107026   -0.4733585703   -1.2958662530
 O    0.0635299288    0.0070016964   -2.4420819455
 C    0.6430676815   -0.5622781370    1.2262640006
 C   -0.0647220543   -0.1848286007    2.5412516266
 C    0.4200657813   -1.2821557712    3.4883730709
 O    0.5719577305   -2.4546524775    2.6922064635
 C    0.6223428631   -2.1024813646    1.3117884656
 H    0.9800525152    1.9719707164    0.1163475788
 H   -0.4210034492    1.9400917994   -0.9655190129
 H   -0.6557442799    1.9282533614    0.7911461333
 H   -1.0162185244   -0.3509805768   -0.1191036661
 H    1.7926889646   -0.1078831307   -1.2746445775
 H    0.7897758563   -1.5733285064   -1.3002994636
 H    0.5457090121   -0.2759436230   -3.2240070472
 H    1.6870198839   -0.2228451936    1.2901598256
 H    0.1815202322    0.8181006340    2.8969493207
 H   -1.1522665837   -0.2430363417    2.4115743562
 H    1.3849308486   -1.0085459927    3.9443289466
 H   -0.2838291698   -1.5004512955    4.2986415755
 H   -0.2653833552   -2.5086637601    0.8016949027
 H    1.5078518417   -2.5645069036    0.8591402243