17

 O    0.2861235619    0.0494611292    0.5653158729
 C    0.1801174265    1.1919158481    0.2130775646
 C    1.3968237434    2.0699741675   -0.1506504321
 C    1.6015699211    3.1223943542    1.0001456934
 C    2.6746653613    2.4577766191    1.8714773752
 C    3.5506192420    1.7617980349    0.8200381558
 N    2.6227814311    1.2797852247   -0.2206894631
 C    1.0793850128    2.7431827019   -1.4231083673
 N    0.7885881062    3.2748905181   -2.4073642647
 H   -0.7995798146    1.7064772967    0.1463113920
 H    1.9670182648    4.0568754202    0.5666593832
 H    0.6675227184    3.3445632088    1.5233337973
 H    3.2167463438    3.1819369034    2.4847728415
 H    2.2212881844    1.7161662907    2.5378234371
 H    4.2571081111    2.4766926665    0.3795028443
 H    4.1333298547    0.9270193100    1.2167040076
 H    2.3690616411    0.3105357761   -0.0532208178