22

 C   -0.0119909587    1.6006178561    0.1230129267
 C    0.0104980401    0.0914464015   -0.0293091915
 C   -1.1672113418   -0.5811004609    0.6567895106
 C    0.5836003127   -0.6141354190   -1.2131767334
 C    1.4601588478    0.1148329369   -2.2185597817
 O    0.7014609297    1.1106783935   -2.8984014002
 C    2.6522723287    0.6747780130   -1.3916167353
 C    2.5282083748    0.0316856792    0.0124331425
 N    1.2511275895   -0.7062829078    0.1026286619
 H    0.7364083275    2.1204315105   -0.4702219200
 H   -0.9886662973    1.9811838202   -0.1926522275
 H    0.1198076306    1.8737879266    1.1771906851
 H   -2.1131257890   -0.2755417993    0.1957354338
 H   -1.0818174116   -1.6683826596    0.5958244550
 H   -1.2038114378   -0.3056754420    1.7171191278
 H    0.0902673781   -1.5163696454   -1.5679056430
 H    1.8257419237   -0.6230226707   -2.9475049755
 H    1.2440729053    1.4605094748   -3.6120918326
 H    3.6113155998    0.4315364931   -1.8580906206
 H    2.5807043325    1.7650176003   -1.3587593615
 H    3.3284002504   -0.6962677643    0.1797062509
 H    2.5969079147    0.7711577534    0.8171009485