13

 C   -0.0262964684    1.5387711573   -0.0078374735
 C    0.0146890426    0.0009531038    0.0016603687
 C    0.7473786206   -0.5338885943    1.2442047143
 C   -1.4021126421   -0.5385925661   -0.0155781970
 O   -1.8762045450   -1.2358235079   -0.8739955942
 H    0.9882369571    1.9462508039    0.0370552186
 H   -0.5072508977    1.9215342186   -0.9128556537
 H   -0.5775651415    1.9236088330    0.8579638573
 H    0.5058467992   -0.3642109081   -0.9061912393
 H    0.2295837958   -0.2390940328    2.1643105195
 H    0.8169273582   -1.6255949882    1.2297343831
 H    1.7626715288   -0.1284656594    1.2905075470
 H   -2.0086150977   -0.2279274198    0.8712166592