17

 C   -0.2899256750    1.7334603720   -0.2448340551
 C   -0.0039716833    0.2482577868   -0.1345125322
 C   -1.2344276399   -0.5922420873    0.2428594753
 C   -1.8718635437   -0.1568924321    1.4841662513
 N   -2.3782425112    0.1980837183    2.4598150372
 C    0.8632629986   -0.3827382748   -1.2537386922
 C    1.8770665333   -0.5761609653   -0.1475721032
 N    3.0275055221   -1.0651807781   -0.0812726525
 O    1.0817490314   -0.0065094224    0.8287571313
 H    0.6245737627    2.2763180569   -0.4961390342
 H   -1.0323312894    1.9230990760   -1.0271675033
 H   -0.6769407193    2.1240980742    0.7000799844
 H   -1.9698960311   -0.5386647305   -0.5684282851
 H   -0.9391105518   -1.6412690596    0.3474944250
 H    0.4842005231   -1.3056381907   -1.6970001162
 H    1.1725815243    0.3006572863   -2.0458733106
 H    3.4020289390   -1.0136391097    0.8675876200