20

 C    0.0246383164    1.5192240750    0.1139551158
 C    1.4309025657    2.1325950740    0.0540204505
 C    2.2232042051    1.7525932540   -1.2145085507
 C    1.4728266444    2.0632634823   -2.4776961400
 C    0.5886582232    1.2420753740   -3.0583354042
 C    0.2329379249   -0.1153658662   -2.6322151107
 C    0.0351673965   -0.6324902560   -1.4102587493
 C   -0.0301064979   -0.0104173543   -0.0352718114
 H   -0.4167248847    1.7803198073    1.0831345753
 H   -0.6156702634    1.9781349551   -0.6457613703
 H    1.3426653779    3.2243272213    0.1183536258
 H    2.0062267049    1.8174776604    0.9340662348
 H    3.1848962886    2.2780200877   -1.2072004187
 H    2.4432497377    0.6789234677   -1.1845281762
 H    1.6498725485    3.0356903009   -2.9327474100
 H    0.1308143364    1.5627275111   -3.9932523722
 H    0.1083926044   -0.8112372675   -3.4626489010
 H   -0.1769328241   -1.7017144953   -1.3836514780
 H    0.7479122264   -0.4730659280    0.5926843381
 H   -0.9735021808   -0.3620992936    0.4070031825