15

 O   -0.0245133231    1.3989073366   -0.0553030810
 C   -0.0105521071   -0.0168642429   -0.0646086803
 C   -1.4170904622   -0.5252456733    0.0275072884
 C   -2.4782445165    0.2956266736    0.1068856083
 O   -3.7682194767   -0.1049720227    0.1917019189
 N   -4.0727439637   -1.4567873170    0.2011917049
 C   -3.0866121485   -2.2779261904    0.1270027071
 C   -1.6589751044   -1.9549692720    0.0323019089
 N   -0.6979009377   -2.8084106012   -0.0400474953
 H    0.8836944613    1.7081850793   -0.1042538679
 H    0.4490939964   -0.4221990082   -0.9797270381
 H    0.5679400847   -0.4327003832    0.7752542109
 H   -2.4080956160    1.3749618615    0.1110306184
 H   -3.3912500061   -3.3232214612    0.1390302358
 H   -1.0592429201   -3.7645831590   -0.0232232789