21

 C   -0.0715900117    1.5787971176   -0.0582101596
 C    0.0083949047    0.0532883470   -0.0600277359
 C    1.2240170547   -0.5163371975   -0.8518662302
 C    1.9958641124   -0.6921635574    0.4841814239
 C    0.6229395279   -0.5812776512    1.2249217816
 N    0.4670638016    0.1376313935    2.4730474000
 C    1.0864906457   -0.5372850672    3.6080834489
 C    0.8990351318    0.2287368122    4.8439521881
 N    0.7730320656    0.8427707160    5.8140489132
 H    0.8995771104    2.0432781941    0.1515482547
 H   -0.3949262403    1.9423029152   -1.0389016259
 H   -0.7878168226    1.9385723676    0.6870069315
 H   -0.9680110929   -0.3549661146   -0.3362887989
 H    0.9983431324   -1.4749178817   -1.3261721284
 H    1.6700521773    0.1430386025   -1.6005295201
 H    2.5817182794   -1.6048449968    0.6179772420
 H    2.6389561990    0.1672682956    0.7017147791
 H    0.2052013893   -1.5844093081    1.3729703046
 H    0.8433356056    1.0765688682    2.3922733099
 H    0.6108790905   -1.5179839805    3.7354212003
 H    2.1683795090   -0.7286869247    3.4923038411