19

 C    0.4263861721    1.5356782646    0.3290892322
 C   -0.2203429879    0.2688648030   -0.2606520327
 C    0.5241002103   -0.2824816248   -1.3892833841
 C    1.1719024451   -0.7338163249   -2.3006694239
 C    1.9310512869   -1.2893377500   -3.4182580151
 N    2.2274644767   -2.7108941337   -3.2245392473
 C    1.2684915945   -1.0154319567   -4.8058487557
 N    0.5783948354    0.1467459616   -4.9106865112
 O    1.4497861062   -1.7846235317   -5.7297961866
 H    1.4400228857    1.3257877011    0.6801479522
 H    0.4869499456    2.3286199820   -0.4214910220
 H   -0.1628861158    1.9054735909    1.1731823812
 H   -0.3009990280   -0.4985702440    0.5195482793
 H   -1.2496725870    0.4901566496   -0.5707227126
 H    2.8946724970   -0.7575692294   -3.4746908153
 H    1.3660724743   -3.1834150126   -2.9614311677
 H    2.4646826429   -3.0755336157   -4.1471044806
 H    0.3195049362    0.6558415654   -4.0820847738
 H    0.1174438399    0.3528238255   -5.7821419264