18

 C    0.0446059807    1.4987466622   -0.0462964715
 C   -0.1615092054    0.0103686356   -0.2635580612
 O    0.9670942505   -0.4977417495   -0.9607932391
 C    0.9442639598   -1.8694496788   -1.1356489310
 C    0.0778976775   -2.4846867095   -2.2981445281
 N    1.0773110688   -1.8314410730   -3.2536019084
 C    1.9765257495   -2.4087684107   -2.1568628085
 C    1.0761038591   -3.6599215070   -2.2806161494
 O    1.1385659218   -4.8302888195   -2.5007814768
 H    0.9473265606    1.6789084000    0.5440056602
 H    0.1527841593    2.0125476036   -1.0052719337
 H   -0.8106150214    1.9267932356    0.4848566187
 H   -0.2739383636   -0.5135400297    0.7001022099
 H   -1.0779674181   -0.1744088607   -0.8449167368
 H    0.8806799565   -2.4080942907   -0.1801337911
 H   -0.9957568006   -2.4518233209   -2.4690516366
 H    1.1626095473   -2.3765408483   -4.1164330933
 H    3.0566126977   -2.2819694488   -2.1638705135