17

 O    0.0340833021    0.0161090636   -0.4570986406
 C   -0.0025380500    1.1801724379   -0.1618909684
 C   -1.2667841430    2.0471430427   -0.0307165139
 C   -0.7533025838    3.4861056344    0.1155863545
 C   -1.0075531770    4.1988570445    1.4656158869
 C    0.3928413329    3.6948735502    1.8912907032
 N    0.7065633108    3.3935296038    0.4708655092
 C    1.2162078670    2.0740803648    0.1446935910
 H   -1.9248828107    1.8819651038   -0.8868790024
 H   -1.8093121660    1.7044106359    0.8589271494
 H   -0.9445868293    4.0740027142   -0.7876892630
 H   -1.0591105950    5.2842952424    1.3667432090
 H   -1.8605419273    3.8513333862    2.0508220306
 H    1.0723559302    4.4168488038    2.3548548193
 H    0.3490198959    2.8013184074    2.5326560898
 H    1.8048220103    1.6410820491    0.9610739826
 H    1.8638322929    2.0897633053   -0.7429128072