21

 C   -2.3395411284    1.1087007190   -1.7856156040
 C   -2.1200028982   -0.3841750653   -1.6072510184
 O   -1.6819189016   -0.6048008999   -0.2732939235
 C   -1.5996662226   -1.9419276339    0.1171398091
 C   -0.5049783939   -2.7642883969   -0.5625419383
 C    0.8311604509   -2.2039540486   -0.3893655146
 C    1.9306929332   -1.7404942903   -0.2481493243
 C   -1.8944854198   -2.1730175199    1.5645870235
 C   -2.8849930485   -2.6319656713    0.5096125459
 H   -2.6634371222    1.3273129936   -2.8076144689
 H   -3.1037306577    1.4709993249   -1.0920619981
 H   -1.4131159812    1.6557972754   -1.5899485265
 H   -3.0500646509   -0.9422113020   -1.7956839541
 H   -1.3677685483   -0.7431640795   -2.3253826300
 H   -0.5348243148   -3.7827618932   -0.1575476404
 H   -0.7244761393   -2.8633572990   -1.6336110895
 H    2.9011155257   -1.3296351516   -0.1198759204
 H   -1.3154495487   -2.9193324949    2.0971344755
 H   -2.1584012218   -1.2977379275    2.1460431308
 H   -3.7992376196   -2.0582389185    0.4086954466
 H   -2.9930965423   -3.6951007503    0.3218245195