19

 C   -0.0014836349    1.4740233997   -0.0750233845
 C    1.2972384355    0.7348695190    0.0462826156
 C    2.2308926713    0.7307533660    1.2224471189
 C    2.0713635812   -0.5950688296    2.0156714611
 C    0.6244972130   -1.0131462214    2.1970878531
 C   -0.3389578447   -0.7720555341    1.2984180038
 C    0.0098062686   -0.0451840602    0.0622445864
 C    0.5274005566   -0.6420963905   -1.2535542307
 O    1.7127102072    0.2033961769   -1.2229011683
 H   -0.3293421285    2.0106986570    0.8090313623
 H   -0.2673365420    1.9300131195   -1.0248790631
 H    3.2644355409    0.8564613935    0.8847454637
 H    2.0003707720    1.5754349622    1.8793320512
 H    2.6094381709   -1.3926408879    1.4845864130
 H    2.5590265114   -0.5067807985    2.9922115357
 H    0.3812934777   -1.5467924754    3.1129933216
 H   -1.3621610990   -1.0918073426    1.4823164616
 H    0.8019507408   -1.6994421842   -1.1705886562
 H   -0.0719184679   -0.4831733794   -2.1582756452