17

 C    0.0116968373    1.5116231902    0.1998587452
 C    0.0278418543    0.0287060062    0.0357730207
 N    0.1749050157   -0.6228923898   -1.0984692176
 C    0.1360763686   -1.9659361926   -0.7801154847
 C    0.2356786744   -3.0172297579   -1.8418130221
 C   -1.0444297022   -3.1023328905   -2.6614924639
 O   -1.6087598117   -4.1281524113   -2.9404436878
 C   -0.0433332276   -2.1236177246    0.5687573131
 N   -0.1071235627   -0.8436483407    1.0787560604
 H    0.8248714921    1.8602897588    0.8469013046
 H    0.1324862519    1.9710702574   -0.7817062147
 H   -0.9310367410    1.8646082938    0.6334515145
 H    1.0445486236   -2.7504260188   -2.5360239239
 H    0.4491348066   -4.0051328123   -1.4267620633
 H   -1.4325020838   -2.1136182222   -2.9910863538
 H   -0.1253741928   -2.9957784966    1.1957816494
 H   -0.2203766428   -0.5994839392    2.0483633640