17

 C   -0.0494870917    1.6075178411   -0.0120011746
 C    0.0317858696    0.0840638222   -0.0180935060
 O    0.8377966761   -0.3530560782   -1.1099359557
 C    1.3899001469   -1.6295232159   -0.7692153840
 C    1.7646836850   -1.5214056802    0.7116441052
 C    0.7916661166   -0.4638014354    1.2311175396
 O    0.6452518234   -0.0842863724    2.3582772769
 C   -1.2950687778   -0.5461708181   -0.0507619091
 C   -2.3664468676   -1.0917707826   -0.0677908945
 H    0.9589286299    2.0266622561   -0.0553412963
 H   -0.6208586123    1.9617793590   -0.8722824811
 H   -0.5361133651    1.9380424873    0.9081620700
 H    0.6470937910   -2.4222163284   -0.9335094740
 H    2.2391505489   -1.7995205799   -1.4328747520
 H    1.6733150025   -2.4476759188    1.2830184215
 H    2.7830419134   -1.1415785053    0.8476787917
 H   -3.3196943587   -1.5603781205   -0.0869201977