17

 C    0.3829277341    1.6042100793   -0.6180366552
 C    0.0187434649    0.2146579927   -0.1510920930
 N    1.0941668671   -0.7541620404    0.0570368365
 C    0.3568138787   -0.3164503301    1.2341275354
 C    1.0915100485    0.5325117601    2.2448870698
 N    0.5831448429    0.4283416938    3.5098277147
 O    2.0193218864    1.2662517515    1.9702577117
 C   -1.2624627266   -0.3578108056   -0.6822649967
 O   -1.5189445561   -1.5390970876   -0.6727918464
 H    1.2796837820    1.9488434683   -0.1052454636
 H    0.5699135765    1.6012006411   -1.6972445029
 H   -0.4339872124    2.3061589826   -0.4169930463
 H    0.7430397624   -1.6740326963   -0.2148863800
 H   -0.3760232125   -1.0102645429    1.6421537777
 H   -0.0836642817   -0.2794920829    3.7635723077
 H    1.0676224602    0.9138916309    4.2474542104
 H   -1.9747169942    0.3836161555   -1.1020778797