21

 C   -0.2071357589    1.5928336454   -0.0732817622
 C   -0.2576376991    0.0762121949   -0.2703470997
 C    1.0046677916   -0.4724725132   -0.9507285043
 C    0.9520320362   -1.9780073863   -1.1502969297
 O    0.0304608080   -2.4484327513   -2.1600859067
 C    1.4244128913   -2.6592275220   -2.3842349447
 C    2.0636125996   -1.9795927631   -3.5672242583
 C    0.9511461123   -2.7535358749    0.0736444688
 C    0.9695702111   -3.3786199645    1.1006537077
 H    0.6423472917    1.8847197455    0.5545884595
 H   -0.1048720823    2.1163070033   -1.0306679691
 H   -1.1182193563    1.9596078954    0.4092889167
 H   -0.3900866111   -0.4210927382    0.6973172159
 H   -1.1276980087   -0.1939652125   -0.8799124656
 H    1.1352036359    0.0168514901   -1.9199028620
 H    1.8891667013   -0.2337555477   -0.3466374053
 H    1.7282060201   -3.6994681516   -2.2503536338
 H    1.7278423176   -0.9482392277   -3.6838506748
 H    3.1542167724   -1.9884756922   -3.4675622301
 H    1.8078043241   -2.5220395430   -4.4835910838
 H    0.9781549731   -3.9379087265    2.0034859216