17

 C   -0.1007723583    1.5490848705    0.0145936597
 C    1.4224797888    1.2538003184   -0.0021918415
 C    1.3301747724    0.1587140511    1.0851773579
 C    1.8399053366   -0.9601035462    0.1767138760
 C    0.8083446025   -2.1014138899    0.2643753943
 N   -0.0293438996   -2.0660104441    1.4906912668
 C   -0.4965640177   -1.3720816080    0.2685729418
 C    0.0515725949    0.0324817396    0.1965297259
 N    1.2007298446   -0.0098321364   -0.8606199518
 H   -0.4883678668    2.1077450645    0.8694404766
 H   -0.5366208765    1.8878772368   -0.9290313085
 H    2.2374304188    1.9469537829   -0.2117280113
 H    1.3659932218    0.2611231704    2.1715855544
 H    2.8910801169   -1.2227877923    0.0446624670
 H    0.9480367267   -3.0355940849   -0.2667585392
 H   -0.5213362538   -2.9543294406    1.5737793624
 H   -1.3671102313   -1.7117538320   -0.2781210803