25

 C   -0.0949879075    1.5781927779   -0.5508594345
 C    0.0150900102    0.2146718077    0.1420368488
 C   -1.3274900972   -0.4778084971    0.2730717636
 C   -1.8827946401   -1.3218900938   -0.8520150653
 C   -1.4836588886   -1.9693372152    0.4552796110
 C   -0.3120696814   -2.9267301456    0.5266118508
 C   -0.7318027671   -4.3881237670    0.3019672358
 C    0.4620244794   -5.3429420928    0.2922363196
 O   -1.7100206000   -4.8008713750    1.2568351894
 H    0.8821500273    2.0650954313   -0.6311129368
 H   -0.5051001231    1.4725608931   -1.5606619854
 H   -0.7576068672    2.2506536436    0.0052697701
 H    0.7117372783   -0.4188961366   -0.4187614856
 H    0.4593793560    0.3476215035    1.1377736075
 H   -2.0633758417    0.1212516728    0.8067730405
 H   -2.9347053628   -1.2465733980   -1.1051689626
 H   -1.2342673752   -1.4903812655   -1.7079342257
 H   -2.3073427301   -2.2754479723    1.0932641484
 H    0.4519040975   -2.6630101750   -0.2138484398
 H    0.1782311797   -2.8564457631    1.5105537563
 H   -1.2539213388   -4.4553145248   -0.6604484968
 H    1.0152168584   -5.2838854072    1.2385545301
 H    0.1224493707   -6.3737722361    0.1598223187
 H    1.1603624833   -5.0995235524   -0.5152191643
 H   -1.2859913400   -4.8001473525    2.1226655965