19

 C    0.2783619854    1.5803123155   -0.0736391573
 C   -0.0390926796    0.0994934220    0.1320517440
 O    0.3541153446   -0.6530468704   -1.0259997083
 C    1.2326236386   -1.7047290293   -0.6763171202
 C    0.8730940049   -3.1109339335   -1.2338456523
 O    2.1743378467   -3.2440061115   -1.8376975865
 C    2.4910414392   -1.8641714013   -1.5717962164
 C    1.4305434176   -1.5682423753    0.8018729153
 C    0.7073079685   -0.5555209155    1.2638321318
 H    1.3559699711    1.7297664365   -0.1872783695
 H   -0.2225992303    1.9497450408   -0.9726518040
 H   -0.0695780949    2.1703055398    0.7808258508
 H   -1.1276566893   -0.0127051969    0.2647122491
 H    0.6676770731   -3.9063524091   -0.5082021381
 H    0.0660599898   -3.0661210148   -1.9764908752
 H    2.4381462709   -1.2379792924   -2.4718060209
 H    3.4701802016   -1.7461082772   -1.0933417976
 H    2.0760444560   -2.2295266915    1.3659555892
 H    0.6379467058   -0.2158059258    2.2895298760