16

 N   -0.2017302992    1.2191730715    0.2352885264
 C    0.0339092864   -0.0997300905   -0.0295457974
 O    1.1098137703   -0.5807169046   -0.2986890136
 O   -1.1303442105   -0.7950999320    0.0230244253
 C   -1.0160914930   -2.1901644848   -0.3058102958
 C   -2.3879495005   -2.7922531645   -0.2255339595
 C   -2.5299462942   -4.2085126712    0.1948486328
 N   -2.9814234399   -3.1225620964    1.0786588305
 H    0.6051670843    1.7876061043    0.4250622429
 H   -1.0795747075    1.4844765445    0.6479931949
 H   -0.5902002489   -2.2897392895   -1.3098472003
 H   -0.3269562531   -2.6754153489    0.3952499921
 H   -3.1041275501   -2.3847622891   -0.9355964267
 H   -3.3227636360   -4.8201078598   -0.2252171618
 H   -1.6269737151   -4.7561037648    0.4540934049
 H   -2.2975144730   -2.9673148043    1.8162868255