16

 O    0.0128943067    1.2994372840   -0.3870735068
 C    0.0767777078   -0.0784083569   -0.0481237213
 C   -1.3402357154   -0.6422290014    0.0920293130
 O   -2.1150479868   -0.2840036867   -1.0572312257
 C   -1.3852870695   -2.1701275668    0.1747826677
 O   -2.7133835630   -2.6498153766    0.1523206630
 C   -2.0749685682    0.0036875549    1.2725399548
 O   -1.6675114013    0.9738844466    1.8708132475
 H   -0.3163120773    1.7427859007    0.4078944260
 H    0.5899091447   -0.5820173231   -0.8732467703
 H    0.6500042881   -0.2465060450    0.8729594955
 H   -1.7910610524    0.5937861482   -1.3127971219
 H   -0.7914742078   -2.5777205668   -0.6586057251
 H   -0.9353791258   -2.5163635534    1.1117990696
 H   -3.1229184627   -2.2705314217   -0.6349591814
 H   -3.0561264470   -0.4520490959    1.5059152956