23

 C   -0.1080879965    1.5776293207    0.1078808098
 C   -0.0636847679    0.0534903031   -0.0452992617
 O    0.5045673722   -0.5456972567    1.1358079068
 C   -1.4924708650   -0.5218637415   -0.0769644547
 O   -2.1933258540   -0.2489352873    1.1176166314
 C    0.7082650236   -0.4047045146   -1.2966498173
 C    2.1848897393    0.0012653262   -1.3289475755
 C    2.9214964789   -0.5695234337   -2.5337698704
 O    4.2699468875   -0.1306082249   -2.4674555057
 H    0.8865877345    1.9898339654    0.3098555967
 H   -0.4819563791    2.0520227501   -0.8051175313
 H   -0.7745541993    1.8438569799    0.9310999941
 H    1.2414171241   -0.0018926211    1.4292703217
 H   -2.0604253752   -0.0725344246   -0.8979955675
 H   -1.4277634938   -1.6060376070   -0.2618546461
 H   -1.5864728096   -0.5060380237    1.8239488496
 H    0.6373293729   -1.4985530879   -1.3471743614
 H    0.1961374303   -0.0131132792   -2.1858937429
 H    2.2932909225    1.0914546957   -1.3513232546
 H    2.6901804918   -0.3538057643   -0.4229787329
 H    2.8583735669   -1.6700259353   -2.5210376133
 H    2.4360629419   -0.2276762960   -3.4629948471
 H    4.7427363243   -0.4949162434   -3.2212729677