14

 O   -0.0384857869   -0.0458252705    0.0019928958
 C    0.0106035597    1.1617500672    0.0071017710
 C    1.2362221186    1.9223098593   -0.0001422989
 C    2.2419955482    2.5888073274   -0.0058782787
 C    3.4812150942    3.3441358563   -0.0132432622
 O    3.1987853732    4.7346697158   -0.0032757509
 C    4.3776259607    5.5070574860   -0.0097827072
 C    4.0168472087    6.9260922108    0.0012211794
 N    3.7668372601    8.0528250796    0.0096286203
 H   -0.9056104819    1.7849994091    0.0179650390
 H    4.0865253602    3.0633356846    0.8654169073
 H    4.0702347295    3.0727219271   -0.9058169372
 H    5.0057403651    5.2954420821    0.8709168348
 H    4.9896204907    5.3051056551   -0.9039966925