14

 C    0.0839014635   -1.2029828688   -0.0153542422
 C    0.0486974662   -0.0020361024    0.0007706078
 C   -0.0237107056    1.4335848756    0.0325414161
 C   -0.3293398490    2.2730127183    1.3242439073
 C    0.4335935294    3.2867979687    0.4256188495
 O    1.2565317157    2.1663872359   -0.0410905835
 C   -0.5486344331    3.4638996669   -0.7489615890
 C   -0.8658706008    2.1992921916   -1.0217138605
 H    0.1230462200   -2.2642796437   -0.0320984560
 H   -1.3726512748    2.4662524428    1.5786074873
 H    0.2576904878    1.9349354779    2.1803364694
 H    0.9990095215    4.1342271138    0.8072429693
 H   -0.8755339775    4.3889206953   -1.1997200724
 H   -1.5198524034    1.7554468581   -1.7563795031