18

 C    0.2247802172    1.6271595122   -0.1256054675
 C    0.0090729776    0.1185326770    0.0895479088
 C   -1.4672074263   -0.2008631232    0.3409681158
 N    0.4497446566   -0.6154523403   -1.0914676767
 C    1.6734462253   -0.9791285403   -1.1867449720
 N    2.7171734468   -0.8286519169   -0.3125172499
 C    2.0374664608   -1.7250371432   -2.4362389572
 O    3.1625037573   -2.0879312196   -2.6850127790
 H    1.2817248363    1.8649966926   -0.2842957722
 H   -0.3286017592    1.9625652459   -1.0079479115
 H   -0.1269547378    2.1947968374    0.7416491472
 H    0.5808197760   -0.1911357953    0.9816503996
 H   -2.0700598447    0.0994695004   -0.5216509671
 H   -1.6087521041   -1.2744945296    0.4928611986
 H   -1.8358022265    0.3257856962    1.2272008859
 H    2.6956084681   -0.1034770405    0.3822335538
 H    3.6210421177   -1.0823410311   -0.6842586177
 H    1.1743227290   -1.8997770716   -3.1047428990