18

 C    0.0804874593    1.6461810772   -0.0197224023
 C    0.0889923253    0.1238584688    0.0226211288
 C    0.7298631183   -0.7035601739   -1.0945691485
 N    2.1868596744   -0.9426870591   -0.8154976773
 C    2.4429821358   -0.2694047316    0.5019364323
 C    1.0390297114   -0.6610950316    0.9789193656
 C    1.1283956192   -1.7816263853   -0.1445421162
 C    1.0292983775   -3.1891266189   -0.1479902290
 C    0.9262572125   -4.3881280491   -0.1145439481
 H    1.0704276349    2.0655231960   -0.2172387021
 H   -0.5884348935    2.0016549863   -0.8109191094
 H   -0.2805729198    2.0608425201    0.9280182191
 H   -0.9297122517   -0.2513300983    0.1703383619
 H    0.4271008282   -0.8072669823   -2.1287706231
 H    3.2361083158   -0.8205723186    1.0122514479
 H    2.7096568426    0.7907358072    0.4431443606
 H    0.7867119899   -0.8031441460    2.0278016405
 H    0.8417988201   -5.4462466312   -0.0949352207