19

 C    0.0778767247   -1.2682708671    0.2363514712
 C    0.0082275733   -0.0729697490    0.1453718651
 C   -0.0552456807    1.3828510380    0.0055236255
 O   -0.7155994447    1.9002070325    1.1576475647
 C   -1.3198325993    3.1682425127    0.9761470318
 C   -0.3373486998    4.3403143634    0.9943788886
 C    0.6088257465    4.4094688204   -0.2159159138
 C    1.5979396285    3.2729325279   -0.3311641173
 C    1.3306322841    1.9719945460   -0.2327919677
 H    0.1294461982   -2.3253082390    0.3245181622
 H   -0.6803994616    1.6082443888   -0.8789739181
 H   -1.9019196753    3.1783510638    0.0379048229
 H   -2.0293892945    3.2707515140    1.8034971476
 H   -0.9250782394    5.2664672802    1.0360629382
 H    0.2494197867    4.2880203518    1.9182026891
 H    0.0050810064    4.4586607562   -1.1356813717
 H    1.1602409231    5.3543617737   -0.1770503088
 H    2.6305157301    3.5575985713   -0.5209181989
 H    2.1337877037    1.2501775145   -0.3429895804