19

 C    0.3121884227    1.5947840290   -0.3403421383
 C   -0.0304448634    0.1600307906    0.0621184635
 O    0.3902403479   -0.7476302484   -0.9651225038
 C    1.2156280100   -1.7691433813   -0.4208759471
 C    1.3825824916   -1.4176699670    1.0356954826
 C    2.2519613201   -2.2168169388    1.9705172433
 C    1.8762401123   -3.6291740855    2.0387617207
 C    1.5594315323   -4.7873943540    2.0819647241
 C    0.6657552948   -0.3315138081    1.3029620248
 H    1.3951626552    1.7195877841   -0.4319958378
 H   -0.1487430918    1.8331284393   -1.3030213568
 H   -0.0617149373    2.3049610372    0.4050170029
 H   -1.1257684184    0.0811220005    0.1744872343
 H    0.7446598519   -2.7561170683   -0.5493348101
 H    2.1779825085   -1.7996324297   -0.9570477578
 H    3.3002238700   -2.1482168941    1.6435388978
 H    2.2147190733   -1.7753333259    2.9730047260
 H    1.2820235133   -5.8113848177    2.1260499950
 H    0.5703920669    0.1576324982    2.2649591767