16

 C    0.0988999728    1.5286183725    0.0081213874
 C   -0.0547682479    0.0095340073    0.0028511380
 C   -1.4678839656   -0.5059111046    0.0129821517
 N   -2.4202579600    0.3639263230    0.0243043567
 O   -3.7348115692   -0.1077353576    0.0337710272
 C   -3.9839483788   -1.4216652050    0.0310930727
 C   -3.0420505604   -2.3834056798    0.0195434022
 C   -1.6518479521   -1.9905481132    0.0090425728
 O   -0.6913565418   -2.7450711044   -0.0017465793
 H    1.1594688144    1.7944529204    0.0000824394
 H   -0.3759875640    1.9809010608   -0.8664727634
 H   -0.3607083435    1.9732158084    0.8947399892
 H    0.4400925102   -0.4382621871   -0.8683768026
 H    0.4552635474   -0.4458735245    0.8612753456
 H   -5.0542423736   -1.6009457133    0.0395824150
 H   -3.3139280278   -3.4308937328    0.0180718472