23

 C    0.0332807925    1.5577113296   -0.0334659986
 C    0.0092971642    0.0276933526   -0.0037720934
 C   -1.4116810037   -0.5457967964    0.0227882175
 C   -1.4558837840   -2.0687453513    0.0127468646
 C   -2.8717618517   -2.6482914714    0.1280226303
 C   -2.8197608089   -4.1629522223   -0.0909456173
 O   -2.1450971892   -4.4685067496   -1.3041866994
 C   -0.8582717485   -3.9118669340   -1.3132024511
 O   -0.8659567550   -2.5140579694   -1.2127603150
 H    1.0587443057    1.9398526619   -0.0503471322
 H   -0.4796797642    1.9441448400   -0.9212858126
 H   -0.4653366388    1.9825001614    0.8454112985
 H    0.5331563372   -0.3725272669   -0.8778973266
 H    0.5594472694   -0.3317975684    0.8763228908
 H   -1.9421302299   -0.1928444516    0.9171634270
 H   -1.9769853226   -0.1796356111   -0.8439718741
 H   -0.8471712241   -2.4566434282    0.8512575359
 H   -3.3005306097   -2.4196726112    1.1104662532
 H   -3.5086929939   -2.1915051894   -0.6377028238
 H   -2.3030904235   -4.6485975764    0.7552018629
 H   -3.8193967046   -4.5977869869   -0.1708545106
 H   -0.2600828877   -4.3425004112   -0.4855495758
 H   -0.4067309590   -4.1628315899   -2.2752829704