23

 C   -0.1063310450    1.5394512895   -0.0490072990
 C    0.0526241510    0.0204826867   -0.0179603588
 C    0.9914493506   -0.5640320955   -1.1048355903
 C    2.4121403708   -0.3354323375   -0.5042198166
 C    1.9028737443   -1.3612699379    0.5491654639
 C    1.1485498353   -2.0390141624   -0.6325793294
 C    0.7783972282   -0.5771993682    1.2212904202
 C    0.9731292773    0.1377137446    2.5280153121
 C    0.0694613282   -1.0754125371    2.4464977531
 H    0.8549831595    2.0539245469    0.0442137831
 H   -0.5695586261    1.8589091602   -0.9891166483
 H   -0.7485780060    1.8909796354    0.7656906125
 H   -0.9423384910   -0.4313738464   -0.1202517963
 H    0.7561880083   -0.3122743236   -2.1402179352
 H    3.2013653275   -0.7412389861   -1.1417543713
 H    2.6860311749    0.6647739561   -0.1586120245
 H    2.5807503582   -1.9123763728    1.2032330511
 H    0.2419712211   -2.6076617427   -0.4045289270
 H    1.8107552558   -2.6209079203   -1.2782048806
 H    1.9284180445    0.0292594691    3.0330441497
 H    0.5093255567    1.1083215319    2.6695137567
 H   -1.0018125364   -0.9141492431    2.5228734512
 H    0.4105581723   -1.9999355172    2.9028433034