16

 O    0.0179944203   -0.0385791329    0.0036311960
 C   -0.0006296136    1.1690677083    0.0101228621
 N   -1.0962949762    1.9860874859    0.0286458208
 C   -0.8518030319    3.4226516804    0.0324816099
 C    0.6710293382    3.5147651120    0.0120028516
 C    1.4390474095    4.5887331088   -0.7392790044
 C    1.4595973356    4.5822552179    0.7510039714
 C    1.2107300453    2.1271994505   -0.0016723790
 O    2.3668885627    1.7917794827   -0.0191343386
 H   -2.0251530028    1.5946339427    0.0392293071
 H   -1.3064175444    3.8992411356   -0.8453033556
 H   -1.2820399175    3.8903610802    0.9271749145
 H    2.3276530640    4.2520317559   -1.2623285087
 H    0.8516649279    5.3451299619   -1.2487992677
 H    0.8866140415    5.3341608600    1.2830707259
 H    2.3622502414    4.2411189000    1.2463999046