19

 C    0.0700830568    1.5306625385    0.0315856780
 C   -0.0173038272    0.0193344649   -0.0076671356
 C    0.3388138931   -0.6854223758   -1.3647683681
 C   -0.9412586527   -1.5331229733   -1.2413589013
 O   -0.7538769508   -2.6817667270   -0.3811996563
 C   -1.1654179782   -1.9380087868    0.7941269829
 C   -0.0021669176   -1.5951299921    1.7123241314
 O    0.7038301092   -0.5158888184    1.1046469488
 C   -1.4170560531   -0.6734498931   -0.0413770489
 H    1.1152155521    1.8506791230   -0.0293910917
 H   -0.4749171696    1.9779951421   -0.8051929757
 H   -0.3481419162    1.9142625299    0.9674754263
 H    0.2887668425    0.0098658603   -2.2089919492
 H    1.2825229364   -1.2334080877   -1.3891006792
 H   -1.5234903175   -1.7765236717   -2.1319441884
 H   -2.0022794395   -2.4256332191    1.3037633832
 H   -0.3713844384   -1.2907753658    2.7034589044
 H    0.6713044238   -2.4505306374    1.8384750242
 H   -2.3356177731   -0.0968016906    0.0365263854