19

 C    0.9282005342    1.1942527043    0.1246173830
 C   -0.1557180032    0.1482379716   -0.1649387452
 C    0.1739353157   -0.6647174624   -1.3951638829
 O    1.1971774893   -1.6636982961   -1.2793752472
 C   -0.1319556450   -2.0904566684   -1.6016398447
 C   -0.8138748513   -2.9698952501   -0.5867151680
 O   -0.3783786595   -4.3300478355   -0.7292095497
 C    0.7609028165   -4.6770889011   -0.0888235954
 O    1.2308054563   -5.7705943142   -0.1738683840
 H    1.8940339206    0.7097143809    0.2947457287
 H    1.0437457423    1.8872652394   -0.7156189713
 H    0.6787539671    1.7822788022    1.0121700133
 H   -0.2753600206   -0.5071848954    0.7026859803
 H   -1.1216972687    0.6435653144   -0.3273354641
 H    0.2665718686   -0.0659974329   -2.3049625540
 H   -0.2475915610   -2.4432745916   -2.6277889282
 H   -0.6249807942   -2.6181609941    0.4316889627
 H   -1.8938296271   -2.9916596936   -0.7557386826
 H    1.1867270501   -3.8518676475    0.5107130194