21

 C   -0.1071402081    1.5650315869   -0.0666531045
 C    0.0132973760    0.0386350034   -0.0568512520
 C    0.7836603287   -0.5372262646   -1.2694414775
 C    1.0827859115   -2.0355457858   -1.0747598633
 C    1.9329908912   -2.6189920542   -2.1773100508
 C    1.7261318472   -3.9793064019   -2.6873066385
 O    1.2740812229   -2.8438815349   -3.4286909004
 C   -0.0516177515   -0.3071586658   -2.5191879363
 O    0.1517317081    0.5523690070   -3.3363439467
 H    0.8804825375    2.0366303050   -0.0305858875
 H   -0.6081072564    1.9256547216   -0.9696952203
 H   -0.6774038732    1.9143820276    0.7992634995
 H    0.5246720648   -0.2865823343    0.8573548717
 H   -0.9863065984   -0.4163040953   -0.0208679250
 H    1.7186412275    0.0212972135   -1.3976440213
 H    1.5947623655   -2.1755260076   -0.1143753951
 H    0.1407004530   -2.5955951512   -1.0175524662
 H    2.9291431236   -2.1845103356   -2.2809313191
 H    2.5558039187   -4.5260616390   -3.1326438557
 H    0.9411998103   -4.5988899285   -2.2550909219
 H   -0.9328207090   -0.9858555161   -2.6031219190