15

 C    0.0585886135    1.4533710016    0.0091725260
 N    0.1512094764    0.0064596841   -0.0619709744
 C    0.6239021272   -0.6442163948    0.9096481388
 O    1.0892158440   -0.1126556974    2.0983746621
 C    1.5453941132   -1.1542789074    2.9541661658
 C    1.3130886099   -2.4239596329    2.1616779114
 C    0.7767027609   -2.0986445459    0.9772159403
 C    1.6355777971   -3.7096350483    2.6578245477
 N    1.9122346255   -4.7453065419    3.0967888028
 H    0.6226201770    1.8846128389   -0.8258393797
 H   -0.9873381335    1.7475729865   -0.1351263740
 H    0.4235715489    1.8874451673    0.9459728795
 H    2.6050589452   -1.0001052433    3.1926309520
 H    0.9764982765   -1.1386971432    3.8920574671
 H    0.4870723182   -2.7566548335    0.1724633147