15

 O    0.1660245476    1.2006962902   -0.6030381062
 C    0.0008529753   -0.0076492849    0.1312743579
 C   -1.4059817168   -0.5241970211    0.1245011493
 N   -2.0920669310   -0.8341016647    1.1911824949
 C   -3.3203156082   -1.2929655266    0.7364736985
 C   -3.3793668994   -1.2536696103   -0.6206656016
 N   -2.1476689760   -0.7564702697   -1.0324559005
 C   -1.7666278330   -0.5228666064   -2.3627920775
 O   -2.4727464155   -0.7878076688   -3.2982046706
 H   -0.3687945207    1.8798214426   -0.1772878378
 H    0.6842241655   -0.7240918512   -0.3379304813
 H    0.2943760623    0.0934651039    1.1825221729
 H   -4.0835650032   -1.6163144549    1.4272496953
 H   -4.1371192259   -1.5039372048   -1.3423130631
 H   -0.7726304010   -0.0596969134   -2.4356345801