19

 C   -0.0838770098    1.5392648486   -0.0213902739
 C    0.0553525929    0.0197781881   -0.0011270561
 O   -1.2345451176   -0.6010946314   -0.0663549323
 C    0.8270708746   -0.5500771593   -1.2144466207
 C    1.2203185840   -1.9613340952   -0.7644728076
 O    2.2698590130   -2.5518727510   -1.4814615737
 C    1.5806383482   -1.7481504133    0.7052347231
 O    2.4070655105   -2.4097574226    1.2842012809
 C    0.8397662973   -0.5204883853    1.2244766875
 H    0.8941388586    2.0301248053   -0.0188838086
 H   -0.6309012903    1.8548453672   -0.9144730264
 H   -0.6357927428    1.8916025302    0.8586418421
 H   -1.7567157636   -0.2837792794    0.6783630379
 H    0.2084311064   -0.5335249151   -2.1132280780
 H    1.7349215335    0.0341285370   -1.3995356120
 H    0.3159879761   -2.5939635520   -0.7811751674
 H    2.8157961338   -3.0026183304   -0.8201716434
 H    1.5850587147    0.1949252472    1.5910411396
 H    0.1888098405   -0.7676370588    2.0685231592