19

 O   -0.0907501804    1.4967452374    0.0422389317
 C    0.0056937004    0.0813537096    0.0248543327
 C    0.7422980131   -0.4866789399    1.2464240506
 C    0.4764644072   -1.9845989752    1.3838208819
 C   -0.0711759101   -2.7926350812    0.1640819994
 O   -0.6328587720   -3.7813338684    1.1031747062
 C   -0.9723125490   -2.4594430170    1.6695527975
 C   -1.4031086516   -1.9828327023    0.2569191563
 C   -1.4104123845   -0.4880042655   -0.0527537844
 H    0.8016166281    1.8574414243    0.0575576747
 H    0.5486914079   -0.2496235036   -0.8771605706
 H    1.8189101315   -0.2944696918    1.1586974371
 H    0.3989616661    0.0402432926    2.1460719047
 H    1.2262134708   -2.5302138331    1.9600491110
 H    0.4534800926   -3.1792415487   -0.7110982390
 H   -1.5325564991   -2.4375835080    2.6061877949
 H   -2.2651843082   -2.5291615045   -0.1303107761
 H   -2.0469997770    0.0439935666    0.6655708862
 H   -1.8306136759   -0.2963701913   -1.0451264649