22

 C   -1.9705713099    1.8864347933   -0.3027450663
 C   -1.2993865422    0.5478726742   -0.6092772501
 C   -1.7336179007   -0.5621221074    0.3489027595
 O   -2.2934293974   -0.2965437905    1.3916874046
 C   -1.4240176994   -1.9994124271    0.0045717827
 C   -1.4583961087   -2.9728200824    1.1693484735
 C   -0.2866275723   -2.7803106538    2.1378237841
 C   -1.8485582609   -2.4618830479   -1.3600644561
 N   -0.4318836476   -2.3150167180   -1.0469223527
 H   -1.5840580066    2.6708987103   -0.9590189215
 H   -3.0531308821    1.8217288372   -0.4436778979
 H   -1.7943696125    2.1748684147    0.7352423434
 H   -1.4760743249    0.2531605845   -1.6506049764
 H   -0.2076325208    0.6423391322   -0.5107006991
 H   -2.4078124618   -2.8460985158    1.6977926445
 H   -1.4367480581   -3.9890537660    0.7625911573
 H   -0.3171925018   -3.5268735597    2.9369926761
 H    0.6677541071   -2.8856466421    1.6123969055
 H   -0.3204805475   -1.7915439100    2.6039207183
 H   -2.1992650159   -3.4851826277   -1.4629401872
 H   -2.3233582822   -1.7524315729   -2.0325360879
 H   -0.0604454740   -1.4690363851   -1.4700286542