19

 O   -0.2256388836    1.3226655774   -0.2178583421
 C   -0.0064903358   -0.0649961483   -0.0521579490
 C    0.2742511165   -0.5005404857    1.4174360172
 C   -1.2036073613   -0.9593615776    1.5724693159
 C   -1.3873780379   -0.8088312817    0.0315877796
 O   -2.5272875773   -0.1233916756   -0.4175540223
 C   -1.1328056867   -2.0504044169   -0.7791148852
 C    0.0443978885   -2.0184789528   -1.4051401190
 C    0.8224442084   -0.7439678957   -1.1567121173
 H    0.5394545361    1.8035071971    0.1127161166
 H    0.9975377795   -1.3165389864    1.4847019144
 H    0.5951254862    0.3080806241    2.0800491412
 H   -1.3749713415   -1.9502569231    1.9995751649
 H   -1.8192085104   -0.2308566393    2.1064114504
 H   -2.3272475876    0.8170321407   -0.3168425043
 H   -1.8574820479   -2.8550714038   -0.8362951613
 H    0.4247364541   -2.8081692228   -2.0449518663
 H    0.8638232373   -0.1158762510   -2.0560762519
 H    1.8586208233   -0.9347483185   -0.8488837915