21

 C   -0.2315516678    1.3095802543    0.0200068418
 O   -0.0805689850   -0.0905039257   -0.0110728643
 C    0.6573429351   -0.5480890736   -1.1268651648
 C    0.6732934251   -2.0757468803   -1.0869792495
 C    1.4024148570   -2.5949338124    0.1650887384
 N   -0.7146584832   -2.5231327746   -1.2382498386
 C   -0.9050504126   -3.9630386829   -1.2923765888
 C   -2.3017321049   -4.2914374277   -1.6011252301
 N   -3.4036483634   -4.5585378926   -1.8211148065
 H    0.7415807616    1.8210915955    0.0820416294
 H   -0.7599564600    1.6814240928   -0.8712272225
 H   -0.8176931080    1.5561643414    0.9084008291
 H    0.1856016218   -0.2100210951   -2.0620758177
 H    1.6870518554   -0.1552835046   -1.0969511143
 H    1.2194402423   -2.4127522320   -1.9793975569
 H    0.9055333838   -2.2399044300    1.0719423951
 H    1.4370178270   -3.6879346854    0.1891472564
 H    2.4368749519   -2.2360243691    0.1822136898
 H   -1.2789860768   -2.1102616763   -0.5028672255
 H   -0.2752932321   -4.3716529873   -2.0934331526
 H   -0.6329180170   -4.5126308444   -0.3743079579