16

 N    0.2940802133    1.2552012037    0.5153127845
 C    1.0278341085    2.3371324416    0.0944638988
 C    1.2452161642    2.9312502999   -1.1096656369
 N    0.8633506473    2.7212288474   -2.3943062896
 C    0.9329342351    1.6987401292   -3.1683932840
 C    1.4247398829    0.3421841955   -2.9578015198
 N    1.0959274163   -0.5745960694   -2.1205838733
 C    0.1552344857   -0.6363539830   -1.1451299842
 C   -0.1931103112    0.1078595829   -0.0611735430
 H    0.0527681191    1.3192221306    1.4913478115
 H    1.3881473664    2.9092708725    0.9434408299
 H    1.7406044072    3.8958050106   -0.9998415847
 H    0.6730138952    1.8962182993   -4.2152361350
 H    2.1348633900    0.0253659652   -3.7309691876
 H   -0.3636662264   -1.5946641688   -1.1599672177
 H   -0.9235492437   -0.3660673871    0.5867330111