20

 C   -0.3968766737    1.6115174148   -0.1858458994
 C    0.0668281868    0.1565346296   -0.0604912776
 C   -1.1174591117   -0.8023159066    0.1664353778
 C    0.8773160201   -0.2886049283   -1.2450737790
 N    1.0222142562    0.4291915936   -2.3477314384
 N    1.8077443705   -0.3735255083   -3.1123432385
 C    2.1029823040   -1.5188930280   -2.4583312323
 C    2.9487667110   -2.6134221077   -3.0166883392
 N    1.5270952632   -1.4957513957   -1.2706974768
 H    0.4492603644    2.2914549232   -0.3149357786
 H   -1.0549339546    1.7387632202   -1.0506243899
 H   -0.9483141288    1.9097844277    0.7112350311
 H    0.7258103375    0.0712728939    0.8142055441
 H   -1.8281523392   -0.7423416711   -0.6652713318
 H   -0.7707752574   -1.8355856847    0.2453033008
 H   -1.6503607020   -0.5419630048    1.0866637079
 H    2.0888461713   -0.0691630831   -4.0296342005
 H    3.9558189136   -2.2599895030   -3.2627952347
 H    3.0315491708   -3.4060974941   -2.2726572413
 H    2.5119232977   -3.0358595275   -3.9279968737