18

 O   -0.0553219044    1.3856608027   -0.0429637583
 C    0.0114806753   -0.0251205889    0.0095400965
 C    0.1506737554   -0.6176245713    1.4398051174
 C   -1.3889799767   -0.4374899428    1.5829554186
 C   -1.4152180334   -0.6172447931    0.0356777057
 C   -1.3275630912   -2.1147637810   -0.2852587970
 O   -0.6212691727   -2.8252775111    0.7251189104
 C    0.4622148033   -2.1152582078    1.3098782620
 H    0.8076872782    1.7338190208    0.2042830413
 H    0.7001519631   -0.4182765993   -0.7551945709
 H    0.8310283152   -0.1243983580    2.1407906274
 H   -1.9316559618   -1.1643278666    2.1903943387
 H   -1.6503701094    0.5798197017    1.8710826171
 H   -2.1763627242   -0.1131589372   -0.5638462288
 H   -2.3246975372   -2.5664986159   -0.3208597303
 H   -0.8553785779   -2.2622274309   -1.2711849042
 H    1.3866281072   -2.2573818830    0.7236271410
 H    0.6182042512   -2.5716658584    2.2934091534