23

 C   -0.0547267814    1.4879319975    0.1227103559
 C    0.0405614855   -0.0151553623   -0.0151267648
 C    0.7112515678   -0.7107229780   -1.2002214621
 C    0.0459181578   -1.9618846585   -1.7516770266
 C    1.3716940226    0.1231059431   -2.2857110438
 C    1.3667537662   -0.7405344875    0.1603861571
 O    2.5282465810    0.0385064504    0.2872643602
 C    1.4589110324   -1.9830288892    1.0121031786
 O    1.7133542292   -1.5290817980    2.3459439652
 H    0.9081563748    1.9667093373   -0.0659267923
 H   -0.7917019498    1.9119150734   -0.5685355323
 H   -0.3621448123    1.7584715827    1.1389151815
 H   -0.8227678303   -0.5502123157    0.3766846507
 H   -0.6820684207   -1.6887717545   -2.5249255167
 H    0.7783580101   -2.6337110017   -2.2154782289
 H   -0.4921197510   -2.5273268606   -0.9864417158
 H    1.9401095844    0.9591714930   -1.8804082165
 H    2.0656092458   -0.4934889819   -2.8688654046
 H    0.6175898923    0.5141942959   -2.9787525352
 H    2.6944306791    0.0841306744    1.2382473711
 H    0.5323956106   -2.5689777686    0.9706902381
 H    2.2864703990   -2.6152011376    0.6575378361
 H    2.0688887967   -2.2631086638    2.8542907152