19

 O   -0.0835337658    1.5016215851    0.0289056639
 C   -0.0146571527    0.1102054057    0.0044591850
 C   -1.3045808609   -0.7579896672   -0.0515402118
 C   -2.5313303749   -0.0606959656   -0.6553621309
 C   -2.5361948393   -0.0159075342   -2.2006930900
 C   -1.2744573285    0.4602712901   -2.8885833623
 C   -0.0182524309    0.1611152754   -2.5384357666
 C    0.3390102249   -0.6388594666   -1.3172026908
 O   -0.6507041693   -1.6471186449   -0.9946760458
 H   -0.3945907982    1.7891564496   -0.8404790512
 H    0.6335684359   -0.1971324424    0.8277171989
 H   -1.5649969633   -1.2875959708    0.8705441273
 H   -3.4457136949   -0.5682827013   -0.3309380622
 H   -2.5771846524    0.9554068072   -0.2437170046
 H   -2.7540110986   -1.0250783783   -2.5713967115
 H   -3.3742225858    0.6108704269   -2.5237808308
 H   -1.4248095757    1.0509527523   -3.7899963026
 H    0.8085181581    0.5414298925   -3.1333773338
 H    1.3412066924   -1.0712305236   -1.3971457402