15

 O   -0.2407054440    1.4418809628   -0.0286660470
 C   -0.1712433822    0.0437619827    0.0093044391
 C   -0.4910122940   -0.7758476083    1.2391130997
 C   -1.5875773156   -0.0820876623    2.0568302731
 C   -2.5326662389   -0.1107376476    0.8132755908
 C   -1.4142582182   -0.7776547026    0.0042973171
 O   -1.6208078392   -1.8067821058   -0.8988491935
 H    0.4828991922    1.7910358611    0.5025253248
 H    0.6210624532   -0.3927913580   -0.6012217077
 H    0.1907834183   -1.5363981269    1.6015531532
 H   -1.9563352240   -0.6945687664    2.8814330156
 H   -1.3336493158    0.9110632033    2.4364875070
 H   -3.3738917721   -0.7922707035    0.9544601418
 H   -2.8954600580    0.8503854119    0.4403932670
 H   -1.7000236018   -1.4247073102   -1.7801184610