19

 O   -0.0978386557    1.4755856579   -0.0627418420
 C    0.0229485304    0.0673024842    0.0746740961
 C   -1.3765988636   -0.5286857529    0.0157566891
 C   -2.0883124694   -0.3316215585   -1.3632026599
 C   -2.3568082206   -1.7807774356   -1.7467450834
 C   -2.7325795065   -2.5970599112   -0.4746144286
 O   -2.0633286947   -3.7960364367   -0.9969905451
 C   -1.1621244649   -2.6769490367   -1.3050717691
 C   -1.3952000938   -2.0527254770    0.1057390448
 H    0.7848082188    1.8569911753   -0.0601389790
 H    0.6424038442   -0.3591766086   -0.7324517320
 H    0.5023755327   -0.1999402615    1.0302943425
 H   -1.9622824160   -0.0797895881    0.8259734466
 H   -3.0084624706    0.2533256045   -1.2771537547
 H   -1.4448780608    0.1851641192   -2.0817870718
 H   -2.8615434987   -2.0250679375   -2.6808869743
 H   -3.6997498969   -2.7224364680    0.0142913498
 H   -0.2306765038   -2.9050886084   -1.8248264042
 H   -0.9671724701   -2.5600267104    0.9704429351