21

 C    0.1722322144    1.7307250599    0.0885403105
 C    0.0773592802    0.2218359176    0.0420617061
 C    1.2124394985   -0.6954733025   -0.3653773783
 C    2.6285337146   -0.2276884691   -0.6920335110
 C    3.4838063102    0.2161600285    0.4781129335
 O    3.1339389780    1.4369084483    1.1439245471
 C    2.9893325079    0.2045923149    1.8625507745
 C    1.5886608492   -0.2520177531    2.2194268965
 C    0.7023697784   -0.7074014833    1.0627237186
 H    1.1467309042    2.0713453001    0.4394685068
 H   -0.0005652226    2.1566988255   -0.9068817330
 H   -0.5943329991    2.1428278584    0.7554180026
 H   -0.8935436087   -0.1239011251   -0.3075972461
 H    0.9111222596   -1.5422545655   -0.9751876602
 H    3.1577234026   -1.0649630615   -1.1631402902
 H    2.6177102021    0.5761901497   -1.4398600621
 H    4.5577664255    0.1143839904    0.3164161798
 H    3.7184100299    0.0947470292    2.6664628908
 H    1.7041177997   -1.0989776271    2.9066976022
 H    1.1023015588    0.5407301560    2.8030259771
 H    0.0874053065   -1.5615177712    1.3310584747