17

 C    0.0736159740    1.5104443447   -0.0034000075
 N    0.0583815994    0.0600829712    0.0319143651
 C    0.5453423954   -0.5965985330   -1.1778580234
 C    1.0947172727   -1.9526068835   -0.7076626860
 O    1.2297346849   -2.9321634125   -1.3950941469
 C    1.3567869161   -1.8316452811    0.7576818247
 C    2.2185818693   -0.6344468928    1.1757002843
 C    0.7207462958   -0.5308875917    1.1763979173
 H    1.0855885942    1.9370755189   -0.1327200966
 H   -0.5514899525    1.8656950374   -0.8286185052
 H   -0.3439214174    1.9049336819    0.9284200490
 H   -0.2466914758   -0.7396361372   -1.9195872240
 H    1.3621459821   -0.0432599861   -1.6779369700
 H    1.3626427201   -2.7288640094    1.3621015522
 H    2.7286855941   -0.7401176429    2.1266678091
 H    2.7909776735   -0.1165286433    0.4136853711
 H    0.1898250941   -0.4375348107    2.1184687667