16

 C    0.9871351763    1.4961201784    0.4071113985
 N    0.2797110151    0.2276475288    0.2631198770
 C    0.2457842127   -0.5908093966    1.4538937740
 C   -1.1221345810   -1.2406929017    1.6355139487
 O   -2.0781105113   -0.9509218276    0.9618029094
 C    1.3014992405   -1.7235552029    1.5018451702
 N    1.9520467568   -1.9020875070    0.3316087270
 O    1.4662769714   -2.3734567949    2.5164082469
 H    2.0497606938    1.3100014963    0.5957593166
 H    0.9081461384    2.0620167664   -0.5250720696
 H    0.6052795721    2.1260222332    1.2276667954
 H   -0.6780371476    0.3696735925   -0.0465855907
 H    0.4138798466   -0.0222646318    2.3861597144
 H   -1.1619656186   -1.9984448171    2.4397758879
 H    1.6804962925   -1.3292310782   -0.4535345164
 H    2.6199035725   -2.6486339378    0.2415409807