15

 O   -0.9071719050    1.6019884661   -0.5778830239
 C    0.1790199849    1.1058388771   -0.4588724061
 C    1.4625778375    1.8844080153   -0.1286824748
 O    2.5023507156    1.2600467919   -0.0356771904
 C    1.3302399539    3.2967667486    0.0446939888
 C    1.2146534905    4.4931720945    0.1908400903
 C    1.0807009250    5.8988908389    0.3629923859
 C    1.9646797893    6.6209786944    1.3800016373
 C    2.2165140116    6.8232937555   -0.0757734379
 H    0.3813079201    0.0198320213   -0.5747579314
 H    0.0743085353    6.2868970406    0.2428209028
 H    1.4914912281    7.4154160957    1.9451979833
 H    2.6606229010    6.0104766448    1.9419488004
 H    3.0860564206    6.3522904945   -0.5172333904
 H    1.9202564916    7.7598927809   -0.5334873238