22

 C   -0.0830384854    1.5992831998   -0.0723175628
 C   -0.0456252752    0.0615144648   -0.0441300494
 C   -1.4645218218   -0.5075526430    0.0863382984
 C    0.7199739992   -0.5109279434   -1.2672706890
 C    0.7550494178   -2.0440284037   -1.2874318805
 O    0.1139100569   -0.1226759734   -2.5078048063
 C    2.1967119253   -0.0405153871   -1.1985316669
 N    2.6939957215    0.4175624995   -2.3780868728
 O    2.8439222445   -0.1036990836   -0.1689801832
 H    0.9167369100    2.0309088787   -0.1729983313
 H   -0.7134246712    1.9842458634   -0.8860766316
 H   -0.5172798360    1.9828217585    0.8555578237
 H    0.5468963765   -0.2320412879    0.8278943440
 H   -2.0338917790   -0.3541314186   -0.8367406760
 H   -1.4622277900   -1.5779242870    0.3063667036
 H   -1.9997730279   -0.0067831622    0.8991280215
 H   -0.2530201171   -2.4493432167   -1.3908638837
 H    1.3481384856   -2.3924561318   -2.1380850051
 H    1.2111313759   -2.4212636766   -0.3695838091
 H   -0.1051336438    0.8138126674   -2.4488898310
 H    2.1398552838    0.3180838112   -3.2120611982
 H    3.6801415405    0.6098587216   -2.4401342243