16

 O   -0.6927707940    0.6312266688    0.6728462383
 C    0.1201867201    0.8932963517   -0.1750561271
 C    1.2867104752    1.8451301945    0.0376346135
 C    1.3721972377    2.9023243527   -1.0678252098
 C    2.5805307823    3.8366857079   -1.1887107852
 C    3.7917660793    3.1329759030   -1.6283898191
 N    2.7772862114    3.4908198546   -2.6707118436
 C    1.7295894661    2.4943049929   -2.5142115870
 O    1.3062615251    1.7113567098   -3.3053585819
 H    0.0692357593    0.4433579917   -1.1894266318
 H    1.1806280831    2.3089981969    1.0226595366
 H    2.2037195984    1.2403397220    0.0452848131
 H    0.4438417153    3.4848063965   -1.1031301743
 H    2.5880347721    4.8746672496   -0.8799881053
 H    4.7069965052    3.7048304721   -1.7378831724
 H    3.9439977031    2.0828228852   -1.3926618341