19

 C   -0.0569358577    1.5595843869   -0.0529399979
 C    0.1416126895    0.0588012237    0.0446111142
 C    1.4063992316   -0.7180184318   -0.2047253442
 O    1.5797894456   -1.6958986012   -1.1663623777
 C    2.6302072719    0.0118668161    0.3282798015
 C    2.0042159483   -0.0629609636    1.7705234904
 O    1.7693357107    1.1304798113    2.4935529165
 C    0.7653913604   -0.7265284550    1.1962057315
 O    0.0809645545   -1.7483850120    1.8348562217
 H    0.7631552392    2.1061669470    0.4136693144
 H   -0.1390464741    1.8748289498   -1.0994747246
 H   -0.9777767239    1.8623813120    0.4580419965
 H   -0.7141431329   -0.5156620877   -0.3183662727
 H    0.7309887812   -2.1214013008   -1.3281050469
 H    3.5397082719   -0.5855135611    0.2350518004
 H    2.8100997540    1.0166458257   -0.0638067689
 H    2.5537526458   -0.7899367330    2.3829250027
 H    2.6080344396    1.4348363155    2.8547833243
 H   -0.6326350855   -1.3588150319    2.3527262490