11

 O   -0.0480969084   -0.0298948383   -0.0016428106
 C    0.0232165690    1.1744364195    0.0066110033
 C    1.2654724338    1.9646610993   -0.0006227750
 N    2.4780822910    1.3943270367   -0.0180533321
 N    3.3223904137    2.4253440332   -0.0191663276
 C    2.7102029708    3.6398661941   -0.0031355052
 C    1.3603032091    3.3798245180    0.0094654633
 H   -0.8928456217    1.8083194912    0.0209011176
 H    4.3125208891    2.2390402770   -0.0313918519
 H    3.2733695622    4.5592382818   -0.0020417582
 H    0.5549447314    4.0962592675    0.0237688364