21

 C    0.0744306843    1.4456037794    0.1506658729
 C   -0.1263305999   -0.0382209830    0.4045850995
 O    1.1047393424   -0.5847973651    0.8569927008
 C    1.0295205452   -1.9475002475    1.1342023551
 C    2.1467330733   -2.5391284945    1.9603188597
 C    0.7688367612   -2.4084944366    2.5372289628
 C    0.2933248405   -1.6053904723    3.7395091596
 C   -0.6203098913   -2.8280911246    3.9819767201
 O   -0.0544442659   -3.5327782101    2.8499357409
 H    0.8554322521    1.6033590272   -0.5984318140
 H   -0.8527494371    1.8992852399   -0.2119797577
 H    0.3748399406    1.9562895805    1.0701244511
 H   -0.9166224679   -0.2047520291    1.1527840206
 H   -0.4443518582   -0.5506950037   -0.5180056125
 H    0.6274206294   -2.5661319754    0.3290501982
 H    2.4985157118   -3.5280763097    1.6864109072
 H    2.9071922737   -1.8580308680    2.3294735098
 H    1.0489959971   -1.4355875575    4.5089854302
 H   -0.2092950352   -0.6634363859    3.5145684029
 H   -0.4584603434   -3.3729195582    4.9181477080
 H   -1.6936066827   -2.6477179259    3.8501606949