15

 C   -0.0411306019    1.4739165785    0.0432257946
 C   -0.0150322262    0.0195212390    0.0280714420
 C    0.0223305503   -1.1824182345    0.0134364640
 C    0.0340368649   -2.6440809666   -0.0006528161
 C   -1.4162164162   -3.2040036346   -0.1589108380
 C   -1.4823853876   -4.6539277682   -0.0017598857
 N   -1.5292007199   -5.7988537032    0.1427263436
 C    0.9108928039   -3.1575540522   -1.0671019759
 N    1.5922907285   -3.5590714931   -1.9082070207
 H    0.6099532382    1.8829403068   -0.7362539759
 H   -1.0535003548    1.8521855024   -0.1326522397
 H    0.3013863189    1.8644928968    1.0070263651
 H    0.4319934739   -3.0179329573    0.9518113766
 H   -2.0447436387   -2.7300789529    0.6003140292
 H   -1.8106334833   -2.9189569909   -1.1380874232