19

 C    0.2567609182    1.5897337955   -0.3549654370
 C    0.1078243224    0.1555114184   -0.1534383050
 C   -0.0280501577   -1.0303024632    0.0119719916
 C   -0.1466043904   -2.4786232512    0.1954843522
 O    0.4270418807   -3.1706492225   -0.9211131845
 C    0.5100432037   -2.9763649510    1.5269823264
 C   -0.4154017408   -4.0711477147    1.9902550785
 C   -1.5635679578   -4.0736247416    1.3174163649
 C   -1.6169844724   -2.9871352243    0.2753100905
 H    1.0806092568    1.9957753822    0.2423809970
 H    0.4615346975    1.8231204734   -1.4056663960
 H   -0.6550993863    2.1260613358   -0.0698581099
 H    1.3056067402   -2.8020904445   -1.0641206795
 H    1.5326241535   -3.3194701007    1.3310064052
 H    0.5784636676   -2.1674828212    2.2651511066
 H   -0.1582958673   -4.7472691851    2.7979153563
 H   -2.3924118085   -4.7505489824    1.4915367374
 H   -2.3006391806   -2.1809991806    0.5661210322
 H   -1.9259105190   -3.3365716624   -0.7146259168