17

 C   -0.0559509605   -1.2113273778   -0.0848317479
 C   -0.0307616275   -0.0096690955   -0.0346783908
 C   -0.0246636160    1.4373933961    0.0003613187
 C   -0.0947148376    2.0788723298    1.4311670343
 C    1.4386679129    1.7662099138    1.5395281095
 C    1.3948845604    2.1070325182    0.0089447249
 C    1.0371601041    3.6081404538    0.0966472448
 O   -0.3129036654    3.9580746581   -0.2516236514
 C   -0.0203318256    3.5881493844    1.1063060528
 H   -0.0816182999   -2.2716206322   -0.1326753178
 H   -0.7262513268    1.8466144008   -0.7263609903
 H   -0.8192862025    1.7389372030    2.1690186277
 H    2.0400323497    2.4154679558    2.1822372341
 H    1.6526244772    0.7160833250    1.7428280064
 H    2.1719031919    1.7954842961   -0.6868743820
 H    1.7824565551    4.3859360747   -0.0280827927
 H   -0.1946133594    4.3485597160    1.8595607896