18

 C   -0.2388942997    1.5321921852    0.0443210022
 C    0.0799032676    0.0589894796   -0.0222887034
 C   -0.6589890565   -0.9226160765    0.8631109638
 C    0.8281906891   -0.6846178211    1.0738320525
 O    1.7305765330   -1.6095224437    0.5317596769
 C    1.3963819216   -1.7927694984   -0.8493837564
 C    0.6717855068   -0.5115406711   -1.3068497657
 C    1.3029872293   -0.0454452839    2.2696522728
 N    1.6497600858    0.4960643921    3.2308989386
 H    0.6132260222    2.1334875358   -0.2898072299
 H   -1.0941794427    1.7730070922   -0.5965192892
 H   -0.4870387044    1.8404795461    1.0638226117
 H   -1.3321162503   -0.5047764712    1.6034613779
 H   -0.9539920340   -1.8941749655    0.4815739654
 H    2.3256463843   -1.9867088335   -1.3899574954
 H    0.7498316511   -2.6731292577   -0.9592546299
 H   -0.0810921209   -0.7233435517   -2.0721048586
 H    1.3783904476    0.2143617333   -1.7228395032