13

 C   -0.0165246756    1.5540047731   -0.0011953910
 C   -0.0181373407    0.0035813293    0.0520872665
 C    0.7275441047   -0.4986705237    1.2100868755
 C    1.3515047985   -0.8864704422    2.1593234468
 C   -1.3852323608   -0.5213720666    0.0422025522
 C   -2.5187990411   -0.9362067106    0.0197831100
 C   -3.8008386769   -1.4057415515   -0.0034645084
 N   -4.8919996202   -1.8034433366   -0.0255269902
 H    1.0139975220    1.9139974320   -0.0341916005
 H   -0.5472264105    1.8991243301   -0.8914705017
 H   -0.5047266502    1.9642286782    0.8848750945
 H    0.4765541632   -0.3640024852   -0.8590052221
 H    1.8998053975   -1.2390991663    2.9981369485