23

 C   -0.9373999751    1.1679697368    0.0444987992
 C    0.0289748500   -0.0298287333    0.0551038558
 C    0.8975997027   -0.0461726493   -1.1781927591
 C    2.1711401489   -0.4441788675   -1.2310995635
 C    2.9522030165   -0.4606269778   -2.5175575316
 C    2.9079479853   -0.9413156914   -0.0091039024
 C    2.2774586591   -0.5383203232    1.3116080531
 C    1.9556789938    0.9117516958    1.5787950909
 C    0.8410511854   -0.0806781427    1.3418677174
 H   -0.3868426401    2.1139008698    0.0709385073
 H   -1.5596630868    1.1630975845   -0.8570153621
 H   -1.6034183699    1.1417492473    0.9132343787
 H   -0.5923602544   -0.9402532222    0.0303296446
 H    0.4132427585    0.2796950187   -2.0980140543
 H    2.3458477385   -0.1280911329   -3.3643872787
 H    3.8359516541    0.1876546911   -2.4531612066
 H    3.3254488589   -1.4687780820   -2.7416811618
 H    2.9685127015   -2.0393173218   -0.0616555412
 H    3.9512914699   -0.5950848668   -0.0472100785
 H    2.6222449286   -1.1158852097    2.1645771387
 H    2.0993763578    1.2979132737    2.5819311176
 H    2.1700386896    1.6242420110    0.7885282553
 H    0.2606093871   -0.3586028380    2.2175820614