20

 C   -0.2177626993    1.5128513342   -0.7242937327
 C   -0.2417009981    0.1202052396   -0.1284440456
 C   -1.6248990965   -0.4052638237    0.2690171649
 C   -2.1603113448    0.3649485258    1.4613216496
 O   -2.6960423574    1.4510234875    1.3562807235
 C   -1.9585505545   -0.2377785531    2.8386903703
 O   -2.4192634213    0.6120016639    3.8460167575
 C    0.7980259361   -0.8563362954   -0.5451210728
 N    0.8231818149   -0.2782984243    0.8114253734
 H    0.8070975648    1.8130735722   -0.9651360406
 H   -0.8055902192    1.5513297190   -1.6478492675
 H   -0.6455103444    2.2466456423   -0.0352411260
 H   -2.3203507645   -0.2849545559   -0.5676019404
 H   -1.5472970836   -1.4675890323    0.5169827132
 H   -2.4796190690   -1.2114279798    2.8596546282
 H   -0.8842021754   -0.4623523997    2.9434293633
 H   -2.7902120308    1.3761226898    3.3758880765
 H    0.5707196813   -1.9182829349   -0.5867518871
 H    1.5428996194   -0.5269722865   -1.2651640593
 H    1.5314762621    0.4489988113    0.8699692413