18

 C   -0.3990556305    1.4353885175    0.3647262202
 N    0.1051492769    0.1109707405    0.0116279543
 C   -0.9497066744   -0.8517652331   -0.3344000815
 C   -1.4516171385   -1.4490490725    1.0013753763
 C   -0.2064789847   -1.3964874139    1.9210301023
 C    0.8315976754   -0.5320506530    1.1151929280
 C    1.9152929574   -1.3740177828    0.5792812213
 N    2.7620564377   -2.0494983367    0.1763070653
 H    0.4421145686    2.0958518380    0.5949504923
 H   -0.9241434867    1.8565641517   -0.4968372847
 H   -1.0910074521    1.4508478761    1.2256124957
 H   -1.7313149467   -0.3644569538   -0.9212352232
 H   -0.5087305345   -1.6397744076   -0.9561308906
 H   -2.2610029013   -0.8411139965    1.4153154550
 H   -1.8378768505   -2.4635463822    0.8798432629
 H   -0.4267440154   -0.9203196298    2.8785111467
 H    0.1959775882   -2.3880949099    2.1347686818
 H    1.2969202412    0.2305502281    1.7456335280