18

 C   -0.0699140178    1.5812256900    0.1389448964
 N    0.0861932406    0.1463134586    0.1500280179
 C   -1.1222648821   -0.7069585483    0.2352408334
 C   -0.4135016417   -1.5784334824    1.2895328181
 O    0.4956397136   -2.5564987560    0.7467095980
 C    1.6455006413   -1.6731977794    0.9277250444
 C    2.4943537271   -1.5361555566   -0.2378203517
 C    3.2319892531   -1.4248950778   -1.1800009091
 C    0.6974712572   -0.5050274603    1.3173389052
 H    0.9133955487    2.0618692802    0.1587458087
 H   -0.5697915724    1.8874590523   -0.7860087731
 H   -0.6631056771    1.9717399707    0.9886564160
 H   -1.9948910535   -0.1850504914    0.6607421303
 H   -1.4089754478   -1.1981805429   -0.7001151127
 H   -0.9826204940   -1.9568010553    2.1400226097
 H    2.2381531548   -2.0209129131    1.7859931723
 H    3.8720208173   -1.3229383547   -2.0212800967
 H    0.9701029527    0.1317000763    2.1620325129