22

 C    0.0293501545    1.6518672831   -0.2004429748
 C   -0.2422751228    0.1428807318   -0.0271663007
 C    0.3789932072   -0.5967363127   -1.2113048199
 O    1.7211631999   -1.0715785926   -1.0911981100
 C    0.6816417622   -2.0318078463   -1.3518193514
 C    0.4246976959   -3.1178649367   -0.3396274785
 N    0.1640240487   -0.4679415177    1.2396702814
 C    1.3759832705   -0.0506985937    1.9224975758
 C    0.0332583514    0.2391197782    2.5043226577
 H    1.1005866750    1.8674204661   -0.2537981014
 H   -0.4217619682    1.9980676883   -1.1351804392
 H   -0.4082499765    2.2445203989    0.6068023333
 H   -1.3296792555   -0.0058985744   -0.0932999659
 H    0.1908347721   -0.0652723074   -2.1493044731
 H    0.7061884634   -2.3928269206   -2.3842360949
 H    0.3382341749   -2.7068097929    0.6645601378
 H   -0.5055669508   -3.6399301176   -0.5921609799
 H    1.2344025019   -3.8553815198   -0.3719497552
 H    1.9923147861   -0.8558626704    2.3123907169
 H    1.9380715346    0.7939623745    1.5334315032
 H   -0.2916513412    1.2770634558    2.5065475680
 H   -0.3569082134   -0.3529373438    3.3282426206