19

 C   -0.1354207915    1.5726725883    0.0119986708
 C   -0.0522497247    0.0440643822    0.0029877195
 C   -1.4328497301   -0.6227982816    0.0125381903
 C   -1.3324642686   -2.1380027927    0.0034291871
 O   -2.6786632182   -2.6629134974    0.0134850750
 C   -2.7962330586   -3.9907081889    0.0072807078
 N   -1.8155837660   -4.7958589583   -0.0069715461
 C   -4.1940506811   -4.3927314460    0.0178973785
 N   -5.2827721646   -4.7803009071    0.0260406535
 H    0.8611509833    2.0239765074    0.0049541031
 H   -0.6768908735    1.9443057062   -0.8646647520
 H   -0.6600924105    1.9347993078    0.9027420069
 H    0.5070512121   -0.2881500769   -0.8812893054
 H    0.5237390262   -0.2975814265    0.8728413639
 H   -1.9960646129   -0.3071791480    0.8990087144
 H   -2.0128058160   -0.2977126140   -0.8596012737
 H   -0.8163883166   -2.5142681462   -0.8862852865
 H   -0.7995225284   -2.5237626924    0.8790255952
 H   -2.1277345505   -5.7639899259   -0.0097552924