17

 C   -0.0124652120   -1.1836310617   -0.0538538782
 C   -0.0345883418    0.0147456112    0.0342440950
 C   -0.0148588003    1.4670695290    0.1341079855
 C    1.3989167292    2.0385419027   -0.1037270294
 N    1.4152812717    3.4843866503   -0.0113741749
 C    1.9679118985    4.2570158409    0.9579661256
 C    1.6911312703    5.5683511720    0.6319862891
 C    0.9536239669    5.4800260902   -0.5658376265
 N    0.7866574882    4.2175349062   -0.9528679567
 H   -0.0125057968   -2.2426003232   -0.1315393419
 H   -0.6918519650    1.9141622155   -0.6016468692
 H   -0.3684849666    1.7845040085    1.1226307050
 H    2.0982050604    1.6454731994    0.6374667542
 H    1.7516496379    1.7449272617   -1.0956391275
 H    2.5091743752    3.8194454282    1.7821751918
 H    1.9840807458    6.4518979799    1.1750176247
 H    0.5425028685    6.2801341793   -1.1639910864