16

 C    0.1029953230    1.3841719418    0.0970175815
 C   -0.4379448277    0.0399133722   -0.3612713719
 O   -0.7386378636   -0.1945943763   -1.5145777269
 N   -0.5505523943   -0.8839491578    0.6575238835
 C   -0.9849202689   -2.2149647649    0.6072163798
 N   -0.9515640280   -2.8684637399    1.6973138744
 C   -1.4611547451   -2.7744988815   -0.7308432907
 O   -1.9401536024   -4.0971335853   -0.5823192113
 H    0.1304556109    2.0581045548   -0.7580728317
 H   -0.5284422062    1.8148583305    0.8809227417
 H    1.1133260387    1.2762609411    0.5054275808
 H   -0.2571592719   -0.6124568073    1.5863336513
 H   -1.2674838301   -3.8212248638    1.5102850636
 H   -2.2021965518   -2.1043593991   -1.1773236344
 H   -0.6232720942   -2.8062722189   -1.4324390021
 H   -2.8429293384   -4.0526065057   -0.2518081177