17

 O    0.0620201009    1.3759471845    0.1231403779
 C    0.0359301369   -0.0175523670    0.0176322796
 C   -1.4226241317   -0.5529993830   -0.0496455778
 O   -1.4406973225   -1.9516925685   -0.2376551106
 C   -0.8848708912   -2.3371684740   -1.4763970060
 C    0.6258054292   -1.9746600379   -1.5474477604
 O    1.1639718464   -2.2802446785   -2.8007040510
 C    0.7344730259   -0.4988184995   -1.2346397139
 O    1.2526329843    0.2798716286   -2.0130873507
 H    0.5377573273    1.6939248211   -0.6596592939
 H    0.5192207437   -0.4843203108    0.8896051372
 H   -1.9358710297   -0.3415638132    0.8904166786
 H   -1.9488330508   -0.0273106161   -0.8616563378
 H   -1.0086663119   -3.4178328000   -1.5695839317
 H   -1.3989129511   -1.8518831537   -2.3207100278
 H    1.1386896829   -2.5395188863   -0.7539323981
 H    1.4825382515   -1.4405274858   -3.1662199836