16

 C   -0.0190791987    1.5094380552    0.0793326417
 C    0.0181604490   -0.0035619795   -0.0371928736
 C    0.7965219680   -0.5126221164   -1.2449758457
 C    0.9384569126   -2.0202550616   -1.1983084935
 O    1.0588154338   -2.7403621934   -2.1593193213
 N    0.9345577446   -2.5236091024    0.0974204638
 C    0.9236442297   -1.8019918280    1.2948581249
 O    1.1720301373   -2.3104801016    2.3520238201
 O    0.6264204420   -0.4933942718    1.1827656773
 H    0.9954693123    1.9149788280    0.1331025089
 H   -0.5234726869    1.9409172013   -0.7899379362
 H   -0.5596313985    1.8079348157    0.9805987693
 H   -1.0058186942   -0.3999966880   -0.0720911494
 H    0.3069494394   -0.2414991038   -2.1824028956
 H    1.8018655767   -0.0724815416   -1.2534644343
 H    1.1175202631   -3.5130354023    0.2008261736