15

 C   -0.1070254638    1.5106984911    0.0556022503
 C    0.1721517945    0.0468590876   -0.0248642062
 O   -0.7614262082   -0.8648841914    0.5919682048
 C    0.6323929376   -0.9593250756    0.9496759446
 C    1.3001635186   -1.8153542911   -0.1254734986
 C    0.7711385420   -0.7759073309   -1.1907626109
 O   -0.1388860064   -1.2147648736   -2.1590251981
 H    0.7906288592    2.0897701657   -0.1839824778
 H   -0.8883893119    1.7920434634   -0.6589838167
 H   -0.4450024945    1.7837755620    1.0588046605
 H    0.8736683223   -0.8524509442    2.0010792818
 H    2.3910697016   -1.8367763165   -0.0622031593
 H    0.9148959754   -2.8332419082   -0.2243913564
 H    1.5833999015   -0.2657474583   -1.7147604883
 H   -0.9018534181   -1.5460720801   -1.6669302398