17

 O   -0.0955779538    1.3927827752   -0.0468857022
 C    0.0196096587    0.0157309445   -0.0567356928
 C    0.7403861992   -0.7879277257   -1.1391657257
 C   -0.2048672286   -1.9856999823   -0.7840246445
 C    0.4384654780   -2.8720306946    0.2963213663
 O    1.6712470606   -2.3608313556    0.8374274883
 C    0.4435645859   -2.0887227550    1.5345699810
 C   -0.2588300270   -0.7872968040    1.2274940692
 C   -1.1187254752   -0.9646466617   -0.0120273980
 H    0.7009181580    1.7594680308    0.3535683194
 H    0.4777051026   -0.3755814174   -2.1172080279
 H    1.8161486811   -0.9488567194   -1.0648967859
 H   -0.6321661454   -2.5342477884   -1.6211079945
 H    0.3630247773   -3.9551720859    0.2555484217
 H    0.3714952797   -2.5188272609    2.5305058085
 H   -0.6449428123   -0.1798099288    2.0373957478
 H   -2.1890127889   -0.8200318909   -0.0837076707