14

 N   -0.0861031571    1.2662455183    0.0630484175
 C   -0.0451054292    0.0127748199    0.0464635485
 O    1.1123363530   -0.7442859536   -0.0310637315
 C    0.8454315647   -2.1062053936   -0.0165510705
 O    1.7203214967   -2.9094574612   -0.0711245583
 C   -0.6562228907   -2.3197750261    0.0813433972
 C   -1.2249501682   -0.9171352242    0.1107005722
 C   -2.4967093183   -0.4969812941    0.7131664442
 O   -2.3469824163   -0.5956475566   -0.7022807796
 H    0.8455199471    1.6770551624   -0.0053022640
 H   -1.0048366997   -2.8816484720   -0.7893264982
 H   -0.8775088631   -2.9129524930    0.9723027823
 H   -3.1348629792   -1.2507103757    1.1726591020
 H   -2.5786061098    0.5156914194    1.1011606882