14

 N   -0.0707317462   -1.1604248197    0.0151193196
 C   -0.0627833855   -0.0039337545    0.0096909415
 C    0.0052764624    1.4205084990    0.0351707726
 C   -0.7231732324    2.4581396995    0.8232659672
 C    0.5773986163    3.2038662966    1.1254004480
 C    1.2515346415    2.3804192351   -0.0260217403
 N    1.0696642918    3.1744257587   -1.2471283813
 C   -0.1769857273    3.1289569022   -1.4844747852
 N   -0.9837171968    2.2716805097   -0.6518420614
 H   -1.5928733652    2.3538858740    1.4589393367
 H    0.6061037187    4.2907246137    1.0233080629
 H    0.9512345566    2.8997732345    2.1053415396
 H    2.2582204195    1.9964362613    0.1091106073
 H   -0.6761625934    3.6889036498   -2.2673627971