17

 C   -0.0309751753    1.5244856911    0.0233461481
 C    1.5106389873    1.4998475879   -0.0343698814
 C    1.3692226256    0.0407075475   -0.5650850759
 C    1.8989655358   -0.8648127904    0.5681290935
 C    2.6113348439    0.0595026210    1.5872089340
 C    1.2808923265    0.4451033504    2.1704451754
 C    0.5359197928   -0.5587778820    1.2518838635
 N   -0.0552024976    0.0236458572   -0.0167363549
 N    2.0480308079    1.3818682162    1.3381018991
 H   -0.4877807391    1.9907261747    0.9019680278
 H   -0.4988645245    1.9159898561   -0.8839153411
 H    2.0686077169    2.2534834546   -0.5939051984
 H    1.5162198895   -0.1847469622   -1.6230155504
 H    2.2571435041   -1.8705324347    0.3673979039
 H    3.5922890554   -0.0429206017    2.0350366285
 H    1.0012747909    0.7579579565    3.1704250030
 H   -0.0750813402   -1.3133454120    1.7485803454