16

 O   -0.0281558805    1.2612968716   -0.1158710103
 C   -0.0691981818   -0.1272983367   -0.0276438132
 C   -0.4929206516   -0.6920063171    1.3389987856
 C   -1.4343120704   -0.6915658192    0.0937064878
 C   -1.3590084316   -2.2077219824    0.0514427201
 C   -2.4409166072   -3.1719533142   -0.2574675629
 N   -1.2333093583   -3.1072182005   -1.0959289252
 C   -0.4730979601   -2.1945088166    1.3003305186
 O   -0.0642633864   -3.0500798841    2.0328728805
 H    0.8152498081    1.5620261936    0.2390392559
 H    0.6879112290   -0.6516988999   -0.6113151445
 H   -0.5015945147   -0.0432455419    2.2047980078
 H   -2.3185532732   -0.0838611480   -0.0459857358
 H   -2.5295931836   -4.0712053236    0.3450901815
 H   -3.3766366762   -2.7743392907   -0.6425969909
 H   -1.4286834916   -2.5928509204   -1.9528797550