14

 N   -0.2268277217    1.4211525674   -0.0178986784
 C   -0.0528231302    0.0157143282   -0.0247586040
 C   -1.1271036485   -0.8580959649   -0.0906140956
 O   -2.4431422638   -0.6245584773   -0.1565134960
 N   -0.6087742980   -2.1069283971   -0.0778502203
 C    0.7741371634   -1.9647816827   -0.0037100501
 C    1.6389642158   -3.1331926911    0.0285211702
 O    2.8465309175   -3.1226365433    0.0918221858
 N    1.1090806623   -0.6836635581    0.0278560099
 H    0.2554104236    1.8504991463   -0.8029438100
 H    0.1718599477    1.8321984248    0.8219054115
 H   -2.5340074724    0.3407869671   -0.1500226375
 H   -1.1325369872   -2.9669552673   -0.1149824093
 H    1.0685202815   -4.0936187219   -0.0119403163