19

 C    0.4310351034    1.5150737794   -0.1600048170
 C   -0.0823835222    0.0967942976    0.0151320355
 O   -0.4892041883   -0.3280435594    1.0677394604
 C   -0.0735969286   -0.7650111639   -1.2495556619
 O   -0.1750606069   -2.1670300484   -0.9765007972
 C   -1.4881281182   -2.2589668304   -1.5723147623
 C   -1.4185058633   -0.7970330397   -2.0007408434
 C   -2.5151063243    0.2181193373   -2.0815824709
 C   -1.7656125232   -0.2009174935   -3.3277820268
 H    1.5230183485    1.4947712766   -0.2619052712
 H    0.0385356307    1.9745095494   -1.0742760878
 H    0.1643333583    2.1187847914    0.7082332484
 H    0.8031023541   -0.5271596495   -1.8691319181
 H   -1.5207459379   -2.9998692778   -2.3808125580
 H   -2.2549810102   -2.4950433643   -0.8242547381
 H   -3.5336832086   -0.1329564698   -1.9502235327
 H   -2.3388691134    1.2130567016   -1.6863294095
 H   -1.0718285319    0.5078206805   -3.7696365467
 H   -2.2759717082   -0.8316364669   -4.0491114428