15

 O    0.1526425858    1.3771380012   -0.1635370908
 C    0.0673505914    0.0227417738   -0.0730057414
 C   -0.2654482913   -0.8165641572   -1.2686700531
 C   -1.1251142286   -1.0240060588   -0.0494340370
 N   -0.3072552053   -1.8701489622    0.8879251742
 C    0.6103332301   -0.7851027689    1.0637594989
 N    1.4531946220   -0.4496334074    1.9398163025
 C   -2.5214857684   -0.8774310710    0.0719219012
 C   -3.7122265128   -0.7490105639    0.2036360211
 H    0.2798073700    1.7194770018    0.7311117477
 H   -0.7347443808   -0.2353654802   -2.0567352836
 H    0.3837634691   -1.6242722067   -1.5968291644
 H   -0.7905766472   -2.1558170027    1.7338422520
 H    1.5362562345   -1.1476332171    2.6809246130
 H   -4.7634030386   -0.6393951407    0.3059832497