23

 C    0.0637585362    1.4943456539    0.2234613661
 C   -0.0327470270   -0.0162672888   -0.0126038892
 C   -1.4714289103   -0.5636246728   -0.0757600434
 C   -2.2280951368   -0.0682156710   -1.3162390056
 C   -1.4509215944   -2.1074553570   -0.0304093792
 O   -0.7495490556   -2.5624525106    1.1362365344
 C   -1.5658479013   -3.4321050626    1.9129470892
 C   -2.8708109116   -3.5056998506    1.1738679423
 C   -2.8016383213   -2.7688021677    0.0719971803
 H    1.1091803642    1.8077648103    0.3082851229
 H   -0.3840239465    2.0737840095   -0.5902282142
 H   -0.4429889681    1.7810073462    1.1520446410
 H    0.4877191206   -0.2779642280   -0.9450380270
 H    0.4923880960   -0.5398680818    0.7914458475
 H   -2.0071809106   -0.2288989159    0.8238108198
 H   -1.7681212630   -0.4528616904   -2.2349589890
 H   -3.2759168323   -0.3827045162   -1.3095472383
 H   -2.2191116101    1.0231789328   -1.3768407318
 H   -0.9064407827   -2.4627519919   -0.9242981515
 H   -1.0820292490   -4.4181649530    2.0043136726
 H   -1.6774502901   -3.0335985528    2.9337674353
 H   -3.7147238236   -4.0915483269    1.5157173594
 H   -3.5791520527   -2.6437259046   -0.6695892515