23

 C    0.6269952857    1.5966680627   -0.3945541487
 C    0.0654178366    0.2089165715   -0.0885155183
 C    0.4766823724   -0.9554697146   -1.0464397786
 C    1.1089155425   -1.7208547776    0.1417165026
 C    0.8181271856   -3.1978803024    0.2941917941
 C    2.5686517615   -1.2553751256    0.4547795423
 C    2.0259058865   -0.4317210233    1.6569889732
 O    2.5625252232    0.8273931255    1.9807571599
 C    0.5782236020   -0.6137253279    1.1418649959
 H    1.6984398166    1.5692200524   -0.6292556572
 H    0.1338534510    2.0192582694   -1.2771284026
 H    0.4710277384    2.2914169372    0.4374150777
 H   -1.0235194450    0.2962659667   -0.0282780899
 H   -0.3841906639   -1.4721201501   -1.4818458796
 H    1.1618168999   -0.6921626441   -1.8598678139
 H    1.2998612648   -3.7770310028   -0.5037251393
 H    1.1883676956   -3.5856334795    1.2502249038
 H   -0.2579169448   -3.3998546324    0.2459351596
 H    3.2875491542   -2.0408568356    0.7028331674
 H    3.0021444483   -0.6360468475   -0.3375886296
 H    2.1312302189   -1.0220698613    2.5733456302
 H    2.5265638674    1.3820011541    1.1969364750
 H   -0.1824302075   -0.8087403746    1.9012882662