18

 N   -0.0107044730    1.2196204741    0.4781279770
 C    0.1022992091   -0.1292235124    0.1374695633
 N   -0.9185562664   -0.9618067777    0.3137691329
 N   -0.4253584818   -2.1893221826   -0.0202767795
 C    0.8644738987   -2.1190840996   -0.4288142070
 C    1.2572543736   -0.8027482448   -0.3351855175
 C   -1.2940011062   -3.3220417220   -0.0617369228
 C   -0.8440538669   -4.5997034923    0.5987262816
 C   -1.9430629614   -3.7718191849    1.2155457080
 H    0.4710464226    1.8339899108   -0.1642448228
 H   -0.9797448143    1.4963365400    0.5723678151
 H    1.3972697122   -3.0023389785   -0.7445018790
 H    2.2305017455   -0.3906746477   -0.5469896796
 H   -1.8787923313   -3.4043660120   -0.9744456708
 H   -1.0994945125   -5.5335698228    0.1113353933
 H    0.1221404798   -4.5942110063    1.0892823727
 H   -1.7076370539   -3.2003234891    2.1045478310
 H   -2.9635606336   -4.1317955120    1.1596873441