15

 O   -0.5625306963    0.7896258980   -0.6745393887
 C    0.1390864404    1.1286472582    0.2433646901
 C    1.3962462523    1.9172923494    0.0704775161
 C    2.8601613225    1.3919286308    0.2321279870
 C    2.9127337180    2.9283070365    0.0081862381
 C    1.8686556007    2.7630452187   -1.1393147793
 N    1.7943563239    3.0295230125    1.0419609008
 C    4.0676798277    3.7929738699    0.0361556505
 N    4.9924839799    4.4861587379    0.0375911466
 H   -0.0944481156    0.8671579793    1.2985096431
 H    3.1336364334    1.0626622118    1.2333339003
 H    3.2472916411    0.7607093323   -0.5667397680
 H    2.1861888068    2.2390681951   -2.0431281342
 H    1.2711768584    3.6490901763   -1.3647864209
 H    1.2338786168    3.8640707335    0.8363222785