19

 C   -0.0921440483    1.5398075321    0.0222835035
 C    0.1088737259    0.0197305720   -0.0203473476
 C    0.8218591122   -0.4523345100   -1.2559820020
 C    2.2385493169   -0.1416470719   -1.7670841508
 O    3.2477627210   -0.6146338411   -0.9013384992
 C    1.7106811689   -1.0989466366   -2.8548536392
 C    0.8978619966   -1.9212223441   -1.8079336639
 O   -0.3647334785   -1.8341366321   -2.5353796412
 C    0.2662722855   -0.5319091718   -2.7209498387
 H    0.8666261632    2.0683740106    0.0049573922
 H   -0.6806659956    1.8860286499   -0.8339896504
 H   -0.6202680709    1.8390148131    0.9324134997
 H    0.6779718447   -0.3039036057    0.8597119197
 H   -0.8614408498   -0.4900717255    0.0249951760
 H    2.4272181693    0.8934469762   -2.0844196119
 H    4.0974589834   -0.5209680744   -1.3429720807
 H    2.1842699768   -1.4749943228   -3.7615014367
 H    1.1459752389   -2.8487501828   -1.2960340011
 H   -0.2481102803    0.2193159449   -3.3193025977