20

 O   -0.1955465028    1.5106366991   -0.3757632969
 C   -0.0455003568    0.1783432027    0.0909039070
 C   -1.3859402322   -0.5256317817   -0.0733962650
 C   -1.3415687848   -1.9831016302    0.3825894492
 N   -2.6649788485   -2.5891130741    0.2440836951
 C   -2.9682883925   -3.2311216009   -1.0219379278
 C   -2.7595258039   -4.0607674619    0.2117600032
 C   -1.5989258197   -4.9010050903    0.3308175591
 C   -0.6451330855   -5.6208012392    0.4722311730
 H    0.6451748107    1.9639349073   -0.2654057326
 H    0.7315096722   -0.3579090325   -0.4788856027
 H    0.2591635307    0.1590275377    1.1504782326
 H   -2.1489970731    0.0145902611    0.4962666200
 H   -1.6808628405   -0.4733384315   -1.1282467025
 H   -0.5712635471   -2.5360634154   -0.1793628131
 H   -1.0636702555   -2.0406190170    1.4418549256
 H   -3.9736368678   -3.0881158867   -1.4087336489
 H   -2.1833983305   -3.2800527160   -1.7751749376
 H   -3.6400695419   -4.4409119487    0.7249586209
 H    0.1970935195   -6.2574375120    0.5858344317