19

 C    0.0220075274    1.5891599457    0.1615544842
 C    0.1432977199    0.0999626248   -0.0199359709
 O   -0.6009161787   -0.7093292139    0.8910193634
 C    0.8530292708   -0.8159317142    0.9172634569
 C    1.3129633336   -2.0178078581    0.1525725140
 C    1.0278895893   -1.8200948947   -1.1381622899
 C    0.3808840424   -2.5319444741   -2.3033966513
 C   -0.7154681954   -1.4064518817   -2.1844150705
 C    0.3200661337   -0.5138882042   -1.4047679831
 H    0.8375319248    2.1109608843   -0.3502638787
 H   -0.9231410342    1.9514578894   -0.2584726580
 H    0.0448903172    1.8555964425    1.2210558777
 H    1.3043045249   -0.4813280809    1.8472029015
 H    1.6006570621   -2.9492729741    0.6249930778
 H    0.9372445111   -2.4389360809   -3.2417419653
 H    0.0769274135   -3.5711956982   -2.1635723668
 H   -1.1073419813   -1.0016823624   -3.1197176525
 H   -1.5299961713   -1.7147125220   -1.5275723833
 H    0.8418159204    0.1674436524   -2.0857919152