18

 C    0.2788206759    1.4605753931   -0.0050617512
 N   -0.1766924731    0.0883256751   -0.2167464678
 C    0.4244840851   -0.6027835207   -1.2899169811
 C    0.0335426898   -0.2468952957   -2.7495270915
 N    0.9106989990   -1.1436774576   -3.5559879680
 C    1.2859724954   -2.0067074154   -2.6954889064
 N    2.6219138500   -2.0956732167   -2.1738021390
 C    1.9115166816   -1.4120830358   -1.0089446160
 C    0.6175855118   -2.0636018896   -1.2955253914
 H    1.3604814762    1.5411213943    0.1873535826
 H    0.0496782358    2.0652132486   -0.8874173140
 H   -0.2623869355    1.8923141670    0.8408729283
 H   -0.1398016376   -0.4446959558    0.6434120553
 H   -1.0514891905   -0.3739036522   -2.8894197477
 H    0.2903346714    0.7752328396   -3.0463204671
 H    3.2343910364   -1.4932212429   -2.7265320289
 H    2.4230432711   -1.3075191661   -0.0566025132
 H    0.0886367670   -2.8841728291   -0.8243248030