18

 C   -0.0588536590    1.5254823822   -0.1059406336
 C    1.3428093841    2.1562228027    0.0284124010
 C    2.2263205361    1.5097680619    1.0844858093
 C    1.7819034616    0.9385766878    2.4099409638
 O    0.4284921944    0.4857751210    2.4036006379
 C    0.7303943854   -0.4068352752    1.2790750152
 C   -0.0505848324   -0.0065775833    0.0318249734
 C    2.2082307261    0.0123058207    1.3013077004
 H   -0.7068112994    1.9255449439    0.6776975783
 H   -0.4982889273    1.8150799274   -1.0662010833
 H    1.8729926043    2.0721169230   -0.9304322356
 H    1.2403829725    3.2299991638    0.2263436752
 H    3.2299091507    1.9275271400    1.1475527250
 H    2.2222450748    1.1857607890    3.3695669176
 H    0.5601855941   -1.4457692468    1.5773753180
 H   -1.0801011825   -0.3777411890    0.0875260687
 H    0.4174469598   -0.4884911303   -0.8370214663
 H    3.0600539366   -0.6463153687    1.1967090752