18

 C   -0.1453579446    1.6649553607   -0.0864462907
 C   -0.0000617539    0.1534437806   -0.0525339948
 C   -1.3639907680   -0.5269788239    0.2015351856
 O   -1.8677633260   -0.1910638305    1.4750428570
 N    0.6702723408   -0.5152606512   -1.2444075873
 C    2.0431380306   -0.0394732748   -1.2793755570
 C    1.7231587732   -1.1313184511   -0.3109972977
 C    1.0108031997   -0.5612776147    0.8702359141
 O    0.9963372192   -0.8151453043    2.0473190328
 H    0.8071058998    2.1981087710   -0.0542438636
 H   -0.6784687146    1.9619899849   -0.9965592926
 H   -0.7398923276    1.9768648857    0.7754455985
 H   -2.0883824209   -0.1717982998   -0.5388693603
 H   -1.2569514479   -1.6135908050    0.0664719170
 H   -1.2095765784   -0.4763953051    2.1238375888
 H    2.5859186128   -0.3448083419   -2.1692089443
 H    2.2939348030    0.9528667792   -0.9181423055
 H    2.1020554829   -2.1408094299   -0.4203871298