18

 C   -0.0035181811   -1.1507364895    0.0014090542
 C    0.0239070238    0.0517010728    0.0125569008
 C    0.0410031870    1.4918181691    0.0694918360
 C   -0.9135104388    2.1669604020    1.0601100387
 C   -0.6447242147    3.6489680436    0.6996745197
 C    0.3892057102    3.4402466961   -0.3938779292
 C    1.3763163938    2.3012730493   -0.0364818627
 C    1.3675591081    1.9605525378   -1.5295581110
 N   -0.1130661772    2.2746132002   -1.2844359843
 H   -0.0279310721   -2.2123150074   -0.0158669082
 H   -1.9456786856    1.8596880468    0.8764380418
 H   -0.6608070635    1.9126924077    2.0927580277
 H   -1.5340428198    4.1589274040    0.3202280138
 H   -0.2473896650    4.2321731935    1.5353757986
 H    0.7478933281    4.3045432966   -0.9549881182
 H    2.2063342854    2.3054186004    0.6796303550
 H    1.8457197673    2.6638089298   -2.2164786400
 H    1.5525381739    0.9267196572   -1.8276933527