19

 C    0.0055464317    1.4953645005    0.0584284194
 C    0.0530663490    0.0075148625   -0.0416289043
 C   -0.0525460062   -0.8336127680   -1.1326043951
 N   -0.2932214494   -0.4814017611   -2.4845120132
 C    0.0395949044   -2.1803707375   -0.6626378281
 C   -0.0450174479   -3.4119281342   -1.5035648739
 O   -0.0889291950   -4.5483255405   -0.6504527910
 C    0.1975810517   -2.1218153158    0.7011539960
 N    0.1944027054   -0.8021939808    1.0697755439
 H    0.7524796372    1.8773528743    0.7652459121
 H    0.2268779096    1.9511198289   -0.9123520510
 H   -0.9725594131    1.8795372686    0.3793832839
 H   -0.3451890143    0.5228637075   -2.6075184846
 H    0.4331854718   -0.8293261400   -3.1025161817
 H   -0.9393477349   -3.3570759300   -2.1472891362
 H    0.8222951454   -3.4765529447   -2.1864981763
 H   -0.1219112599   -5.3322777740   -1.2052983311
 H    0.2983607800   -2.9154873753    1.4213185059
 H    0.2768766345   -0.4667353603    2.0126118454