16

 C    0.0425448953    1.3715536243   -0.0863767694
 C    1.5275609854    1.8674830505    0.0586597362
 C    2.1221881660    0.7052309283    0.8064005303
 C    3.2198985634   -0.2687016342    1.0321158592
 C    2.1875434761   -1.4392392890    1.0157077681
 C    1.4934571440   -0.7344744165    2.2030343475
 N    2.5365916463    0.3989143937    2.2190087287
 C    1.0976772937   -0.3994218279    0.7886854951
 O    0.0222627317   -0.0833095333   -0.0009722015
 H   -0.5700882844    1.7822875366    0.7253065570
 H   -0.4099033971    1.6369994209   -1.0434188098
 H    1.9922243029    1.9932739131   -0.9233693583
 H    1.5788157136    2.8202160432    0.5902949177
 H    4.2925526346   -0.2108560963    0.8797642142
 H    2.2541278475   -2.4964434176    0.8014981896
 H    1.0131731009   -1.1599911558    3.0756801753