20

 C   -0.0813772938    1.5530039611   -0.1188765299
 C    0.0426221809    0.0257791579   -0.0378656543
 C    0.7961932457   -0.5241543343   -1.2560601215
 C    0.7272608380   -0.4409405323    1.2605020023
 C   -0.0837896519   -0.1372078140    2.5347374828
 O   -1.3617456246   -0.7125235915    2.4813861541
 C    0.6622268890   -0.6293216389    3.7557099916
 O    0.1739306060   -1.4200400221    4.5272924737
 H    0.9057836576    2.0311119657   -0.0927812208
 H   -0.5673781926    1.8515322147   -1.0533227552
 H   -0.6772458216    1.9648768014    0.7012340987
 H   -0.9670054591   -0.4015972743   -0.0354437643
 H    1.8205985194   -0.1339105576   -1.2965393292
 H    0.8569472023   -1.6171509666   -1.2285795826
 H    0.2974253315   -0.2392539833   -2.1880816287
 H    0.8843850010   -1.5258842291    1.2129777340
 H    1.7190829398    0.0258317668    1.3460708443
 H   -0.1639860493    0.9594621802    2.6489948777
 H   -1.4228947301   -1.2854717481    3.2622105886
 H    1.6861217019   -0.2277670456    3.9019992189