15

 C   -0.0717591033    1.4685453680   -0.2990979634
 O    1.1290576414    1.7089900945    0.4629100825
 C    1.3717466791    0.2924892161    0.6314439506
 C    1.3535433625   -0.1473810868    2.1031292071
 C   -0.0930875629   -0.5276201846    2.3267312088
 C   -0.8188812328   -0.4911391042    1.2080364102
 C   -0.0152348964   -0.0460822810    0.0175979939
 H   -0.9303240456    2.0243623729    0.0952445257
 H    0.0643035668    1.7151838412   -1.3609123742
 H    2.2668877828   -0.0227254431    0.0842105282
 H    2.0316696878   -0.9897011717    2.2955677820
 H    1.6822041926    0.6803770083    2.7429372414
 H   -0.4751260155   -0.8039334866    3.3037335546
 H   -1.8750424860   -0.7294213035    1.1420304274
 H   -0.0715435204   -0.7172734994   -0.8427651248