24

 C    0.1424896941    1.5069499338   -0.1689808595
 C    0.2427882750   -0.0169943883   -0.0621207974
 C    0.6839202053   -0.4962922070    1.3260813469
 C    0.7742186864   -2.0228593687    1.4255354269
 C    1.3010759902   -2.5567652329    2.7774369499
 C    0.3687185301   -2.2397218054    3.9547416572
 C    1.4541531513   -4.0760565178    2.6544192835
 N    2.7367635365   -4.5303787364    2.5401006139
 O    0.4966463294   -4.8267026650    2.6306403007
 H    1.1077795526    1.9831070340    0.0371891279
 H   -0.1744578402    1.8179398130   -1.1693624361
 H   -0.5818542506    1.9074127254    0.5490666008
 H   -0.7281561030   -0.4673639896   -0.3066140128
 H    0.9477067042   -0.3924174881   -0.8157645908
 H    1.6610186446   -0.0534682167    1.5679024423
 H   -0.0186077009   -0.1094761801    2.0746188540
 H   -0.2086789042   -2.4726575921    1.2406233660
 H    1.4321056164   -2.3889933265    0.6255819208
 H    2.2853391984   -2.1059027514    2.9657619265
 H    0.2093133803   -1.1636965323    4.0589819456
 H   -0.5961413138   -2.7305272404    3.8035050046
 H    0.7868537614   -2.6088572682    4.8965861343
 H    3.5324324341   -3.9195509906    2.5822096284
 H    2.8865944626   -5.5204721689    2.4332780765