15

 O    0.0015553875    0.0448966729    0.0763279365
 C   -0.0141985760    1.2405524346    0.0779416015
 C   -1.1155622777    2.2964562011   -0.0293266317
 C   -1.0305223621    3.2374769243    1.2546380885
 O   -0.0038898857    2.7941337278    2.1643275988
 C    0.9833870514    3.2640514403    1.2248991707
 C   -0.0466189216    4.1818843288    0.5107893377
 C   -0.0523902214    3.2383637139   -0.7231604079
 C    1.0552795464    2.3251019847   -0.0613826110
 H   -2.1035236654    2.0535581864   -0.4161980495
 H   -1.9626709521    3.5039477046    1.7509773936
 H    1.9224278008    3.5552130714    1.6936076707
 H   -0.0604755800    5.2684585888    0.5434038366
 H   -0.0714711205    3.5080607560   -1.7742822785
 H    2.0374527564    2.1082004145   -0.4773467362