18

 C   -0.0024603966    1.4424721341    0.0357243648
 N    0.0143265289   -0.0003852288   -0.1192452985
 C    1.2716957523   -0.7042181716    0.0533116290
 C   -1.1696254049   -0.7024229240   -0.0333885957
 C   -1.2232135917   -2.1103637012    0.0212376024
 N   -2.3645808515   -2.7912268972    0.0656924403
 C   -3.4910058803   -2.0794740653    0.0693037864
 N   -3.5762394788   -0.7499018743    0.0490457543
 C   -2.4315799023   -0.0745849040    0.0046334477
 H    1.0083622040    1.8275332582   -0.1054899414
 H   -0.6430456494    1.9118618426   -0.7192762137
 H   -0.3571226343    1.7634835965    1.0274315280
 H    1.3764301920   -1.1573032330    1.0513396609
 H    1.3823448350   -1.5004149442   -0.6913578196
 H    2.0948905558   -0.0030292350   -0.0904224604
 H   -0.3141593902   -2.7034852493    0.0312067257
 H   -4.4248303732   -2.6335058251    0.1004001638
 H   -2.5168923149    1.0075326914    0.0009534458