20

 C   -0.1279790520    1.6395964172   -0.0661773714
 C    0.0445751389    0.1142212355   -0.0500204301
 C    1.0283903627   -0.6919984788   -0.9621353622
 C    2.4271839380   -0.3045905133   -0.4710206539
 N    2.5191883325    0.9568340408    0.3009230066
 C    2.2205101305   -0.3123401343    1.0048756668
 C    0.7411826957   -0.7027674152    1.0888791521
 C    0.7797907171   -1.8954481101    0.0423715909
 O   -0.3445108572   -2.7112195206   -0.1193532747
 H    0.4531034369    2.1027868128   -0.8650941044
 H   -1.1816378290    1.9022910428   -0.2122877419
 H    0.2107544186    2.0937143621    0.8662944010
 H   -0.9506866573   -0.3201839681   -0.1916581556
 H    0.8630859913   -0.7977649629   -2.0348236344
 H    3.3111049793   -0.7103979762   -0.9491733700
 H    3.5061252672    1.1648959690    0.4402192360
 H    2.9396882244   -0.7243226929    1.7032161813
 H    0.2877504923   -0.8193417135    2.0737543300
 H    1.6214821207   -2.5829952634    0.1566343136
 H   -1.1287035806   -2.1639721008   -0.2265923297