17

 C   -0.4335834660    1.4040186844    0.0196388562
 C    0.0192020773   -0.0505823042   -0.0114582216
 C    1.3116719871   -0.3451762575   -0.8869659891
 C    2.1271727524   -0.4696162822    0.4188690621
 O    2.6378376298    0.7149109548    1.1229358259
 C    1.9604482759   -0.0274201778    2.1732789237
 C    2.3380217661   -1.4627479333    1.5960817986
 O    0.9719258649   -1.9505581521    1.5588628368
 C    0.8249299538   -0.5248591937    1.2339678515
 H    0.4018758832    2.0640498396    0.2670905524
 H   -0.8295136534    1.7014717246   -0.9571151630
 H   -1.2211271715    1.5515737336    0.7653583050
 H   -0.8185280770   -0.7192410584   -0.2244311085
 H    1.2596682828   -1.2824728479   -1.4432252067
 H    1.6407909483    0.4552399177   -1.5529464551
 H    1.9888784318    0.3756643428    3.1902230617
 H    3.1310325245   -2.1665583605    1.8670408401