21

 C   -0.0830159581    1.5330780402    0.0599582080
 C    0.0107546516   -0.0070253995    0.0395682807
 C    0.6551279053   -0.5551786206   -1.2451948436
 C   -0.1299668769   -0.2358424756   -2.5287409374
 C    0.5581370923   -0.8038654284   -3.7495839517
 O    0.0487700756   -1.5467882963   -4.5480273873
 C    0.8238873171   -0.4442532250    1.2652490176
 C    0.0432159541   -0.7170567817    2.5374687063
 O    2.0278410287   -0.5517345578    1.2169297588
 H    0.9094001558    1.9766677401   -0.0688935058
 H   -0.7338708821    1.9015348902   -0.7372546145
 H   -0.4934321311    1.8962485660    1.0073878785
 H   -1.0049065468   -0.4121383713    0.1394824732
 H    1.6765654582   -0.1662367385   -1.3158294406
 H    0.7536959214   -1.6430836169   -1.1503315426
 H   -1.1508666713   -0.6289108485   -2.4923952588
 H   -0.1878870943    0.8522506378   -2.6702998406
 H    1.6193928919   -0.4792113901   -3.8658884761
 H   -0.5360963510   -1.6402405933    2.4127044730
 H    0.7256005770   -0.8333008167    3.3802163466
 H   -0.6778725674    0.0812667757    2.7416024663