19

 C    0.0596694033    1.4261457186   -0.1575407512
 C   -0.0304658280   -0.0689515907    0.0561495809
 O    0.3116784487   -0.7816251696   -1.2027258579
 C   -0.9892755766   -1.3576272646   -1.2373502815
 C   -1.2785963350   -2.1667851812    0.0020331074
 C   -0.1994166723   -2.8390348321    0.8500149312
 C    0.7102018169   -1.8659861441    1.5551788925
 C    0.7994277503   -0.5856600729    1.2011184689
 C   -1.4533306350   -0.6636920733    0.0089782129
 H    1.0945459458    1.7164745837   -0.3656045911
 H   -0.5630896115    1.7339242151   -1.0012965967
 H   -0.2739423552    1.9607695343    0.7391417775
 H   -1.4466367390   -1.5206794257   -2.2066213282
 H   -2.2187103525   -2.7098141143   -0.0610473879
 H   -0.6745952758   -3.4872581523    1.5974928094
 H    0.4042216497   -3.5089009403    0.2215431209
 H    1.3071137437   -2.2565817730    2.3753363002
 H    1.4672329412    0.1007185256    1.7136560913
 H   -2.3625623387   -0.1366094631    0.2666216914