20

 C    0.2500105766    1.4635447808    0.0229143380
 C    0.0326000465   -0.0234270509    0.1333741557
 N   -0.1485384812   -0.6356570628    1.2418887960
 O   -0.1003059595    0.2494992049    2.3345980499
 C   -0.0161553314   -0.8351548756   -1.1243999525
 C    1.2971701793   -1.1759875068   -1.9228935560
 C    1.6256762569   -2.2260061942   -0.8243691464
 C    0.1015963866   -2.3869292856   -1.1160036303
 C    0.4655174267   -2.2850221690   -2.6274396911
 H    1.2031575330    1.7455159708    0.4834405399
 H    0.2579116572    1.7846765851   -1.0206857959
 H   -0.5301098208    2.0063595949    0.5647151786
 H   -0.2727046936   -0.3393239515    3.0765929192
 H   -0.8120205921   -0.4410424091   -1.7711500574
 H    1.9802053008   -0.4649223713   -2.3908702489
 H    2.2644645527   -3.0569575197   -1.1355305886
 H    1.9008826826   -1.8554665583    0.1623834919
 H   -0.5895146271   -3.0859121665   -0.6461146271
 H   -0.3259698067   -1.9552472374   -3.3068401731
 H    1.0328377934   -3.1199367380   -3.0463998521