20

 C   -0.1279428160    1.4889562473   -0.0775595554
 C   -0.0776598051    0.0019323644   -0.0283712011
 C   -0.0528394255   -1.1106253029   -1.0381977101
 C    1.2453774367   -1.6021269189   -0.4294628903
 N    0.9068260229   -0.8379930109    0.8378486401
 C   -0.3029374828   -1.6102011115    1.3270673652
 C   -1.0809700108   -1.1118285962    0.1231569016
 C   -2.5517232442   -1.0895420757   -0.1274040881
 O   -2.9721335132   -2.3992689328   -0.4966289145
 H    0.8235193226    1.9034162137   -0.4287004831
 H   -0.9134558171    1.8242511064   -0.7630427983
 H   -0.3341055033    1.9148657570    0.9106039144
 H   -0.3852040485   -1.0946464322   -2.0693232456
 H    1.4079001603   -2.6759649950   -0.2826989926
 H    2.1294286405   -1.1586445184   -0.8958512032
 H   -0.1335879413   -2.6841061867    1.4617448913
 H   -0.6584570878   -1.1745801994    2.2660146693
 H   -3.0767854892   -0.7505094997    0.7804785067
 H   -2.7787354792   -0.3597240797   -0.9229951034
 H   -3.9326229490   -2.3982682189   -0.5524561230