18

 C    0.0047885351    1.4043225908    0.0283209851
 O   -0.0217720582   -0.0210811151    0.0380645763
 C   -1.2338474056   -0.6117429526    0.0210377751
 N   -2.3255412690    0.1372924993   -0.0036127930
 C   -3.5025766349   -0.5082512572   -0.0195619979
 C   -3.6293419188   -1.8842845395   -0.0117369462
 C   -2.4654175450   -2.6728559864    0.0145309159
 C   -2.5500532120   -4.1769850864    0.0244592751
 C   -1.2467938233   -2.0162289620    0.0311202683
 H    1.0615320417    1.6756969904    0.0453519429
 H   -0.4751500302    1.8030665118   -0.8701199251
 H   -0.5070322192    1.8157957756    0.9031044233
 H   -4.3864263086    0.1251053367   -0.0397911196
 H   -4.6116952294   -2.3437367652   -0.0257122313
 H   -3.0811434133   -4.5454976146   -0.8601105142
 H   -1.5580138172   -4.6345607395    0.0407069359
 H   -3.1037320977   -4.5324826584    0.9005124767
 H   -0.3066710843   -2.5552059279    0.0515536528