20

 C   -0.0188448064    1.5491137585    0.0212065710
 C    0.0043262635    0.0074922027    0.0057225534
 C   -1.4365787562   -0.5414682895    0.0290262008
 C    0.8031218573   -0.5417270259   -1.2021022649
 C    1.9905596367   -1.3328108139   -0.6200623662
 O    2.8311421946   -1.9023680036   -1.2868934518
 C    1.8873933551   -1.2575673567    0.8276420516
 C    0.8044933999   -0.5280663410    1.1953009977
 N    0.4161861863   -0.2107321513    2.4588999955
 H    0.9970075785    1.9547094942   -0.0015467956
 H   -0.5575550083    1.9274103912   -0.8534300529
 H   -0.5160162415    1.9419213458    0.9145536746
 H   -1.9839648017   -0.1994105010   -0.8548843015
 H   -1.4405816548   -1.6357463308    0.0295251289
 H   -1.9969217385   -0.2006728379    0.9077195016
 H    0.2032738711   -1.2036901037   -1.8342131175
 H    1.1807746673    0.2557876476   -1.8491295059
 H    2.5949404988   -1.7313140678    1.4965511703
 H    0.8412791948   -0.6877439233    3.2368416585
 H   -0.5160743965    0.1313959767    2.6174631623