16

 O   -0.1411314768    1.3909702324    0.0587692780
 C   -0.0689837706    0.0011194533    0.0235323896
 C   -0.5416947158   -0.7366427770   -1.1841555463
 C   -1.3547592025   -0.7941351884    0.1187515972
 C   -1.0899423795   -1.9724413427    0.9981946547
 O   -1.9167917996   -2.6794473017    1.5177399957
 C    0.4335440563   -2.0906544963    1.1868687005
 C    0.9888099389   -0.6822793444    0.8917928676
 H    0.5470867825    1.7426332109   -0.5167357006
 H   -1.0005348620   -0.1392163797   -1.9638956763
 H   -0.0256077352   -1.6261086489   -1.5313805280
 H   -2.3318570608   -0.3296820390    0.1312579640
 H    0.6577775930   -2.4580202812    2.1897577141
 H    0.8159242296   -2.8382314566    0.4814763784
 H    1.9745557536   -0.6988416230    0.4140249900
 H    1.0786918691   -0.1046812276    1.8173685815