17

 O    0.2027670932    1.4378082945   -0.1942436788
 C    0.0730708977    0.0588119006   -0.0890078191
 C   -1.3246407968   -0.6699259922   -0.0476713480
 C   -0.6326886471   -1.7792560938    0.8187336612
 C    0.1318027005   -2.7731291670   -0.0851328943
 C    0.9424495709   -2.0115313537   -1.1089450813
 C    0.9333734753   -0.6790328813   -1.1029639103
 C    0.2889451641   -0.6309203926    1.2618002894
 O    0.7407951740   -0.2437214617    2.3028533512
 H    0.2529739029    1.7909037910    0.7028351017
 H   -2.0646136774   -0.1051930754    0.5238982937
 H   -1.7225981342   -0.9762596303   -1.0161486427
 H   -1.2143479168   -2.2740317130    1.5969072760
 H    0.7895081595   -3.4013597830    0.5305490047
 H   -0.5719879156   -3.4613158280   -0.5730911163
 H    1.5314715153   -2.5725882596   -1.8278081809
 H    1.5162002947   -0.0643301542   -1.7803119161