12

 N    0.0464216388    1.3103394853    0.1388953016
 C   -0.0595692955   -0.0322164473    0.0527290429
 N   -1.1490517028   -0.7405583880    0.0215174308
 C   -0.6582861003   -2.0393941236   -0.0051667562
 N   -1.1441066475   -3.2548822736   -0.0424235333
 O    0.0192462981   -4.0588672528   -0.0569989846
 C    1.1484564727   -3.2977720589   -0.0285751505
 C    0.7535053389   -2.0121665727    0.0052076969
 O    1.1571639507   -0.7033694360    0.0431385843
 H    0.9220773314    1.7287792607   -0.1281043591
 H   -0.7924724140    1.8328350004   -0.0532725565
 H    2.0828661795   -3.8320806934   -0.0367218963