14

 O   -0.0355321915    1.4377170950    0.0557398563
 C    1.2636737933    0.8179428843   -0.0105694394
 C    2.1239689776    0.8565216739    1.1917578198
 C    1.8048739291    0.2213501323    2.3267233834
 C    0.5653857126   -0.5720132567    2.4731131729
 O   -0.6995903327    0.1158998032    2.4176941061
 C   -0.3464981739   -0.6915698512    1.3086537801
 C    0.0120594882    0.0221282958    0.0333450900
 H    1.7602959740    0.9650844572   -0.9682804985
 H    3.0608226469    1.4005058378    1.1166453112
 H    2.4820570171    0.2484446329    3.1752191717
 H    0.5855471472   -1.3732554000    3.2100648064
 H   -0.9313366314   -1.6035434869    1.1914197658
 H   -0.3475780464   -0.4416102776   -0.8848500957