25

 C   -0.1068496313    1.5152277512   -0.1663263568
 C    1.4451554214    1.5316653499   -0.1596011322
 C    1.4215278701    0.1633441463    0.5838499869
 C   -0.0510215375   -0.0114664175    0.1077720854
 C    2.4512839509   -0.8960640125    0.2317078187
 C    3.8990697912   -0.5492040022    0.6280523975
 C    4.6616315206   -1.8905926976    0.5434666759
 C    3.5857381506   -3.0012640200    0.7433503360
 C    2.2431439311   -2.2566555150    0.9241072368
 H   -0.5209663112    2.0641717855    0.6845553259
 H   -0.6156211774    1.8514134963   -1.0730222962
 H    1.8525970008    1.4225051710   -1.1706904539
 H    1.9486052168    2.3714909565    0.3260922567
 H    1.4380587391    0.3352298126    1.6684957390
 H   -0.7718326761   -0.4343257799    0.8122464929
 H   -0.0974098012   -0.5886924055   -0.8222199698
 H    2.4219393968   -1.0561724939   -0.8579611641
 H    4.3409461838    0.2319759699    0.0024018454
 H    3.9042999707   -0.1739973173    1.6601519677
 H    5.1378052667   -1.9962542016   -0.4365391429
 H    5.4628384406   -1.9500845034    1.2854311406
 H    3.5454967521   -3.6530407171   -0.1351362134
 H    3.8094718380   -3.6463152108    1.5976662587
 H    2.0450050683   -2.0852530902    1.9905378003
 H    1.3900270150   -2.8148055248    0.5271761952