20

 C   -0.5154124968    1.5458774639    0.0312366214
 C   -0.0010182354    0.1097926917    0.0113693479
 C   -1.1003612148   -0.9005473556   -0.3142646134
 N    1.2550788357   -0.0479606773   -0.8203059553
 C    2.0193452025   -0.5109753722    0.3530656969
 C    3.0374813685   -1.6216465195    0.4278244928
 C    3.4616282266   -0.1983925628    0.6622934725
 C    0.8398460182   -0.2905920550    1.2488521275
 O    0.6295143951   -0.3766990614    2.4254587731
 H    0.3002256935    2.2472414768    0.2240287518
 H   -0.9628828964    1.8041958380   -0.9343717500
 H   -1.2739052317    1.6685698192    0.8109260785
 H   -1.5118696290   -0.7064097045   -1.3114653564
 H   -0.7210967077   -1.9274735873   -0.2910608480
 H   -1.9173960288   -0.8262673059    0.4095769055
 H    1.1439609652   -0.7843837851   -1.5120962003
 H    2.9753318544   -2.2980628909    1.2739353627
 H    3.3206637089   -2.0870992428   -0.5110802428
 H    4.0186651499    0.3027097200   -0.1216702071
 H    3.6927692620    0.1143670507    1.6751114728