25

 C    0.1361038140    1.5750232000   -0.0737018981
 C    0.0538297251    0.0504957421    0.0424780694
 C   -1.3872427178   -0.4760139576    0.0184397919
 C   -1.4859493577   -2.0022528850    0.0873821785
 C   -0.9409132179   -2.6449740354    1.3922513379
 C   -1.7568730217   -3.9094161636    1.5134794655
 C   -2.8078678655   -3.9018931305    0.6959409131
 C   -2.9162541698   -2.6128907431   -0.0914792279
 C   -4.0812432671   -1.7496802390    0.4292428994
 H    1.1738346510    1.9229773407   -0.0576927218
 H   -0.3184140210    1.9261223559   -1.0070085073
 H   -0.3914004892    2.0643254571    0.7528444844
 H    0.6200104491   -0.4109185492   -0.7779303450
 H    0.5467827614   -0.2708346497    0.9685267393
 H   -1.9460053020   -0.0270850853    0.8505969254
 H   -1.8756151802   -0.1225932397   -0.9005898026
 H   -0.8818931090   -2.4110824258   -0.7337017610
 H    0.1372522893   -2.8346792156    1.3436016118
 H   -1.0953535740   -1.9928256159    2.2658322667
 H   -1.5099729836   -4.7026678923    2.2111253348
 H   -3.5572354520   -4.6843021454    0.6295709609
 H   -3.1036656908   -2.8087478350   -1.1554842318
 H   -3.9507680369   -1.4986721922    1.4871128415
 H   -4.1776337253   -0.8165231755   -0.1344211295
 H   -5.0278691983   -2.2925536197    0.3358104646