21

 C   -0.0002830010    1.5093701593   -0.2898726870
 C   -0.0838897088    0.0363672625    0.0488322293
 C   -1.2464261878   -0.6951277381   -0.5908046542
 O    1.1626829069   -0.6823370662    0.0020341513
 C    0.5181335588   -0.5302792374    1.2740005267
 C    1.2507541966    0.2395933129    2.3358147481
 C    0.4941678888    0.4631339192    3.6679560762
 O    1.4806554126   -0.2740808965    4.4136317634
 C    2.2320206554   -0.5716811770    3.2187295373
 H    0.8889265443    1.9773918977    0.1341983879
 H    0.0400680254    1.6387767558   -1.3769057245
 H   -0.8854932930    2.0416347126    0.0748618865
 H   -1.1932389447   -0.6142044377   -1.6820315110
 H   -1.2327860625   -1.7552638124   -0.3267243598
 H   -2.2022601229   -0.2667457916   -0.2699808133
 H    0.0694382974   -1.4564771678    1.6464839889
 H    1.6958642921    1.1450171165    1.9246043238
 H    0.4131804025    1.5041974159    4.0030476534
 H   -0.4989183676   -0.0037757729    3.7240730577
 H    2.2640426184   -1.6488192944    3.0090326253
 H    3.2577312991   -0.1887203403    3.2705846441