11

 O    0.0129290482    1.3766400706    0.3560283269
 C    0.0130956571    0.0153705890   -0.0391812109
 C   -1.3995374359   -0.4695132919    0.0437558715
 N   -1.7155635361   -1.7098957812    0.2978159475
 O   -3.0812636592   -1.7623828063    0.2584200427
 N   -3.6186726080   -0.5360855256   -0.0116131219
 C   -2.6025944435    0.2686543293   -0.1474937695
 H    0.8970073405    1.7295725044    0.2195131020
 H    0.3732733987   -0.1014045302   -1.0735323648
 H    0.6474242116   -0.6112492381    0.6024172375
 H   -2.7332828234    1.3172861600   -0.3585590411