15

 C   -0.0007047096    1.4280718366    0.1643919611
 N   -0.0429017666    0.0414441454   -0.2700989459
 C   -1.1741919980   -0.7135982135   -0.1043836210
 C   -1.3467394276   -2.0888978049    0.0016301791
 N   -2.6973167251   -2.4000051854    0.0823463449
 C   -3.3193240685   -1.2606790795    0.0358582152
 N   -2.4409644708   -0.1960456004   -0.0742376444
 C   -0.2959386934   -3.0308713603    0.0310302369
 N    0.6212987036   -3.7414742336    0.0548334543
 H    1.0088942920    1.8116864687    0.0087121968
 H   -0.6733682729    2.0424205856   -0.4455790230
 H   -0.2671371219    1.5630691378    1.2231163050
 H    0.8023111287   -0.4868840522   -0.1088324326
 H   -4.3868898881   -1.1109235949    0.0828420854
 H   -2.6852652217    0.7769306605   -0.1478817217