22

 C   -0.7364517416    1.7625487207    0.5527489021
 C   -0.4113011132    0.3041815117    0.2091443781
 C   -1.6404157882   -0.6004770191   -0.0045885748
 C   -2.3454710994   -0.2798257632   -1.3256124048
 O   -3.5651409469   -1.0072476301   -1.3643311706
 C   -1.2792386933   -2.0977603150    0.0377850340
 C   -1.0246465108   -2.6191287780    1.4666990167
 C   -0.6415984008   -4.0292263431    1.4861152667
 N   -0.3360987523   -5.1438289558    1.4840347433
 H    0.1802196411    2.3344687344    0.7259821934
 H   -1.2872630556    2.2648166082   -0.2482363434
 H   -1.3444682394    1.8259231783    1.4618502506
 H    0.2190583320    0.2653849167   -0.6900260635
 H    0.2035501010   -0.1113247690    1.0162105057
 H   -2.3700455100   -0.3999688041    0.7936274238
 H   -2.5345122755    0.8005908830   -1.4004836510
 H   -1.6873138246   -0.5584449290   -2.1656602857
 H   -3.9717453483   -0.8742237457   -2.2251962517
 H   -2.0986621297   -2.6713780153   -0.4018341159
 H   -0.3900297510   -2.2816857254   -0.5775124635
 H   -0.2329671949   -2.0467120659    1.9630040569
 H   -1.9282812184   -2.4975054843    2.0755024037