15

 O   -0.0039278322    0.1555814705   -0.7942314615
 C    0.0186150910    1.2442629331   -0.2689877181
 N    1.1389502057    1.8408958026    0.2410724625
 C    2.4373466614    1.2006845928    0.1803469380
 C    3.4788707087    2.0221093666   -0.6321754834
 C    3.0590956256    2.2355722053   -2.0082631319
 C    2.6971858176    2.4002782716   -3.1414249432
 C    2.9609526582    0.9431788717    1.5328388871
 N    3.3894989869    0.7755584980    2.5924868867
 H   -0.8754260523    1.8828816656   -0.1437893399
 H    1.0577966497    2.7426806336    0.6846426191
 H    2.2632189188    0.2423660688   -0.3194323690
 H    3.6461393383    2.9818882468   -0.1279671013
 H    4.4351224060    1.4874536994   -0.5998624200
 H    2.3848389266    2.5421044334   -4.1467019851