18

 O   -0.1702770735    1.4948815297    0.0161416885
 C   -0.0667539208    0.1092979708   -0.0053250442
 C   -1.2841719260   -0.7685237410    0.0410485700
 C   -2.6474914865   -0.0831419049    0.0359969312
 C   -3.1601642678    0.1806753956   -1.3812815585
 N   -2.0914931280    0.7530044514   -2.2191363591
 C   -0.9246722164    0.0191906426   -2.4329168870
 O   -0.3234164703    0.0611319389   -3.4862641440
 C   -0.4353055660   -0.7187713581   -1.2349997714
 H   -0.7733160560    1.7738238869   -0.6873479492
 H    0.8187371550   -0.2067628842    0.5351941168
 H   -1.2080228927   -1.6836017290    0.6190467256
 H   -3.3773984595   -0.6999870900    0.5669977797
 H   -2.5723561740    0.8670999986    0.5775664573
 H   -3.5388295203   -0.7514000483   -1.8256154668
 H   -3.9897784821    0.8930405995   -1.3626119564
 H   -2.4057567481    1.1767947593   -3.0844465256
 H    0.2125053531   -1.5513896176   -1.4792717769