18

 C   -0.3249339927    1.4432730525   -0.5063438055
 O   -0.3011397554    0.0397364576   -0.5861649471
 C   -0.9695810631   -0.5795394254    0.4903688641
 C   -0.9118978581   -2.0625337532    0.3228689672
 C   -0.3498606790   -2.7423496004   -0.7036925845
 O   -0.4964197670   -4.0996438120   -0.5071163978
 C   -1.1572708128   -4.2584523528    0.6610885489
 N   -1.4660377467   -5.5708157850    0.9942371946
 C   -1.4434876121   -3.0519304228    1.2269281054
 H    0.2135028084    1.8299848353   -1.3748873770
 H   -1.3539395479    1.8372496583   -0.5216324534
 H    0.1670871859    1.8099449319    0.4090273240
 H   -0.5085262059   -0.2828240769    1.4502044868
 H   -2.0199778719   -0.2385353482    0.5361673830
 H    0.1676256691   -2.4467468809   -1.5975650865
 H   -0.7701350627   -6.2263393039    0.6612573063
 H   -1.6259505314   -5.6941652561    1.9844147502
 H   -1.9607587968   -2.8814213680    2.1579703212