15

 O   -0.1472894937    0.8762995977    1.1873329240
 C    0.0806433434    1.3153198502    0.0948286379
 C    1.4298007670    1.9079578657   -0.3162485597
 N    1.3164077367    2.8845683110   -1.3791380483
 C    0.7746196548    4.2021792373   -1.0794538959
 C    1.6168514618    4.9479734969   -0.1339574459
 N    2.2782263589    5.5130288383    0.6258349112
 C    1.7575297839    2.6363617624   -2.6570276275
 O    1.6903492172    3.4184948575   -3.5755583891
 H   -0.6766041435    1.3037127978   -0.7237098789
 H    1.9258549284    2.3259895311    0.5665088552
 H    2.0507978836    1.0771208702   -0.6753349792
 H    0.7171707995    4.7408270518   -2.0298905273
 H   -0.2373618685    4.1276730371   -0.6634843254
 H    2.1813726205    1.6191241649   -2.7510261413