20

 C    0.0347879765    1.5551139571   -0.0539691086
 C   -0.0243416083    0.0692758578   -0.0020770192
 C    0.0473230155   -1.0332095275   -1.0192596262
 C    1.2347790528   -1.6147315441   -0.2740784346
 N    0.7949532357   -0.8508021676    0.9572905853
 C   -0.5196156770   -1.5453212498    1.2927593837
 C   -1.0393866115   -0.9808861223    2.6071075611
 O   -0.0982592242   -1.2049653975    3.6365918496
 C   -1.1047406434   -0.9738901590    0.0156304657
 H    1.0465692990    1.9051501714   -0.2867752567
 H   -0.6390290683    1.9302371293   -0.8316252477
 H   -0.2662451389    2.0029297585    0.8990703503
 H   -0.1488190214   -0.9718079314   -2.0830153728
 H    1.3178347713   -2.6975793251   -0.1283070016
 H    2.1897186080   -1.2182412851   -0.6294983095
 H   -0.4092563633   -2.6330862190    1.3806378917
 H   -1.2648892409    0.0921234296    2.4877247452
 H   -1.9695916084   -1.4811248377    2.8986731952
 H    0.7502404209   -0.9394833579    3.2544388425
 H   -2.1367466142   -0.8766768697   -0.3000616634