17

 C   -0.0534330672    1.3347170047    0.0459523490
 O   -0.0278378398   -0.0894001379   -0.0632260793
 C    0.6381084280   -0.5531091226   -1.1285952855
 N    1.2543203110    0.1250648767   -2.0569767017
 C    1.7698035924   -0.8434457606   -2.9100396378
 C    1.4510506245   -2.0975480377   -2.4804046754
 C    1.7655645513   -3.4551628285   -3.0129374245
 O    2.1418045410   -3.3137961136   -4.3716407033
 N    0.7120584354   -1.9005937169   -1.3157698055
 H    0.9612067359    1.7347251254    0.1303120766
 H   -0.5325853825    1.7813833986   -0.8300775854
 H   -0.6263090668    1.5527701054    0.9479308470
 H    2.3319021986   -0.5772372123   -3.7899737204
 H    2.5767148300   -3.9238479308   -2.4286048508
 H    0.8840207320   -4.1134499037   -2.9054019290
 H    2.5815926289   -4.1242681541   -4.6432459712
 H    0.2893330172   -2.5982981420   -0.7275470329