21

 C    0.8233197552    1.3721367975   -0.2484562846
 C    0.0941610957    0.0544073351   -0.0079652002
 C    0.5806770244   -1.1405315346   -0.8828861550
 C    1.1545241791   -1.8575050902    0.3739519903
 C    2.6496887213   -1.9633205927    0.5165188513
 C    3.5915729329   -2.0455403051   -0.6048711819
 O    3.4288702616   -0.8192627850    0.1165490494
 C    0.5182263117   -0.7363272120    1.2757794101
 O    1.3380247261   -0.1058992389    2.2270872140
 H    1.9071891743    1.2235530480   -0.2922448116
 H    0.5145285057    1.8087098597   -1.2042397209
 H    0.6045226956    2.0965214222    0.5422265177
 H   -0.9861745221    0.2227914909   -0.0551485087
 H   -0.2180286903   -1.7015399931   -1.3725788228
 H    1.3174344907   -0.8621245051   -1.6406558483
 H    0.7332835157   -2.8516780524    0.5577945346
 H    2.9770400169   -2.3842640643    1.4679297961
 H    4.5526975981   -2.5378637721   -0.4657997082
 H    3.2188915980   -2.0366716182   -1.6271791963
 H   -0.3447383670   -1.1042563439    1.8370777687
 H    2.1268389464    0.2187254643    1.7775369364