15

 C   -0.4700593384    1.4420654704   -0.0668454791
 C    0.1428730562    0.0548514400    0.0374798425
 C    1.3725469276   -0.3029527274   -0.8467916824
 C    1.9594799381   -1.0936456079    0.3532603947
 C    0.9988743314   -0.3076878707    1.2856309878
 H    0.2921083924    2.2184482896    0.0684409998
 H   -0.9361460447    1.6009460472   -1.0461279929
 H   -1.2414816135    1.5970735316    0.6962759266
 H   -0.6351734120   -0.7056013236   -0.1005509539
 H    1.1933837565   -0.8411817718   -1.7812938972
 H    1.9686777702    0.5885770830   -1.0700418448
 H    1.6987359711   -2.1550071780    0.3052110050
 H    3.0325351011   -1.0107723495    0.5414805811
 H    1.4829038635    0.5824242820    1.7021102644
 H    0.5130429604   -0.8497968649    2.1012106184