16

 C   -0.0800888425    1.6351466743   -0.0869245626
 C    0.0718869609    0.1249614473    0.0486249981
 C    1.1594408908   -0.6125614935   -0.7519019311
 O    1.4751669453   -0.6869191297   -1.8957044255
 N    1.7090910735   -1.3357398965    0.3920721222
 C    2.1885638211   -0.2805635585    1.3211213944
 C    0.7312445230   -0.5038206046    1.2832679749
 C    0.0217142284   -1.2077587222    2.3858000153
 O    0.5757995300   -1.6670632740    3.3521100292
 H    0.8497021194    2.1600968111    0.1490892682
 H   -0.3573466976    1.8904343894   -1.1136186147
 H   -0.8611212820    2.0116571759    0.5804971268
 H   -0.8850809606   -0.3726534486   -0.1557091252
 H    2.7179359902   -0.6941980210    2.1724004206
 H    2.6084572551    0.6305802942    0.9035745631
 H   -1.0792701749   -1.2891679837    2.2529441062