15

 O    0.2287414358    1.1245699503   -0.5696955291
 C    0.0319369681   -0.1240227736    0.0444542604
 C   -0.0294867345   -0.2172327823    1.6033068441
 C   -1.2842089881   -1.1329735389    1.4698901316
 C   -1.4081181331   -0.6258609521    0.0312555387
 C   -2.5434823736    0.0110534525   -0.6329645168
 O   -2.0450197436   -1.2735198201   -1.0477703734
 H    1.1726622364    1.2684126114   -0.6843667437
 H    0.7029672844   -0.8906803814   -0.3688050896
 H    0.8411521708   -0.6268147069    2.1182730395
 H   -0.2798676182    0.7589443123    2.0250029361
 H   -1.0319093374   -2.1966782748    1.5020504537
 H   -2.1219620369   -0.9464835685    2.1441263635
 H   -3.5232074789   -0.0020321820   -0.1568343551
 H   -2.3624348511    0.8259566342   -1.3302308301