18

 C    0.0559125730    1.5909453970    0.0720352326
 C    0.0406015080    0.0699086658    0.0447438206
 C    0.9260180994   -0.6747863739   -1.0260995021
 C    1.6511202692   -1.3813276680    0.1292342178
 C    2.3547723711   -2.6997680123    0.1604801710
 O    3.5822292037   -2.6592281941   -0.5514309738
 O    2.2279289411   -0.3332446693    0.9404085330
 C    0.8465756739   -0.6646098423    1.1341783457
 H    1.0823336485    1.9574119280    0.1617889535
 H   -0.3768808425    2.0049412555   -0.8447230622
 H   -0.5215499864    1.9790368944    0.9184341190
 H   -0.9850922530   -0.3117411159    0.0121551696
 H    0.3478133406   -1.3515644084   -1.6596107303
 H    1.5653967106   -0.0466599574   -1.6505628173
 H    2.5014532741   -3.0013617790    1.2087392536
 H    1.7445347769   -3.4655051883   -0.3299200326
 H    4.1145912141   -1.9649345065   -0.1469955306
 H    0.5468014378   -0.9459187753    2.1386202425