21

 C   -0.1748749028    1.5602244909    0.0018826176
 C    0.0140136376    0.0373479075   -0.0125195459
 C    0.8051345202   -0.5122343213   -1.1953825801
 C    0.4693961668   -0.1511612035   -2.6082590219
 C    1.7723674395   -1.3426995910   -0.7855071973
 C    1.8456413435   -1.4380736736    0.6990750705
 C    2.2042555804   -0.1383014334    1.4183106392
 C    0.7618723222   -0.5209975619    1.2054034862
 O   -0.0005574542   -0.9005660157    2.3135973789
 H    0.7879562093    2.0813418982    0.0053415557
 H   -0.7403492855    1.9034278858   -0.8701406488
 H   -0.7302947117    1.8710966003    0.8938688563
 H   -0.9862081842   -0.4235106006   -0.0102943462
 H    0.5998505657    0.9217811183   -2.7979748785
 H    1.0990957962   -0.6947467188   -3.3180860930
 H   -0.5793605914   -0.3812987330   -2.8384661028
 H    2.4515918395   -1.8728405486   -1.4450620989
 H    2.0683406249   -2.3761944788    1.1944114247
 H    2.5613393792   -0.2361477565    2.4387347572
 H    2.6562131115    0.6611090145    0.8401067858
 H   -0.1475373566   -0.1179053188    2.8556724913