24

 C    0.0503796830    1.6701710607    0.1330706734
 C   -0.0072243097    0.1457564563   -0.0113320337
 C    0.6886443161   -0.5695876859    1.1519127979
 C    0.6929714682   -2.1153834467    1.1130110168
 C   -0.7368625521   -2.6844005164    1.1606176552
 C    1.4437125507   -2.6458641210   -0.1220615083
 N    1.4196390997   -2.5289667802    2.3358663114
 C    1.6744899647   -3.8004785016    2.7315214888
 O    1.3500743825   -4.8165930044    2.1482640235
 H    1.0857656445    2.0274858860    0.1617551035
 H   -0.4497485417    2.1662829140   -0.7041137708
 H   -0.4385887689    2.0003491514    1.0563292522
 H   -1.0543400793   -0.1713957979   -0.0713663513
 H    0.4585841873   -0.1444127006   -0.9597359206
 H    1.7326836059   -0.2277739324    1.2002306641
 H    0.2139059831   -0.2544155730    2.0924000050
 H   -1.2875829898   -2.4319821058    0.2503328079
 H   -0.7003620845   -3.7710444810    1.2510440149
 H   -1.2850408939   -2.2813201795    2.0184783942
 H    2.4489663247   -2.2154627504   -0.1778348527
 H    1.5333858806   -3.7315731740   -0.0631391081
 H    0.9090649666   -2.3928966577   -1.0417280418
 H    1.7591548344   -1.7956437516    2.9386010444
 H    2.2369613879   -3.8183824482    3.6886194840