18

 C    0.0897536897    1.4836743344   -0.2048552652
 N   -0.1267588785    0.0877532807    0.1680924158
 C    1.0234098595   -0.8103421868    0.0893256021
 C    0.4538543262   -0.4072109398    1.4080997767
 C    1.1910501550    0.4806897797    2.3955957302
 O    1.6174886696   -0.2720914061    3.5630005763
 C    3.0115146010    0.0554205860    3.3983104764
 C    2.6602623030    0.8629248197    2.1472707055
 O    3.2547401234    1.5049320049    1.3353384266
 H    1.0909052624    1.8705497829    0.0379916685
 H   -0.0590372822    1.5783913594   -1.2846967382
 H   -0.6603077828    2.1086910671    0.2909455462
 H    0.8277467873   -1.8008019016   -0.3128318865
 H    1.9817093103   -0.3809970061   -0.1970560016
 H   -0.1752795977   -1.1170077094    1.9446272188
 H    0.5680304871    1.3384947008    2.6896593325
 H    3.4175782442    0.6453989194    4.2297687282
 H    3.6438998824   -0.8258346251    3.2332753276