18

 O    0.7141851875    1.1928716521    0.3039261746
 C    0.2550517288   -0.0618168852    0.0574144683
 C    0.4129488769   -0.9391815858   -0.9860761400
 C   -0.3257932245   -2.1250283192   -0.6460341048
 C   -0.8975184429   -1.9080724110    0.5830664356
 N   -0.5328123688   -0.6407362806    1.0072337687
 C   -0.4504647015   -3.3381314892   -1.4893705701
 C    0.6125652717   -4.4192799424   -1.4631581452
 C   -0.7528970819   -4.6858854052   -0.8834369445
 H    1.2529448624    1.4665260261   -0.4441250918
 H    0.9901609872   -0.7727302293   -1.8829287343
 H   -1.5412943464   -2.5286943059    1.1833270526
 H   -0.7934134838   -0.1985381803    1.8708125700
 H   -0.8885649434   -3.1637610024   -2.4699539521
 H    0.8809035732   -4.8992796131   -2.3981623774
 H    1.4356573417   -4.2885182319   -0.7695843574
 H   -0.8327776965   -4.7498647473    0.1958763131
 H   -1.4226652299   -5.3496133296   -1.4188796452