16

 C    0.0341685867    1.4219215672    0.0073512884
 N    0.0679073613   -0.0274739047    0.0028347131
 C   -1.0389838618   -0.6667167820    0.0088444995
 N   -2.3133451679   -0.0628040057    0.0198213261
 C   -3.5475062435   -0.6881977569    0.0267269381
 O   -4.6014073539   -0.0893410923    0.0362516408
 N   -3.4626536858   -2.0716163643    0.0219671484
 C   -2.2649047870   -2.7598754609    0.0113724114
 C   -1.0855711455   -2.1197365113    0.0048483744
 H    1.0569277386    1.8061889256    0.0005969920
 H   -0.4769262905    1.8397251656   -0.8760056559
 H   -0.4631966878    1.8343949354    0.9009818523
 H   -2.3761857799    0.9437682484    0.0234302150
 H   -4.3467174397   -2.5532340323    0.0269554710
 H   -2.3515531722   -3.8392466464    0.0087925695
 H   -0.1454911111   -2.6504617755   -0.0034506542