16

 O   -0.1017171577    1.4527245837   -0.0224645316
 C    0.0161297768    0.0952425503    0.0131644053
 C    0.0757437210   -1.0199617681   -0.9746673244
 O    1.1876044205   -1.6878726711   -0.3792639617
 C    0.8871688799   -0.9710755128    0.8478938977
 C   -0.4410285855   -1.5858642064    1.3069553281
 C   -0.6847193305   -2.8073224813    2.0874524166
 N   -1.0158598935   -1.4635105152    2.6389345477
 C   -1.0704688053   -0.9609419679    0.0851612479
 H    0.6740130559    1.8181415779   -0.4649255063
 H   -0.0830083394   -1.0932899678   -2.0423349470
 H    1.7442442943   -0.8300441151    1.5057901686
 H   -1.5488312021   -3.4313140261    1.8770085518
 H    0.1733793738   -3.3407189217    2.4890514546
 H   -0.3036455250   -1.1808591314    3.3095385894
 H   -2.1134955531   -0.8764761570   -0.1880148270