20

 C    0.4711562418    1.3499550057   -0.9676745660
 C    0.0313783060    0.0983139574   -0.2362215438
 N    1.0079571957   -1.0041704873   -0.2792817217
 C    0.7527031266   -0.3157226511    1.0144673768
 C    1.8186486700    0.4561507494    1.5926902587
 C    2.6875747932    1.1056342634    2.1115367932
 C   -1.4314129652   -0.2137929459   -0.3971300278
 C   -2.2214292170   -1.1105042787    0.5236450577
 C   -2.4749322501    0.3765628207    0.5193845961
 H    1.5411369939    1.5191971662   -0.8396381500
 H    0.2635991164    1.2517212832   -2.0388821525
 H   -0.0710492057    2.2251507949   -0.5954596584
 H    0.5120760621   -1.8940938638   -0.2636862722
 H    0.1718284156   -0.8663496124    1.7498919503
 H    3.4621846384    1.6761080874    2.5608086128
 H   -1.7199469056   -0.2715987861   -1.4449349022
 H   -2.9612883192   -1.7611635221    0.0708633143
 H   -1.7421688679   -1.5395500478    1.3966051085
 H   -2.1203938742    0.9417573139    1.3747513356
 H   -3.3979026748    0.7481144530    0.0884461605