14

 O    0.1704974155   -0.0610602839    0.1441378403
 C    0.1054828696    1.1357557110    0.0411237223
 C    1.3015636678    2.0538190152    0.0381401719
 C    1.2441017438    3.0541985240   -1.1365251213
 C    0.5304956446    4.0624334190   -0.3412790063
 C    1.0665793630    3.3163384206    0.9402734668
 C    2.3336595712    4.1126165003    0.6406449430
 O    3.2263699366    4.5856133662    1.2622810074
 N    1.9701146109    4.3205079922   -0.7640405822
 H   -0.8736926602    1.6583641181   -0.0598372145
 H    2.2167847630    1.4787354672    0.1996607161
 H    1.2040186092    2.8346201896   -2.1949342276
 H   -0.2503405305    4.7847908150   -0.5220767348
 H    0.6324960955    3.2447051254    1.9334405289