18

 O    0.1173980207    1.4039196601   -0.2579390285
 C    0.0438710172    0.0110605075   -0.0637647128
 C    0.6971626420   -0.5254672556    1.2353235300
 N   -0.0231569098   -1.7735783799    1.5683456830
 C   -1.3666221896   -1.6280986200    2.1682318103
 C   -1.9625545619   -0.2511532037    2.3711350815
 O   -2.0754145613    0.3477638083    1.0824236595
 C   -1.4136313414   -0.4549365227    0.1043571332
 C   -1.2335177510   -1.8439601121    0.7116887276
 H    1.0253254231    1.6288051335   -0.4819201828
 H    0.4677825135   -0.5331921974   -0.9241138909
 H    1.7563777196   -0.7651879593    1.1046197988
 H    0.6189434628    0.2274007806    2.0269733545
 H   -1.6358712646   -2.4197723564    2.8607160970
 H   -2.9608948171   -0.3352037185    2.8200873787
 H   -1.3534069921    0.3849030301    3.0297425997
 H   -1.9907923595   -0.4125541555   -0.8217095552
 H   -1.4535522207   -2.7624723090    0.1797271464