20

 O   -0.2287017103    1.4925082083    0.0643095151
 C   -0.0208914589    0.0885815252    0.0916037265
 C   -1.3908906239   -0.5749967482    0.0417652358
 C   -1.3308846509   -2.1197279685   -0.0199450303
 C   -0.6792875181   -2.6802174385    1.1637728022
 C   -0.1720831253   -3.1333823283    2.1563423286
 C   -2.7335933801   -2.6985836251   -0.2316044075
 C   -3.0824802537   -4.0907726786    0.1300504648
 N   -3.6404515397   -2.9558541723    0.8929120518
 H    0.6248420526    1.9242145067    0.1615092518
 H    0.5827152694   -0.2421480620   -0.7708346466
 H    0.5118118999   -0.2223568068    1.0020152268
 H   -1.9751470010   -0.2625844051    0.9133792502
 H   -1.9204303409   -0.2128180424   -0.8463425777
 H   -0.7317281520   -2.3969564398   -0.9006057768
 H    0.2963720398   -3.5334482665    3.0217802240
 H   -3.2309903288   -2.2537846458   -1.0918004558
 H   -3.8029787960   -4.6410589876   -0.4683200434
 H   -2.3162987501   -4.6976552104    0.6037506446
 H   -3.1214621518   -2.8668739444    1.7656026357