18

 C   -0.0386768689    1.5465297493    0.0395912722
 C    1.4953579880    1.5030677933   -0.0457754418
 C    2.2127284546    1.0016555642    1.2767038138
 C    1.4093734819    1.0718693728    2.5516956800
 C    0.4660126529    0.1212209346    2.5588385485
 C    0.5328473337   -0.6912019085    1.2894231577
 C    0.0159880216    0.0122707084   -0.0345741335
 N    1.4378041527    0.0765314552   -0.6038375267
 C    1.9524354735   -0.4241160643    0.7322813312
 H   -0.5000019389    2.0108922026    0.9144539518
 H   -0.4705754055    1.9682709946   -0.8716471399
 H    2.0204157112    2.2645904266   -0.6255065766
 H    3.2493277396    1.3336284818    1.3494377691
 H    1.5519309461    1.8255879211    3.3178917612
 H   -0.2808048267   -0.0213053177    3.3317684689
 H    0.2094454944   -1.7297352076    1.3724542158
 H   -0.7457911933   -0.5229833973   -0.6045618021
 H    2.7275095031   -1.1929884090    0.7668583005