20

 C    0.1649268940    1.4080448313    0.1106474386
 C    0.0349595100   -0.1071729308    0.2791878749
 C   -1.3676831600   -0.6139684455   -0.0900901048
 N   -1.4308175560   -2.0680115837   -0.0579209147
 C   -1.7682844923   -2.7189460375    0.9721195294
 O   -1.8175367993   -4.0722883031    0.9838880980
 C   -1.4518681049   -4.7265155559   -0.2291804405
 C   -2.1922157231   -2.2338953733    2.3402392156
 O   -2.0761109782   -1.1007630638    2.7315555643
 H    1.1715003189    1.7477976390    0.3727096332
 H   -0.0297820976    1.7122621616   -0.9238622695
 H   -0.5438620941    1.9407345167    0.7536427110
 H    0.7727051251   -0.6235584687   -0.3460177661
 H    0.2432858742   -0.3869458218    1.3175125058
 H   -2.1051230296   -0.1431431611    0.5685105114
 H   -1.5910115750   -0.3118922370   -1.1203881664
 H   -1.5436870333   -5.7947830075   -0.0301492905
 H   -2.1158273784   -4.4265389609   -1.0452121412
 H   -0.4261145565   -4.4726852111   -0.5122514174
 H   -2.6280848740   -3.0359218768    2.9708059990