21

 C    0.0983381240    1.5485551185    0.0052890991
 C   -0.0144176050    0.0581707721    0.0020181433
 C    0.7054733042   -1.0105449999   -0.7918088387
 C    0.7492359435   -1.0173836206    0.7440059879
 C   -0.4935484335   -1.8811977534    1.0480163228
 C   -0.5267102063   -3.0226319304    0.0026250699
 C   -0.5530040721   -1.8716359542   -1.0323876318
 C   -1.2417255511   -0.9236121030    0.0327251901
 C   -2.7000951101   -0.5778792205    0.0760569120
 H    1.1499350642    1.8563382644   -0.0196949322
 H   -0.3954652719    1.9953132118   -0.8660424732
 H   -0.3511845901    1.9878804490    0.9039406453
 H    1.5985569273   -0.9208140405   -1.3975804201
 H    1.6753588130   -0.9327264339    1.2987521920
 H   -0.8011799701   -2.0177667030    2.0850392054
 H    0.3062947249   -3.7322353328   -0.0244391433
 H   -1.4758365840   -3.5681996120    0.0271960691
 H   -0.9193618880   -1.9987332267   -2.0513758976
 H   -3.3186354295   -1.4830535894    0.0907818738
 H   -2.9470781632    0.0061419410    0.9706365372
 H   -2.9982108063    0.0123524035   -0.7986454710