19

 C   -0.1603875822    1.4301783362    0.0303392633
 N    0.1968645460    0.0315559797   -0.1444244531
 C    0.7278120884   -0.6350412076    0.9747970982
 C    0.7663756873   -2.0010028269    1.1326020317
 O    0.2440308255   -3.0004818498    0.3571120593
 N    1.4130557459   -2.2857100117    2.3188710399
 C    1.7845950990   -1.1158483575    2.9350598566
 C    2.4821545012   -1.0980643005    4.2543014726
 C    1.3787852642   -0.0785595177    2.1197461424
 H    0.7432118638    2.0255398865    0.1993034971
 H   -0.6273391896    1.7961707494   -0.8880092739
 H   -0.8476275763    1.6177562577    0.8722573976
 H   -0.5666047650   -0.5013428395   -0.5420277879
 H    0.8033658628   -3.1203048168   -0.4200791756
 H    1.5182258211   -3.2138966131    2.6897922677
 H    3.4406116281   -1.6328186261    4.2290832313
 H    2.6904992117   -0.0660901544    4.5467201181
 H    1.8797330907   -1.5504621470    5.0531489518
 H    1.5329272073    0.9689275891    2.3279516929