19

 C    0.7292563263    1.8605272195   -0.3281866230
 C    0.8584195794    0.3374895065   -0.2629013802
 C    0.7153401398   -0.2204790353    1.1438611490
 O   -0.6287473302    0.1097404669    1.6001969581
 C   -0.8460710819    0.3158806359    2.8978901238
 N    0.0068122324    0.1111614933    3.8170712294
 C    0.9034794624   -1.7572355438    1.1740768502
 N    1.0902971361   -2.2597721110    2.4202857766
 O    0.9045261457   -2.4271128242    0.1593649922
 H    1.4949341624    2.3548856704    0.2805992840
 H    0.8447899456    2.2131455782   -1.3571069961
 H   -0.2495087421    2.1899214958    0.0314456804
 H    0.1171908293   -0.1497568275   -0.9027869663
 H    1.8356506070    0.0177939533   -0.6391603619
 H    1.4207481507    0.2478283194    1.8381299653
 H   -1.8671818153    0.6833496266    3.0360770345
 H   -0.3785543153    0.3584585815    4.7246534853
 H    0.9622923019   -1.6627088729    3.2288332961
 H    1.1327473755   -3.2609247426    2.5230484424