19

 C   -0.0895460525    1.5169243477    0.1770027749
 N    0.0028553138    0.0739458040    0.1683788552
 C   -1.2138343467   -0.7019456651    0.4729623494
 C   -0.3736727632   -1.6661774549    1.3463204381
 C    0.5517949232   -2.6588344513    0.5589447841
 C    1.7451540810   -1.6639122075    0.6869365253
 C    0.7800651388   -0.5941820507    1.2345000057
 C   -0.9323927964   -2.1270782459    2.5900442894
 N   -1.3754082418   -2.4973833298    3.5931548387
 H    0.9031621734    1.9524442052    0.0241290266
 H   -0.7292620687    1.8489244347   -0.6474232309
 H   -0.5054526889    1.9258709303    1.1168537331
 H   -1.9448256480   -0.1490201747    1.0821381579
 H   -1.7229431670   -1.1330482953   -0.3966724762
 H    0.6951840520   -3.6202373876    1.0531162828
 H    0.2031805804   -2.8335481540   -0.4607359424
 H    2.4721732296   -1.9898522868    1.4358874711
 H    2.2651714603   -1.3926326034   -0.2332934069
 H    1.0844636109    0.0414721150    2.0717712442