18

 N    0.0976679634    1.1208167708    0.6435730547
 C    0.0543628729    0.0443822671   -0.1792864408
 O    0.9859892073   -0.3111852098   -0.8819955687
 C   -1.2681447362   -0.7353007566   -0.1361296458
 N   -2.3556095575    0.1115030641    0.3527866282
 C   -1.5689866257   -1.6349113620   -1.3734925789
 N   -1.6540942261   -2.8850757260   -0.5297490899
 C   -0.3093380459   -3.0450892152    0.0562366619
 C   -1.2178975714   -2.0525042925    0.6595612989
 H    0.9568085426    1.6376349469    0.7274807938
 H   -0.7029976391    1.3356316434    1.2155322126
 H   -2.6272351341    0.7801508335   -0.3642290666
 H   -3.1755375080   -0.4586753024    0.5416284141
 H   -2.5400028619   -1.4141958497   -1.8233156690
 H   -0.7932744899   -1.6714352303   -2.1410188383
 H   -0.1921574789   -3.9863612742    0.5843717470
 H    0.5584917742   -2.7042943019   -0.5002034024
 H   -1.6618055458   -2.1630200552    1.6454430993