18

 O   -0.3881667034    1.4205166383   -0.0739266418
 C   -0.1119560291    0.0752966647    0.0591464530
 C   -0.4256918947   -0.9304493897   -1.0101749410
 C   -1.0986345398   -1.0475063357    0.3439179560
 C   -0.1051378139   -1.6816065902    1.3238311613
 C    0.8820538916   -0.5065749983    1.0767118648
 O   -0.5332741832   -1.6790199034    2.6804366083
 C   -1.2109788694   -2.7643856811    3.1034618933
 N   -1.7159178668   -2.7838495704    4.2600591505
 H    0.1668403905    1.7801647549   -0.7746177406
 H   -1.0779413664   -0.5607101967   -1.7951019695
 H    0.3066812644   -1.6675736035   -1.3358226285
 H   -2.1743234496   -1.0260076651    0.4641013733
 H    0.2528055556   -2.6822702042    1.0486836905
 H    1.8906247330   -0.7500132561    0.7277693790
 H    0.9357655226    0.1068582420    1.9776287375
 H   -1.2460487384   -3.5757088410    2.3625289323
 H   -2.1660010431   -3.6817645045    4.4252613016