18

 C   -0.3113811491    1.8107031086    1.0357095100
 C   -0.1647797888    0.4988911888    0.2529397547
 C    0.6303506338   -0.5198967008    1.0804409650
 N    1.8431671851   -0.8790536381    0.5721215867
 O    0.1939407606   -0.9685290544    2.1225669811
 C   -1.5314475057   -0.0739728570   -0.1411910682
 O   -2.5381739058    0.5983485244   -0.1194588695
 C   -1.6130598731   -1.5163339869   -0.6220054130
 O   -2.8817090291   -1.8144174832   -1.1246651767
 H    0.6642705628    2.2811673027    1.1856949273
 H   -0.9629386110    2.5001065269    0.4969735359
 H   -0.7539180819    1.6071388562    2.0131025285
 H    0.3523811590    0.6896806828   -0.6987746527
 H    2.2420345169   -0.4366106262   -0.2367787632
 H    2.4267304877   -1.4856785463    1.1263354811
 H   -0.8397871463   -1.6805082143   -1.3896344752
 H   -1.3492209132   -2.1612483538    0.2316095522
 H   -3.4257961919   -1.0389582394   -0.9152187241