29

 C   -0.0168869410    1.5485671462   -0.2010965831
 C    0.0434762493    0.0237332976   -0.0765723980
 C    0.6733752263   -0.4508585380    1.2383589878
 C    0.7246502564   -1.9782745179    1.3635600347
 C    1.4494540887   -2.5191049057    2.6118405432
 C    0.7407706181   -2.1067200071    3.9108689872
 C    1.6101154129   -4.0482122872    2.5047247842
 C    2.4967403250   -4.6971502814    3.5747497415
 C    2.6922182340   -6.1996054113    3.3491090907
 H    0.9850040112    1.9898520664   -0.1524511209
 H   -0.4698551722    1.8560896813   -1.1489799570
 H   -0.6093967811    1.9887186060    0.6089104548
 H   -0.9698755755   -0.3909493828   -0.1617813772
 H    0.6106100687   -0.3911543651   -0.9204484088
 H    1.6920904852   -0.0449958949    1.3180032848
 H    0.1094182031   -0.0195270458    2.0749674323
 H   -0.2996492364   -2.3788411290    1.3428925191
 H    1.2221458180   -2.3831478062    0.4715099306
 H    2.4594438721   -2.0805703029    2.6236271460
 H    1.2761115409   -2.4646000402    4.7947464396
 H    0.6605856305   -1.0198811914    4.0009767748
 H   -0.2751423503   -2.5198415956    3.9469484292
 H    0.6145916642   -4.5159938641    2.5267084314
 H    2.0297927961   -4.2854316505    1.5173217726
 H    3.4755757764   -4.1986230476    3.5838416926
 H    2.0652502648   -4.5381375719    4.5698889265
 H    1.7332909400   -6.7298370339    3.3641443667
 H    3.1614368605   -6.3972832898    2.3787619109
 H    3.3282669340   -6.6416000572    4.1226231438