18

 O   -0.2505855313    1.2720552942   -0.3736656684
 C   -0.0116387415   -0.0619126651   -0.0575584318
 C   -1.2725953512   -0.8966395510    0.1920355778
 O   -0.6886641444   -1.5070912047    1.3671370960
 C    0.4932333237   -0.6837864328    1.2925766278
 C    1.6611439343   -1.3809511301    0.5496860460
 C    1.1306586223   -0.8071379354   -0.7749943286
 C    1.1409063619   -1.3325247045   -2.1542212765
 N    1.9919828600   -0.1809327299   -1.7782913745
 H    0.5787937622    1.7585800916   -0.3047079691
 H   -2.1414313474   -0.2779259458    0.4475842128
 H   -1.5490120380   -1.6319858788   -0.5718380423
 H    0.6926214302   -0.1395288030    2.2187079483
 H    2.6472757135   -0.9827904683    0.8063577448
 H    1.6651911701   -2.4682639736    0.6483896997
 H    1.6864861816   -2.2439243863   -2.3831232425
 H    0.2704725103   -1.1520720282   -2.7807670590
 H    1.5454959838    0.6745550716   -2.1094159605