19

 O    0.0678446562    1.4228187443    0.1072556401
 C    0.0646326941    0.0228538173    0.0437183272
 C   -0.5706184637   -0.7520150705    1.1845789338
 C   -1.3019240769   -0.6117611689   -0.1154310255
 C    1.1955813017   -0.6463728079   -0.6903202855
 O    1.2824842974   -1.8621816126   -0.7109984281
 C    2.1824778441    0.2273682628   -1.3816414110
 C    3.6415526505   -0.2203126067   -1.3388602816
 C    2.8747739405   -0.3523416658   -2.6064915387
 H    0.6651690347    1.6891520822    0.8147399140
 H   -0.1268025547   -1.7123389636    1.4174896816
 H   -0.9134243788   -0.1577607961    2.0241616423
 H   -2.1293047140    0.0862698483   -0.1627530621
 H   -1.3622594673   -1.4784507890   -0.7622498972
 H    1.9777987165    1.2886588265   -1.3706224006
 H    4.3922357447    0.5569289516   -1.2524726118
 H    3.8362613736   -1.1269500513   -0.7774633328
 H    2.5547903681   -1.3473565562   -2.8930261588
 H    3.0812343132    0.3322726057   -3.4209106953