15

 O    0.3588251423   -0.0961054768   -0.5668655196
 C    0.2220096173    1.0763929293   -0.3387726743
 C    1.3650884184    2.0505910232   -0.1163410221
 C    1.3120547438    3.2121771369   -1.0924599319
 C    2.5649768232    3.9536963207   -1.4671737535
 N    1.8977558689    3.0957703347   -2.4175185695
 C    2.4750972642    1.9662471293   -2.9807392597
 O    3.6233655978    1.8966360468   -3.3423680641
 H   -0.7913735300    1.5378163533   -0.2797389879
 H    1.2651748825    2.4528988696    0.9019510115
 H    2.3129060014    1.5096126793   -0.1860525620
 H    0.3812525009    3.7784640099   -1.0710916960
 H    2.5209433367    5.0203958206   -1.6677315678
 H    3.5087015172    3.5949708234   -1.0635527448
 H    1.7389026854    1.1546077299   -3.1259715982