19

 C    0.0709509619    1.5509641488   -0.2092356890
 C    0.0511373039    0.0453139810   -0.0589436833
 C    0.3323254053   -0.7590089914   -1.3304580123
 O    0.2409004370   -2.1082157042   -0.8591345724
 C   -0.0562397508   -1.9168208487    0.5045316284
 C    0.7829777810   -0.7455542162    1.1006891325
 C   -0.3894894288   -0.4817173157    2.0567211459
 O   -0.4364908341    0.7972716717    2.6457113342
 C   -1.0811059772   -0.7592512286    0.6974460520
 H    1.0482193556    1.8845698098   -0.5783866166
 H   -0.6782605155    1.8704793708   -0.9438904773
 H   -0.1301645494    2.0516889443    0.7357913441
 H   -0.4108660955   -0.5804231147   -2.1189551806
 H    1.3320092580   -0.5669978803   -1.7422287473
 H   -0.1591460980   -2.8698210007    1.0214735426
 H    1.8494059774   -0.7446182308    1.3299745202
 H   -0.5483188760   -1.2585248501    2.8187631885
 H   -1.2789271727    0.8832191029    3.1026387579
 H   -2.1473309220   -0.7767425479    0.4632584124