12

 O   -0.0717367532    1.3479779426    0.0096216823
 N    0.0672493593   -0.0153756372    0.0010119643
 C   -1.0786551104   -0.6280286275    0.0089330695
 C   -1.0613886578   -2.0535152379    0.0011010818
 C   -1.0971670375   -3.2552713454   -0.0050361155
 C   -2.3377656075    0.0373382190    0.0246495615
 C   -3.4165309920    0.5829732837    0.0379920907
 C   -4.6812171037    1.2761582981    0.0539846797
 O   -5.7577433064    0.7256852597    0.0603771906
 H    0.8431939931    1.6553081987    0.0023322548
 H   -1.1207839888   -4.3173864971   -0.0106679521
 H   -4.5901646853    2.3803133532    0.0601280821