20

 C   -0.0193871653    1.4673842225    0.2422839795
 N   -0.0323354835    0.0218361341    0.2074588430
 C   -1.2699125919   -0.6858821871    0.5893631452
 C   -0.3934794475   -1.7881232700    1.2225133132
 C   -0.1463345631   -2.9932859901    0.3307160006
 C    0.7349794001   -0.7167085901    1.2248688051
 O   -0.9081149090   -2.1966841662    2.4995350675
 C   -0.0410641412   -2.7048258968    3.3930602159
 O   -0.3822010215   -3.1113376960    4.4639799220
 H    0.9868215661    1.8344697763    0.0146266253
 H   -0.7001311823    1.8609531411   -0.5196401941
 H   -0.3236650452    1.8806495300    1.2224107465
 H   -1.8552978439   -0.1698751730    1.3658458786
 H   -1.9255121563   -0.9647972192   -0.2421407616
 H    0.1637432477   -2.6575582996   -0.6623753732
 H    0.6403056489   -3.6369012185    0.7381878241
 H   -1.0602390224   -3.5869998054    0.2348882023
 H    1.7426670857   -1.0202407412    0.9204224126
 H    0.7862440914   -0.1995334376    2.1972862630
 H    1.0077007733   -2.6967156833    3.0402109546