15

 O    0.0307395638    1.4671960303    0.1023232765
 C    0.0684157751    0.0712203613    0.1160206378
 C   -0.0290637710   -0.5755366148    1.5005812468
 C   -1.5868583982   -0.1581251815    1.5273543702
 C   -1.2521612000   -0.7603493343    0.1274328420
 O   -1.5839008397   -1.5323266153   -1.0710323110
 C   -0.5749355734   -2.4544394955   -0.6859642694
 O   -0.1566991278   -3.3478110518   -1.3374519935
 C   -0.5272161444   -1.8963396543    0.7776764804
 H   -0.0818227981    1.7606460632   -0.8075346172
 H    0.8516418051   -0.3359050187   -0.5367365215
 H    0.6678166661   -0.4768246725    2.3318380486
 H   -2.2296732819   -0.7546257869    2.1745901679
 H   -1.7841976728    0.9103164069    1.5891101239
 H   -1.1381372329   -2.5452938661    1.4085362585