23

 C   -0.1417986293    1.4958367705   -0.0787345367
 C   -0.0841587782   -0.0366152368   -0.0376442805
 C    0.6768888050   -0.5598920026    1.1583248202
 O    2.0810480678   -0.1743462830    1.1273249094
 C    2.5111686215   -1.5528809848    1.2192602418
 C    1.0738563818   -2.0458218271    1.4212384417
 C    0.5588820056   -1.9146745241    2.8793662238
 C    0.0740571311   -0.4543017087    2.5947761401
 C    0.5780655726    0.6529823189    3.5084753397
 H    0.8681348313    1.9146258737   -0.0566878407
 H   -0.6381138720    1.8452912013   -0.9889053322
 H   -0.6937951831    1.8985247421    0.7768116740
 H   -1.0984893820   -0.4556438898   -0.0215713707
 H    0.3991896788   -0.4111616075   -0.9485578600
 H    2.9848790954   -1.8825884444    0.2849372394
 H    3.2103464363   -1.7170110859    2.0492527653
 H    0.7259310483   -2.8878993003    0.8234650907
 H   -0.2433194546   -2.6092812758    3.1384876244
 H    1.3409912670   -1.9980649841    3.6409249496
 H   -1.0199191939   -0.4228132408    2.5306504315
 H    1.6703276756    0.6976741033    3.4854701937
 H    0.1984189674    1.6339478979    3.2039279696
 H    0.2587759575    0.4776740180    4.5417699659