23

 C    0.0565525405    1.5413349262    0.0241728947
 C    0.0016958154    0.0110214681   -0.0054319117
 C   -1.4603788685   -0.4583907644   -0.1142737399
 C    0.8165917831   -0.5904679707   -1.1939858177
 C    1.2783569696   -1.9667906857   -0.7250737121
 C    2.5293643616   -2.0275057534    0.1357897984
 C    1.1882910300   -1.9991359361    0.7916278660
 O    0.8382776906   -3.1461606045    1.5081620231
 C    0.6535884805   -0.6367256796    1.2507977773
 H    1.0888552808    1.8972787004    0.1117410567
 H   -0.3689039278    1.9705265694   -0.8901813224
 H   -0.5089469545    1.9450354020    0.8717109175
 H   -1.9348143021   -0.0643785578   -1.0197847866
 H   -1.5244374142   -1.5518326283   -0.1593515539
 H   -2.0492792655   -0.1230257454    0.7466262572
 H    0.2051671984   -0.6497489137   -2.0999851086
 H    1.6720293808    0.0530436271   -1.4350298813
 H    1.0366348921   -2.8479637560   -1.3086823091
 H    3.0499506095   -2.9785136596    0.1646498297
 H    3.1699971879   -1.1516833035    0.1959585811
 H   -0.1164972722   -3.2591007374    1.4424893715
 H    1.4618967360   -0.0068646719    1.6412096869
 H   -0.0669380822   -0.7644922250    2.0651001032