18

 O   -0.0899587045    1.4404544776    0.0674693032
 C    0.0321010684    0.0302688850    0.0505958027
 C    0.6271610298   -0.5858960083    1.3308742274
 C    0.0753933211   -2.0138342961    1.3095241561
 C   -1.4101024513   -1.7973144879    0.9134386965
 O   -2.1881416905   -1.3920724228    2.0351816181
 C   -1.3791574846   -0.5891949997   -0.0626098426
 C   -1.9995550056   -3.0105115113    0.3138401127
 N   -2.4518384050   -3.9791379983   -0.1258558916
 H    0.7945677770    1.8194411243    0.0564678990
 H    0.6379277253   -0.2874807820   -0.8125648304
 H    1.7195716148   -0.5464778480    1.3627094415
 H    0.2329132933   -0.0405386738    2.1941032512
 H    0.5771960766   -2.6143119830    0.5423983130
 H    0.1619400931   -2.5505195170    2.2584908589
 H   -2.2091374214   -2.1186186366    2.6692258017
 H   -2.1240823672    0.1354377662    0.2714931912
 H   -1.6220437292   -0.8834445982   -1.0842488686