17

 C    0.2764315963   -1.0518202206   -0.5413565655
 C    0.0956367300    0.0961460580   -0.2168944671
 C   -0.0632555030    1.4458946474    0.1838488245
 C   -1.2755433649    2.0625055793    0.1428753611
 C   -1.5174660785    3.4598737055    0.3727259340
 C   -0.6567101035    4.4857289987    0.1149504519
 C    0.6702038189    4.3585477055   -0.4341819514
 C    1.4851114773    3.3004864357   -0.2579753066
 C    1.1530974809    2.1943723682    0.7064031705
 H    0.4187366075   -2.0627183963   -0.8329557454
 H   -2.1419881134    1.4557941480   -0.1068388528
 H   -2.5351028702    3.7250730814    0.6500497343
 H   -1.0484357717    5.4958606508    0.2102081682
 H    1.0138693197    5.1832671811   -1.0549919412
 H    2.4193511179    3.2414723064   -0.8089418528
 H    0.9077664154    2.6194598174    1.6886856973
 H    1.9936207115    1.5109008735    0.8328130308