17

 C   -0.0672683045    1.6277655118   -0.0563277609
 C    0.0123931072    0.1073629676   -0.0699483942
 C   -1.3421770045   -0.4950183399   -0.3819726722
 O   -2.3402357316    0.1462790883   -0.5894686411
 C    1.2190987550   -0.6158702901   -0.8147399190
 C    2.1253205723   -0.1830418061    0.3916534685
 C    0.7986287492   -0.6549791329    1.0849677377
 C    0.9267358373   -1.8242597885    0.0923416199
 O    0.9288289698   -3.0148582051    0.0682637080
 H    0.8818415926    2.1159577259    0.1631743039
 H   -0.4217062069    1.9878519489   -1.0256936746
 H   -0.7997861654    1.9527427967    0.6871654692
 H   -1.3641480440   -1.6072688516   -0.4096170267
 H    1.4522006072   -0.5766224345   -1.8766467128
 H    3.0180119849   -0.7826418437    0.5768505823
 H    2.3431529483    0.8795178094    0.4616941039
 H    0.5616932231   -0.6598956961    2.1467437680