20

 O    0.1869331812    1.4905500083    0.4608137648
 C    0.0536016140    0.2054768983   -0.1318531778
 C   -1.3241803811   -0.4017844338    0.1111548984
 C   -1.5511365889   -1.8809594208   -0.2107303880
 C   -0.7967350341   -2.7639877053    0.6971971556
 N   -2.0720432146   -2.1979114474    1.1831672427
 C   -1.8105126242   -0.7463362792    1.5533964742
 C   -0.9526754233   -0.5333875318    2.7878680307
 O   -1.5951414923   -1.0683885725    3.9333698741
 H   -0.4522772102    2.0779912631    0.0444422292
 H    0.2556357106    0.2368117438   -1.2148427828
 H    0.8410257058   -0.4038453049    0.3198894285
 H   -2.0712239597    0.2242457817   -0.3895698136
 H   -2.0535163887   -2.2563384241   -1.0965577595
 H   -0.8659667378   -3.8327888343    0.5196587500
 H    0.1465817315   -2.4463843191    1.1310087206
 H   -2.7882516681   -0.2999890933    1.7527035126
 H    0.0537979445   -0.9614269702    2.6630137620
 H   -0.8191543275    0.5387959815    2.9584834016
 H   -1.8783573769   -1.9613147200    3.7046052568