23

 C    0.0582449752    1.3409719686    0.3959791254
 O   -0.0468780784   -0.0607667601    0.4085145917
 C   -1.2135885822   -0.5270117210   -0.2416894346
 C   -1.2025003677   -2.0320099566   -0.2148697107
 C   -1.7257746760   -2.7875304745    0.9815179434
 C   -2.4617824414   -2.8618894603   -0.3363432359
 C   -3.8455870300   -2.2680300425   -0.5031690313
 C   -4.9407924524   -3.2422664927   -0.0804870575
 O   -6.1929747220   -2.6048446883   -0.2851372266
 H    0.9845166830    1.6058542960    0.9120772544
 H    0.0967160949    1.7418360451   -0.6301823776
 H   -0.7867440189    1.8216478701    0.9156971964
 H   -2.1106911918   -0.1269283616    0.2581200620
 H   -1.2362738402   -0.1582276054   -1.2826672769
 H   -0.3211155707   -2.4499536810   -0.6934813634
 H   -1.1774369437   -3.6539500554    1.3340780582
 H   -2.1819481034   -2.1991270328    1.7724457762
 H   -2.3253819087   -3.7890906422   -0.8895465035
 H   -3.9577194143   -1.3552165596    0.0908926308
 H   -4.0215956176   -1.9857656545   -1.5487853923
 H   -4.8626278780   -4.1682663913   -0.6741604229
 H   -4.7991288362   -3.5207784793    0.9758901601
 H   -6.8871385193   -3.2106299408   -0.0103466651