21

 C   -0.9550800781    1.6340128083    0.0811652949
 O   -0.8479280596    0.3503197632    0.6516841702
 C   -1.2037172534   -0.7173352267   -0.2194931275
 C   -0.1176371298   -1.0267610232   -1.2509657899
 C   -1.5032297496   -1.8892288007    0.6752955884
 C   -2.3632277895   -1.9045840844    1.9505571330
 C   -1.4990084528   -3.1122534872    2.4602339700
 C   -0.6949137492   -3.0258270743    1.1570946882
 O   -1.6284985858   -3.1846763625    0.0753400290
 H   -0.7534960978    2.3558546744    0.8766079708
 H   -0.2307586529    1.7993668837   -0.7293574911
 H   -1.9654343273    1.8184371749   -0.3167645127
 H   -2.1371006606   -0.4504332645   -0.7479587977
 H    0.8348989252   -1.2151298431   -0.7464836499
 H   -0.3927186679   -1.9132740948   -1.8263571665
 H    0.0177102717   -0.1921744260   -1.9436004322
 H   -2.2296511620   -1.0067370172    2.5548226398
 H   -3.4271744394   -2.0925859019    1.7871460734
 H   -0.9111716421   -2.8625450160    3.3464433640
 H   -2.0175568760   -4.0606346588    2.6188676750
 H    0.3332827468   -3.3066957732    0.9597561008