21

 C   -0.0205142502    1.6482470907   -0.0371663553
 C   -0.1008195762    0.1173602815   -0.0379280573
 C    0.6960465996   -0.5285847844   -1.1727550651
 C    2.2152667534   -0.2787896856   -1.1346784661
 O    2.7950425072   -1.3378091267   -1.8840595333
 C    2.0819725227   -2.5127033165   -1.5344130051
 C    0.6476404866   -2.0612700996   -1.2518274075
 C   -0.3370884117   -2.9318971255   -0.6035384215
 O   -0.4082586223   -2.6575808827   -2.0074305590
 H    1.0058421676    1.9988863148    0.1133325292
 H   -0.3764005200    2.0617231998   -0.9872155451
 H   -0.6345794987    2.0734745400    0.7623105608
 H    0.2549702783   -0.2726616315    0.9248079785
 H   -1.1515313606   -0.1841214622   -0.1249815503
 H    0.3129099413   -0.1609696036   -2.1333222405
 H    2.5222900452    0.6619797277   -1.5962339202
 H    2.5812802556   -0.2904870261   -0.0920707620
 H    2.1293995133   -3.2212566133   -2.3651871549
 H    2.5234898856   -2.9817047382   -0.6392189425
 H   -0.0593530157   -3.9532870718   -0.3406019381
 H   -1.1377981608   -2.5078768768   -0.0002803147