20

 C    0.2774625121    1.4679693239   -0.1864160593
 C    0.0243437890   -0.0043879576    0.0484399090
 O    0.8339437234   -0.8754363589   -0.8034929966
 C    1.2563876062   -1.6866710203    0.3125406104
 C    2.6289902690   -1.2733344351    0.8890428537
 N    1.9795364765   -0.2289334601    1.7528002474
 C    1.6214205238   -0.7036700093    3.1322102286
 C    0.1309742702   -0.8759642630    2.7248397282
 C    0.6097310897   -0.6786743721    1.2906121166
 H    1.3098668022    1.7191663075    0.0674823477
 H    0.0903586569    1.7207427606   -1.2344753595
 H   -0.3938356080    2.0723921792    0.4337283173
 H   -1.0402183922   -0.2501021607   -0.0875524595
 H    1.0081114652   -2.7440597438    0.1820313308
 H    3.1368054467   -2.0565430090    1.4653401260
 H    3.3234976104   -0.8558734265    0.1547485766
 H    2.1152232335   -1.6431570683    3.4087268542
 H    1.8310713460    0.0398264382    3.9059285270
 H   -0.3559735123   -1.8238524506    2.9634899088
 H   -0.5059995283   -0.0575839439    3.0716702926