19

 C    0.2750611056    1.2336367641    0.2352853043
 O    0.2371494283   -0.1770847360    0.0790698090
 C    0.5975084171   -0.6151342393   -1.2207638582
 O    1.9386851422   -0.2885542216   -1.5094999753
 C    2.7394736880   -1.4519116549   -1.7565008452
 C    1.8289690920   -2.6626501202   -1.6531241264
 C    1.2501248448   -2.9113917484   -0.2829393351
 O    1.8222349041   -2.3133996856    0.8356061432
 C    0.4585727365   -2.1215281966   -1.2960258547
 H    1.2909977826    1.6217129886    0.1062832680
 H   -0.3885912106    1.7233758713   -0.4920155373
 H   -0.0785877802    1.4530289601    1.2446823280
 H   -0.0492324738   -0.0919818573   -1.9434167365
 H    3.1786643086   -1.3704635251   -2.7573995239
 H    3.5456850078   -1.4824062677   -1.0150054765
 H    1.9621754396   -3.4806322609   -2.3511134193
 H    0.8904023767   -3.9205959624   -0.0910684491
 H    1.3366640629   -1.4904746091    0.9943681560
 H   -0.4616889219   -2.5254171591   -1.6993618310