19

 C    0.1166935203    1.5449459144    0.0161825431
 C    0.0761968981    0.0351644476    0.0071462759
 O    0.7822778166   -0.4784214733   -1.1161435131
 C    1.2070467152   -1.7787553974   -0.7429365532
 C    2.7175204876   -2.0499743558   -0.6975805033
 C    3.4211321814   -0.9955267518    0.1018454587
 C    2.6713876822   -2.0584844517    0.8460289238
 C    1.1609407635   -1.7867622546    0.8043016481
 O    0.7144919350   -0.4901690249    1.1650401174
 H    1.1522178690    1.8920458691    0.0483727071
 H   -0.3633014335    1.9342389692   -0.8851250783
 H   -0.4154015349    1.9248967409    0.8918657413
 H   -0.9668053108   -0.3309903066   -0.0257239313
 H    0.6250238165   -2.5547106768   -1.2501296905
 H    3.2413700713   -2.7226965736   -1.3642248938
 H    4.5010012563   -1.0941916988    0.1337728582
 H    3.0590418026    0.0264445029    0.0967203353
 H    3.1546484953   -2.7387367822    1.5353070099
 H    0.5498787482   -2.5676966465    1.2678157047