15

 O   -0.1554138554    1.4613943752   -0.0651137634
 C   -0.0854864519    0.0808037556    0.1440722639
 C    0.2917890527   -0.6919854387   -1.1250469166
 C    0.2408620313   -0.0388067616   -2.4355406887
 O    1.4887564830   -0.2603370277   -1.7662808231
 C    0.9380147135   -0.2214604840    1.2320901535
 O    1.6784743783    0.6345032166    1.6593879355
 C    1.0296083861   -1.6386744031    1.7985065051
 O    0.2996719660   -2.5316167924    1.4560446412
 H    0.6477158976    1.8373353383    0.3258485131
 H   -1.0632802435   -0.2964112826    0.4780157211
 H    0.1629439021   -1.7708366356   -1.0524276325
 H    0.0772213353   -0.6439280701   -3.3255389579
 H   -0.0733184920    0.9993093576   -2.4864063075
 H    1.8236671669   -1.7514795575    2.5642863864