18

 C    0.0192694026    1.3167087611    0.1175365805
 C    0.0844904388   -0.1312287550    0.0144386930
 C    0.1265481212   -1.3332266124   -0.0717676642
 C    0.1271959190   -2.7818681655   -0.1411356210
 O   -0.8491249133   -3.4584022494    0.1142282427
 N    1.3194555105   -3.3211089306   -0.6038247790
 C    2.6493892461   -3.0830403289   -0.0859238327
 C    2.0209611420   -4.4517108655   -0.0326354967
 C    1.5789803135   -5.0543019196    1.2795725299
 H    0.9448916893    1.7866984969   -0.2306947900
 H   -0.8080522694    1.7123635482   -0.4814561009
 H   -0.1470741489    1.6255035990    1.1553815705
 H    3.4155166316   -2.8553860900   -0.8226046248
 H    2.7342090237   -2.5357979370    0.8504800026
 H    2.3527426763   -5.1725483391   -0.7788081216
 H    1.3579459064   -4.2803452193    2.0198273001
 H    0.6739165996   -5.6521803749    1.1458386709
 H    2.3696375713   -5.6981337880    1.6778636405