21

 C    0.1596541462    1.0392417432   -0.3019216904
 O   -0.3905070096   -0.0230583992    0.4526144971
 C    0.5239960804   -0.5926081197    1.3349543335
 C    0.1931193972   -1.9564620397    1.8432775109
 C    1.3686072051   -1.7736481974    0.8940088679
 C    1.2805781769   -2.3129232214   -0.5056495357
 C    2.4241109083   -1.9824830171   -1.4962519451
 O    2.6585387265   -3.3778473175   -1.7662907479
 C    1.7161624927   -3.7793354666   -0.7511090739
 H    0.9992446760    0.7061492986   -0.9286572193
 H   -0.6360131755    1.4232179035   -0.9443085639
 H    0.5154810864    1.8521861259    0.3487972402
 H    0.9794863251    0.1210399281    2.0236316458
 H    0.3826747697   -2.1886471793    2.8849806930
 H   -0.7013003067   -2.4120129468    1.4313154009
 H    2.3576367738   -1.8406831325    1.3429080210
 H    0.2956648085   -2.0960242761   -0.9235626581
 H    2.1498422549   -1.4283245673   -2.4021452425
 H    3.2987656732   -1.4996254405   -1.0368278758
 H    2.2133542219   -4.2549767574    0.1057830549
 H    0.9542670488   -4.4629183908   -1.1439520229