19

 C   -0.1116731660    1.5743250300    0.0856031093
 C   -0.0213462372    0.0368968839   -0.0228890003
 O   -1.3231141782   -0.5063955809   -0.0546707383
 C    0.7381038472   -0.4180579889   -1.2783038017
 C    2.2186458343   -0.0110583867   -1.2504730964
 C    2.8634798931   -0.2597123325    0.0827328757
 C    2.1747553088   -0.4806076643    1.2112847985
 C    0.7044968526   -0.4973642793    1.2230412970
 O    0.0519795845   -0.8997059577    2.1707013364
 H    0.8698827581    2.0567327336    0.1137104506
 H   -0.6704625017    1.9574816425   -0.7731249174
 H   -0.6541834002    1.8457584473    0.9955206046
 H   -1.4972075009   -0.7927815107    0.8564071240
 H    0.6590123413   -1.5095933174   -1.3328410607
 H    0.2407669775   -0.0178286232   -2.1676705369
 H    2.7756151862   -0.5458192797   -2.0290283277
 H    2.3354660329    1.0545738147   -1.4984779444
 H    3.9512510206   -0.2568931775    0.1128697490
 H    2.6664563373   -0.6896285933    2.1561517988