10

 N   -0.0444515235    1.2562353313    0.3168191481
 C   -0.0391455948    0.0491370954   -0.0167055788
 C   -1.0874961920   -1.0416444616   -0.1148803256
 C    0.0986968818   -1.9075484357   -0.5822589359
 O    0.9964750825   -0.7630662945   -0.4402800956
 H    0.8893597981    1.6648134965    0.2491689284
 H   -1.5432411351   -1.3223581219    0.8357217247
 H   -1.8691003629   -0.8571383865   -0.8532590980
 H    0.3973975349   -2.7222735012    0.0815872090
 H    0.0694508010   -2.2541834519   -1.6179608362