17

 C    0.0539869318    1.5111153960   -0.0938644335
 C    0.0305281414    0.0150731527    0.0085670314
 C   -0.9300568743   -0.7940660364    0.8398871017
 C    0.5486256966   -0.9074406169    1.1068471008
 C    1.2532878965   -1.7905542479    0.0294874273
 O    0.2925480137   -2.2432178299   -0.9323655550
 C    0.7349982642   -0.9051963674   -1.0421156174
 C    2.5728195863   -2.4478514404    0.1159176305
 O    3.0218921405   -3.2050554862   -0.7076061811
 H    1.0581690727    1.8827761726   -0.3294017796
 H   -0.6248663141    1.8674258637   -0.8779728425
 H   -0.2571039373    1.9713020564    0.8490117928
 H   -1.4740068169   -0.2140700621    1.5790530842
 H   -1.4748819239   -1.6275992213    0.4146594888
 H    1.0157835179   -0.6382379475    2.0455615759
 H    1.2090072535   -0.6004027841   -1.9689762361
 H    3.1490017813   -2.1584352611    1.0239168518