24

 C   -2.6687636311    1.2353079949   -1.8384551087
 C   -1.8889657512   -0.0130526258   -1.4097384780
 C   -0.6488833301   -0.3457150673   -2.2773224891
 O    0.5771023373    0.1028645933   -1.7050550087
 C    0.7519864700    1.4989933981   -1.6602158919
 C   -0.4959011296   -1.8450101186   -2.4302258450
 C   -1.0919764695   -2.5534863047   -3.6002989282
 N    0.3532358550   -2.4693996540   -3.4372472984
 C    1.1067190155   -1.6440157743   -4.3700015514
 H   -2.0571505404    2.1412796103   -1.8011020886
 H   -3.0382283946    1.1310971978   -2.8646989219
 H   -3.5369518391    1.3948282867   -1.1911499054
 H   -1.5499621203    0.0778425860   -0.3710869192
 H   -2.5683189883   -0.8727841659   -1.4345840840
 H   -0.7715441302    0.1244717935   -3.2665186248
 H    1.7875394553    1.6827764886   -1.3612867867
 H    0.5807009733    1.9650972914   -2.6438232051
 H    0.0912339191    1.9861028188   -0.9288111749
 H   -0.4682539345   -2.3611613260   -1.4704265192
 H   -1.5359797450   -3.5399907554   -3.4922802380
 H   -1.5543226116   -1.9326171054   -4.3689432253
 H    0.5385024295   -0.8059972301   -4.8037428225
 H    1.9816564515   -1.2351897230   -3.8579264008
 H    1.4479543590   -2.2761057090   -5.1961583841