22

 C    0.9502057608   -0.4831141437    1.7484365895
 C    1.4108121716   -1.8816616608    1.3814631327
 O    1.3675757242   -1.9877832629   -0.0490290034
 C    1.7728668658   -3.1580818496   -0.5856842559
 N    2.1587541653   -4.1178660778    0.1555789549
 C    1.6578539865   -3.0810902524   -2.0717296911
 C    2.0361946412   -4.2302284908   -2.9719402437
 C    0.5858770131   -3.8669545916   -2.8248403008
 C   -0.3832359953   -4.7838672971   -2.1137974521
 H    1.6048652796    0.2729323933    1.3052934932
 H   -0.0695061715   -0.3020996203    1.3963609432
 H    0.9667291518   -0.3589441250    2.8353935695
 H    2.4308886359   -2.0831219880    1.7251081709
 H    0.7682987718   -2.6536823142    1.8180922798
 H    2.4639898111   -4.9078577094   -0.4075514593
 H    1.8411500549   -2.0804424400   -2.4475475477
 H    2.5549948948   -3.9960896808   -3.8948251619
 H    2.3678208374   -5.1531413023   -2.5050071600
 H    0.1511118296   -3.3217254437   -3.6583780040
 H    0.0728035047   -5.2469210970   -1.2346255186
 H   -1.2677437737   -4.2338553288   -1.7751145879
 H   -0.7213298595   -5.5829592071   -2.7823806475