14

 N   -0.0808148297    1.5021693223    0.0970513981
 C    0.0178849353    0.0531827141    0.0337265568
 C    0.6783976606   -0.5418158591   -1.2591479795
 C   -0.0433251194   -0.1468420048   -2.4537856642
 C   -0.6705494631    0.2023851953   -3.4258140385
 C   -1.3709366410    0.5903239256   -4.5322323046
 N   -1.9679787040    0.9240187192   -5.4709072456
 C    0.7642412115   -0.4433678637    1.2001730476
 N    1.3801146441   -0.8510204731    2.0879307617
 H    0.8369440870    1.9327011479    0.0364404400
 H   -0.6364709037    1.8432779925   -0.6810043381
 H   -0.9992749943   -0.3506966844    0.0990550073
 H    1.7176268964   -0.1962957001   -1.3188253037
 H    0.7106966405   -1.6357410217   -1.1862619574