19

 O   -0.2363173573    1.4713860266   -0.0242774461
 C   -0.1210054426    0.0596856410    0.0627635508
 C   -1.4927786660   -0.5444685136   -0.2307682831
 C   -1.3951925942   -2.0731130012   -0.3128367212
 C   -0.2849998167   -2.4734882705   -1.2902250106
 O    0.9602929798   -1.8866107609   -0.9527270048
 C    0.9039571431   -0.4697619399   -0.9516490564
 C   -0.0551042856   -3.9750522301   -1.3508381923
 O   -0.9408970948   -4.7888456180   -1.3418673085
 H    0.5904174718    1.8628678618    0.2756083083
 H    0.1983505213   -0.2495004557    1.0710884310
 H   -2.2086639815   -0.2342511426    0.5362284299
 H   -1.8468395456   -0.1344756157   -1.1856656573
 H   -1.1602959437   -2.4925406952    0.6727310626
 H   -2.3375118092   -2.5220214131   -0.6374274978
 H   -0.5779331429   -2.1564163506   -2.3109900520
 H    0.6374645140   -0.0868313316   -1.9510007321
 H    1.9140459624   -0.1214369528   -0.7107502699
 H    1.0181598179   -4.2588595279   -1.4157111205