21

 C    0.2287874771   -1.2945630870    1.1570940731
 O   -0.0800921533   -0.4686267119    0.0551557907
 C    0.6284655589   -0.7432490174   -1.1314158702
 C    2.0181948204   -0.1116936316   -1.1207778632
 C    0.6412977667   -2.2124736118   -1.6186945732
 O   -0.7141705973   -2.6354958340   -1.7843003024
 C   -0.1186590173   -1.8543288830   -2.8264031719
 C   -0.2224293466   -0.3767901419   -2.4184440467
 C   -1.6166134657    0.1976380954   -2.2221109778
 H    0.0182865673   -2.3513585208    0.9429126354
 H    1.2776115802   -1.2016292869    1.4757876190
 H   -0.4105652513   -0.9706701490    1.9817863781
 H    2.6292819225   -0.5075767546   -0.3026751357
 H    2.5487014594   -0.3109486099   -2.0572705408
 H    1.9347049568    0.9714424967   -0.9919690058
 H    1.3915798699   -2.9799471296   -1.4598599356
 H   -0.0918742747   -2.2936322317   -3.8172495685
 H    0.3755471889    0.2544242648   -3.0841755284
 H   -2.2177177992   -0.4698147787   -1.6025631022
 H   -1.5721343900    1.1713013815   -1.7257330416
 H   -2.1177068626    0.3298550813   -3.1873853123