16

 O   -0.1626750207    1.4500322768   -0.1065674204
 C   -0.0905288436    0.0521480894   -0.0576243282
 C   -1.4610356627   -0.5803732483   -0.0337580475
 N   -2.1144392321   -0.7653022907   -1.3266916489
 C   -1.6059549776   -1.9589960886   -0.5878256092
 C   -0.4206033004   -2.6128475324   -1.1917318852
 C    0.6813631792   -1.9209209157   -1.5126056546
 C    0.7724585121   -0.4829591930   -1.2122477089
 O    1.5295225962    0.2823940894   -1.7793919760
 H    0.5281591731    1.7108310877   -0.7376755110
 H    0.4330108384   -0.2778055294    0.8620813838
 H   -2.0744690167   -0.3099716257    0.8222988915
 H   -3.1244551971   -0.7022184301   -1.2201442889
 H   -2.3415838283   -2.6163270028   -0.1351049408
 H   -0.4884802615   -3.6743978131   -1.4139179275
 H    1.5160977818   -2.3678963735   -2.0416466782