15

 O    0.4759578039    0.1771042530    0.4779490765
 C    0.6213765360    1.2394016324   -0.0466668035
 O    0.4818947127    2.4033959718    0.6180154463
 C    0.7744933040    3.6086739851   -0.1135488104
 C    2.2294934219    3.9502916685   -0.0672881066
 C    3.1131689879    3.7353569291    0.9741999381
 N    4.3053202627    4.2279136116    0.5663867480
 N    4.2721310739    4.7547749392   -0.6709153149
 C    3.0120171564    4.5864472774   -1.0590592527
 H    0.8671764658    1.3815297613   -1.1171493352
 H    0.4342676126    3.5125300420   -1.1524467345
 H    0.1541653574    4.3726764662    0.3638432151
 H    2.9811054593    3.2677792472    1.9365686071
 H    5.1777651515    4.2180022982    1.0675654091
 H    2.7030526841    4.9261965368   -2.0373694424