17

 C   -0.0877115123    1.5913034908   -0.0387073439
 C   -0.0347262516    0.0805551554    0.0519539809
 C   -1.2665457482   -0.6334203756   -0.4012372615
 O   -2.2536939168   -0.0847515677   -0.8177805192
 C    1.2521838014   -0.6636819052   -0.1801278065
 O    2.3530832462    0.1188927159   -0.5104936687
 C    0.6863495238   -0.6464311563    1.2264676736
 C    1.3330129761    0.1445355668    2.3020637715
 O    1.3039053218   -0.1797665767    3.4649334696
 H    0.9042327493    2.0341744784    0.0464486322
 H   -0.5109064553    1.8732923877   -1.0059164256
 H   -0.7372681484    2.0078315927    0.7358100803
 H   -1.2102321389   -1.7445682563   -0.3275259836
 H    1.1910344027   -1.6187054324   -0.7028101319
 H    3.1520582456   -0.3569547719   -0.2584915759
 H    0.2219840370   -1.5605114118    1.5848400987
 H    1.8680220577    1.0569181962    1.9724869099