15

 C   -0.0200515265    1.5049393633    0.0475474204
 C    0.0087726663    0.0165885646   -0.0351259345
 C   -0.0040505180   -0.8593754180   -1.1132216495
 N   -0.0445707707   -0.8876694771   -2.4914043378
 N   -0.0290165727   -2.1177520881   -2.8655261847
 N    0.0217421458   -2.9393946544   -1.7615716686
 C    0.0396802201   -2.1917821939   -0.6200776597
 C    0.0797703500   -2.1545253541    0.7559946331
 N    0.0594267517   -0.7997022815    1.0663648999
 H    0.8776624620    1.9119249234    0.5293742334
 H   -0.0723138181    1.9199490103   -0.9609558518
 H   -0.8901021363    1.8729630311    0.6052986853
 H    0.0391735572   -3.9330460906   -1.9065498659
 H    0.1185813657   -2.9056504790    1.5244369140
 H    0.0797946535   -0.4514337060    2.0109332064