18

 O    0.0432830920   -0.0368507387   -0.1685377776
 C   -0.0315883035    1.1590866266   -0.0086090008
 C   -1.3349017800    1.9096020565    0.1792409790
 C   -1.1057449160    3.1950056239    0.9908686752
 C    0.2850710656    3.7644260378    0.7683031241
 C    1.0885216791    3.5066530307   -0.5361127035
 C    2.3243916312    3.7455127422    0.3474290354
 N    1.4498027289    2.8718525685    1.2633247564
 C    1.1962824548    2.0401055804   -0.0332719489
 H   -1.6819278595    2.1673408145   -0.8314383786
 H   -2.0875129604    1.2470627509    0.6116720760
 H   -1.8576109777    3.9503032440    0.7397798714
 H   -1.2099513009    2.9920644183    2.0632128171
 H    0.3679408215    4.7752402589    1.1799717977
 H    0.8880578101    3.8575453711   -1.5548284751
 H    3.2630449494    3.2652010360    0.0605870376
 H    2.4912425430    4.7518683848    0.7416787192
 H    2.0692282023    1.4564189136   -0.3338275347