9

 O   -0.0708607340    1.3520165226    0.0098927000
 C    1.2530157514    1.7095632197   -0.0005755781
 N    2.1354676074    0.7471019659   -0.0145633497
 C    1.3314565703   -0.3671428313   -0.0124478585
 C    0.0196096669   -0.0028079130    0.0021975594
 N   -0.7652294421   -1.0938730554    0.0041117851
 N   -0.0499329455   -2.1228498641   -0.0082297635
 O    1.4447662403   -1.6683491758   -0.0202609545
 H    1.4470354354    2.7709027816    0.0030588499