18

 C   -0.0732649714    1.5382345082    0.0684737181
 C    0.0074844453    0.0216254155   -0.0167678310
 C    0.7031080101   -0.4770949223   -1.2870603244
 C    0.8196255299   -2.0111454068   -1.2840068020
 C    1.3037367777   -2.5572249410    0.0502178773
 O    2.0172205581   -3.5264340734    0.1515210075
 C    0.7605127823   -1.8254897405    1.2789415266
 O    0.7324040388   -0.4197653143    1.1295263881
 H    0.9301267132    1.9743373500    0.0439987717
 H   -0.6488770738    1.9411048241   -0.7699340303
 H   -0.5553703563    1.8412965439    1.0013180567
 H   -1.0132543408   -0.4022405618    0.0225116829
 H    0.1572929865   -0.1408816675   -2.1754982520
 H    1.7020158322   -0.0265171610   -1.3283999057
 H   -0.1772021176   -2.4487225837   -1.4460946741
 H    1.4676000703   -2.3906554406   -2.0778817879
 H   -0.2538801851   -2.2200942509    1.4803590361
 H    1.3916837208   -2.0559941183    2.1394986523