21

 C    0.0013422004    1.5676737003    0.0058489504
 C   -0.0127101640    0.0411875454   -0.0247371986
 C    0.7597584007   -0.5898215220   -1.2272919190
 C    2.0134477761   -0.6848392395   -0.3102024037
 C    1.0500266527   -0.6098996273    0.9101435617
 O    0.7050777422   -1.8824206222    1.4392766680
 C   -0.0521364253   -2.7432273787    0.6224073975
 O    0.4954458423   -2.9847312469   -0.6447510491
 C    0.2443949507   -1.9781159005   -1.6225579183
 H    1.0117437769    1.9701866670   -0.1222416258
 H   -0.6217522383    1.9799167089   -0.7950898373
 H   -0.3864718179    1.9429891897    0.9589953952
 H   -1.0410040103   -0.3060405491    0.1171472320
 H    0.8335057977    0.0342427780   -2.1240224388
 H    2.6225325636   -1.5863312046   -0.3804058920
 H    2.6516963309    0.1987400419   -0.3811199776
 H    1.3779611617   -0.0229225919    1.7718882077
 H   -0.0567734829   -3.6995541537    1.1508423315
 H   -1.0878671112   -2.3777792154    0.5181432266
 H   -0.8342986423   -1.9311364570   -1.8454618810
 H    0.7583465963   -2.3304189823   -2.5220476295