15

 C    0.1818474099    1.5132656166    0.1176700888
 C    0.0418498123    0.0350546322   -0.0198082684
 C   -0.0452010445   -0.7420365679   -1.1615306136
 N   -0.1366273606   -2.0148794682   -0.6775375963
 N   -0.1284821880   -2.0326182815    0.6603352069
 N   -0.0036273382   -0.7976013839    1.0609169224
 C   -0.0362042042   -0.3813709089   -2.5940430409
 N    0.2794981474   -1.4179053432   -3.4525238879
 O   -0.3259498317    0.7305680932   -2.9899043313
 H    1.1766142671    1.7776609794    0.4922718855
 H    0.0226565675    1.9987482130   -0.8451329798
 H   -0.5472310263    1.8939955619    0.8387196197
 H   -0.3291719614   -2.8670649566   -1.1808079810
 H    0.9236404520   -2.1278454623   -3.1382469754
 H    0.3951398687   -1.1336547939   -4.4152388288