21

 C   -0.1031861382    1.4969878401    0.0984217268
 C    0.0416587792   -0.0089340704    0.0077565851
 C    1.4408938320   -0.5758043056   -0.1915543680
 C    0.7274868811   -0.7485452083    1.1291278601
 O    1.1570069786    0.0453748879    2.2074837862
 C    0.2400450275   -2.1249334231    1.5503688772
 C   -0.5944126499   -2.8217064435    0.5121778970
 C   -1.1901032020   -2.1874469748   -0.4957166827
 C   -1.1064234422   -0.7029890770   -0.7175312406
 H    0.7291636810    1.9438886315    0.6437556798
 H   -0.1425270721    1.9404125847   -0.9037300578
 H   -1.0278785258    1.7714632629    0.6194078800
 H    1.5641672950   -1.4433887300   -0.8320658964
 H    2.2596483926    0.1359615252   -0.2146923302
 H    1.9970739366   -0.3113709411    2.5164085912
 H    1.1003599520   -2.7535158024    1.8262015434
 H   -0.3429887869   -2.0012309188    2.4744850092
 H   -0.7182292332   -3.8958378196    0.6240731507
 H   -1.7983963214   -2.7497797629   -1.1999889627
 H   -2.0553574588   -0.2446803710   -0.3981006767
 H   -1.0356481750   -0.4898106839   -1.7941051715