15

 C   -0.0268650505    1.4298041588    0.0719275262
 C    1.4266216504    1.9423846709    0.0258943729
 O    2.2039337184    1.4635653354    1.1283612702
 C    1.9822324514    0.1416131065    1.3213232693
 C    0.9370063039   -0.5685904132    0.7768987497
 N    1.1190140392   -1.8152853515    1.2784505268
 N    2.2234867478   -1.8678623835    2.0613835065
 N    2.7399179361   -0.6642513896    2.0936365263
 N   -0.1204837836   -0.0422980963    0.0304444395
 H   -0.4959804106    1.7760963819    0.9992229661
 H   -0.5905784572    1.8461332991   -0.7663602690
 H    1.9003366898    1.6283923899   -0.9154441843
 H    1.4532751106    3.0325899946    0.0868677548
 H    0.5731178100   -2.6490170736    1.1340386229
 H   -0.1520885256   -0.3933366393   -0.9211041079