17

 C    0.1531937687    1.5033595306    0.0083339403
 C    0.0522081369   -0.0346565450   -0.0129569759
 N    0.5941594590   -0.5776634806   -1.2513315437
 C    1.8063214006   -0.9642922332   -1.2299402387
 N    2.4613765343   -1.3353004434   -2.3851978879
 C    2.6662843867   -0.9520040171    0.0141241926
 O    1.9067077055   -1.1101590447    1.2073945914
 C    0.6424645442   -0.6115998464    1.2706824987
 O    0.0470754168   -0.6597582777    2.3110685140
 H    1.1973562750    1.8334091111    0.0191610253
 H   -0.3193386812    1.9067641738   -0.8906176469
 H   -0.3491888943    1.9049285673    0.8919229920
 H   -1.0097859289   -0.2952349045    0.0295648976
 H    1.8510855689   -1.4270743376   -3.1858349139
 H    3.1526298497   -2.0661412223   -2.3095697467
 H    3.3923626178   -1.7712487351    0.0095314134
 H    3.2356958903   -0.0133608954    0.0546549285