19

 C    0.4288969389    1.6329790361   -0.8534227989
 C    0.0696892639    0.2482242824   -0.3241079623
 O    1.0691135229   -0.7459572764   -0.7354622490
 C    1.5145686358   -1.0148483659    0.6044964774
 C    0.4953179329   -0.0071031430    1.1366876155
 O    0.1608088005    0.4063730988    2.2060628908
 C   -1.3339834977   -0.1634195340   -0.6944558778
 C   -2.1050731734   -1.1977327292    0.0845592294
 C   -2.5041297445    0.2537580155    0.1643541396
 H    1.4542824105    1.9041303855   -0.5878656432
 H    0.3440164521    1.6425359970   -1.9447112662
 H   -0.2527267057    2.3836277097   -0.4438260669
 H    1.3466683613   -2.0535741854    0.9176571001
 H    2.5672783503   -0.7536222229    0.7754856952
 H   -1.4963974876   -0.1570204120   -1.7695698610
 H   -2.7343563622   -1.8801395625   -0.4752819355
 H   -1.6472688165   -1.6404340358    0.9625192862
 H   -2.2834937918    0.7766264284    1.0884788040
 H   -3.4126543998    0.5747552238   -0.3324410374