16

 C    0.0698919126    1.4733034892   -0.0207836200
 C    0.0973311311   -0.0203438681   -0.0301047938
 C    0.4567924659   -0.9950504128   -1.0683213615
 C    0.4738884438   -2.1054712377    0.0456615034
 C    0.6245390442   -0.9383695545    1.0824419943
 O    1.9523280720   -0.5679376282    1.3585550732
 C   -1.0311999704   -2.0879445843   -0.1542970525
 O   -1.9404334501   -2.8461506374   -0.0359058244
 N   -1.0203626690   -0.7534923400   -0.7525779441
 H    1.0551834326    1.8589311787    0.2554081854
 H   -0.2016713655    1.8602463760   -1.0056947601
 H   -0.6627528622    1.8414092296    0.7046389151
 H    0.8278294428   -0.9417299558   -2.0808561268
 H    1.0679097371   -3.0127756153    0.1133154669
 H    0.0283919590   -1.0286289734    2.0020779056
 H    2.3014632361   -1.1621226458    2.0302168191