17

 C    0.2170196254    1.6248505248   -0.4717833076
 C   -0.0463489485    0.1619304983   -0.1137489173
 C    0.8118456605   -0.8996261288   -0.8423025890
 O    1.4598176333   -1.2624199717    0.4176667095
 C    0.7276292192   -0.3388319219    1.1199733475
 O    0.7777608046   -0.1070312497    2.2845102731
 C   -1.5345796510   -0.1381086648   -0.1097090713
 C   -2.2336815125   -0.8353519518    0.9796128744
 O   -2.3288499410    0.5840032111    0.8208893810
 H    1.2880905829    1.8465658673   -0.4844540286
 H   -0.1947966958    1.8591943008   -1.4592088666
 H   -0.2649630643    2.2732515358    0.2636159113
 H    0.2748280972   -1.7549154372   -1.2592899628
 H    1.5424091556   -0.5166739098   -1.5579963793
 H   -1.9654047578   -0.1943990271   -1.1129927160
 H   -3.1440784878   -1.3908483190    0.7601364967
 H   -1.6800781401   -1.1623130163    1.8563916848