15

 C    0.0621469586    1.5738916455   -0.1756006222
 C   -0.0434776824    0.0636479451    0.0397947367
 N    0.5629176097   -0.7218019674   -1.0243608510
 C    1.8557929956   -1.0920763874   -0.7237966216
 O    2.7037523105   -1.5186020409   -1.4489370680
 O    2.0431911889   -0.9095701701    0.6317758463
 C    0.8073696612   -0.5008974147    1.2217119306
 C    1.0560310957    0.4511641149    2.3047928922
 N    1.2108794945    1.1965083274    3.1727614524
 H    1.1064011097    1.8880941192   -0.2642069626
 H   -0.4618365096    1.8556178075   -1.0940608901
 H   -0.3937757376    2.1186928148    0.6552695348
 H   -1.0895472946   -0.2223036432    0.1846433146
 H    0.3574742429   -0.5333763061   -1.9932347915
 H    0.3129637668   -1.3838841448    1.6451591594