20

 C   -0.0076876588    1.3996616464   -0.0680611593
 O   -0.0072985781   -0.0056604077   -0.0175357479
 C    0.6340943608   -0.5902169744   -1.1242344499
 C    0.5794548956   -2.0773250335   -0.9756966494
 C    0.0294750964   -2.8521202394    0.0198102814
 C    0.2534734709   -4.2131301368   -0.3262656827
 C    0.9321281529   -4.2237020223   -1.5202123506
 N    1.1312756766   -2.9200564601   -1.9167954367
 C    1.8111263032   -2.5100135758   -3.1259271584
 H    1.0151144647    1.8095886116   -0.0771957402
 H   -0.5355805895    1.7774499465   -0.9584813884
 H   -0.5232793610    1.7572968857    0.8261562241
 H    0.1458321901   -0.2658915045   -2.0642088127
 H    1.6812854634   -0.2350527310   -1.1905722284
 H   -0.4740578341   -2.4687255089    0.8921832825
 H   -0.0489560126   -5.0828840292    0.2365038538
 H    1.2943992905   -5.0372043007   -2.1290366796
 H    1.1506784546   -1.9297882201   -3.7804545784
 H    2.6957422663   -1.9025922001   -2.9027557839
 H    2.1353695783   -3.3990465456   -3.6692218154