11

 O   -0.0115664925    0.0609616913   -0.7091970734
 C    0.0480287058    1.1730981776   -0.2732610281
 N   -1.1381937106    1.9217135583   -0.0374778002
 N   -1.3763553866    3.0719274519    0.6692937076
 N   -0.5984158920    4.0545855953    0.6103246153
 C    0.5689456900    4.0676442783   -0.1753551383
 N    1.4582167471    3.1698595643   -0.3223810489
 C    1.3310113346    1.8872959597    0.1916446138
 O    2.1417560415    1.3183157213    0.8675907277
 H   -1.9632270034    1.3308726113   -0.0229754545
 H    0.7243550961    5.0429527406   -0.6352067109