17

 C   -0.0252487407    1.4038542511    0.0290389978
 C    1.4116022639    1.9525071162    0.0125608314
 C    2.1682857344    1.2594889767   -1.0817898107
 C    3.3354376876    1.5349130521   -1.7199952669
 O    3.6163019484    0.5701307246   -2.6384329190
 C    2.6051595633   -0.3400706256   -2.5829635986
 C    1.6903470187    0.0275432599   -1.6496368058
 C    0.3842940173   -0.5698223953   -1.2092363885
 O   -0.0366844862   -0.0152860175    0.0291696013
 H   -0.5510918819    1.7127983297    0.9363628385
 H   -0.5860103990    1.7890446936   -0.8388994391
 H    1.3968997191    3.0401964135   -0.1204629643
 H    1.8757315930    1.7535310834    0.9865073784
 H    4.0573544561    2.3314366532   -1.6437744919
 H    2.6875075498   -1.1709187385   -3.2643247384
 H   -0.3938784515   -0.4024481946   -1.9743683151
 H    0.4587513876   -1.6496296626   -1.0481839494