21

 C    0.0704809572    1.3250994185    0.2620830559
 O    0.0137592045   -0.0135551376   -0.2004674505
 C   -1.2514268750   -0.5592059992   -0.1331091980
 C   -1.8241533672   -1.0740616796    1.1570442758
 C   -1.6182223680   -2.0296475993   -0.0038203908
 C   -2.7011701280   -1.8630955285   -1.0943213984
 C   -4.1539420713   -1.4607912136   -0.6901583295
 C   -3.7741716629    0.0505647780   -0.8363910869
 C   -2.3243258214   -0.3576410315   -1.2341958433
 H    1.1096598243    1.6505766572    0.1755659813
 H   -0.5618409546    1.9908587465   -0.3426586799
 H   -0.2475372051    1.4009485651    1.3114471743
 H   -1.0789284371   -1.1845028304    1.9389971161
 H   -2.8129117281   -0.8118659236    1.5207287161
 H   -0.9746960163   -2.8945850687    0.1045061715
 H   -2.5912541500   -2.5447395528   -1.9379065702
 H   -4.9047450210   -1.7873336434   -1.4135937541
 H   -4.4794190404   -1.7839291023    0.3019572041
 H   -4.3155075661    0.5543288795   -1.6408937227
 H   -3.8654838155    0.6607677796    0.0664219910
 H   -1.9135532878    0.0318239261   -2.1660709216