23

 C   -1.1791287913   -0.0143398972   -0.5701327212
 C   -1.4786042374   -0.7220158250    0.7575003067
 C   -0.2536281590   -0.9269608755    1.6291245043
 C    0.4303563285    0.3348909014    2.1191918970
 O   -0.5377889847    1.2267095136    2.6264301723
 C    0.0228404682    2.4162547695    3.1262316259
 O   -0.3700581743   -1.9574430012    2.6278839172
 C    0.5773870168   -2.1459953664    1.5711499262
 C    0.3679011962   -3.3078748736    0.6327305271
 H   -0.4410607890   -0.5649420855   -1.1633270155
 H   -2.0892039497    0.0759977392   -1.1705252456
 H   -0.7936186221    0.9963580329   -0.4055941215
 H   -2.1975487538   -0.1312570081    1.3337175005
 H   -1.9457616403   -1.6926899208    0.5745741913
 H    1.1591153087    0.0637973085    2.8988630702
 H    0.9874718847    0.8089504536    1.2915923605
 H   -0.7992587306    3.0416557186    3.4823422736
 H    0.7112648159    2.2225045248    3.9638832842
 H    0.5775222719    2.9657829089    2.3483481578
 H    1.6142491355   -2.0379559286    1.9028256988
 H   -0.6616005249   -3.3724411254    0.2770659635
 H    1.0332289706   -3.2210116810   -0.2332804264
 H    0.6079783703   -4.2464135326    1.1435344029