18

 C   -0.0198972056    1.4293303351    0.0839434686
 C   -0.0372179475   -0.0591881467    0.0225275244
 C   -0.0436377072   -0.9047085539   -1.0202664058
 C    0.0176224437   -2.2854432300   -0.3770062771
 C   -1.0003659245   -2.1019112572    0.7958314809
 C    0.0239617476   -1.0021680183    1.2265023969
 C    1.1489692091   -1.9923455448    0.6976371179
 O    1.5844096580   -3.0271938773    1.5297972650
 H    0.8745941314    1.7982597075    0.6021845484
 H   -0.0338204861    1.8678013137   -0.9182300440
 H   -0.8827504214    1.8209958828    0.6378863674
 H   -0.0307988820   -0.6851705214   -2.0791483186
 H    0.0363493565   -3.1717346284   -1.0109715970
 H   -2.0087134558   -1.7721118502    0.5348196964
 H   -1.0622720957   -2.9552860911    1.4828304123
 H    0.0511565981   -0.5771100463    2.2306240132
 H    2.0509996225   -1.5142546107    0.3094664624
 H    0.8217266091   -3.4878348027    1.8945814789