12

 O   -0.0936935741   -0.0142751040   -0.0007848646
 C    0.0070270451    1.1914763216    0.0071429224
 C    1.2566679482    1.9050509022   -0.0009568004
 C    2.2859541584    2.5385492929   -0.0071746247
 C    3.4881277313    3.2825475163   -0.0144946023
 N    4.6871382167    2.6953557896   -0.0320858500
 N    5.5150325340    3.7524845801   -0.0329550931
 C    4.8146913773    4.9100285271   -0.0163492745
 N    3.5263110330    4.6551349748   -0.0042361094
 H   -0.8846747345    1.8499997161    0.0219390300
 H    6.5119753296    3.6043557098   -0.0449979813
 H    5.2796494951    5.8842383036   -0.0138681121