15

 O   -0.1754299291    1.4734171978    0.3023429872
 C   -0.0165379235    0.0692254313    0.1166742416
 C    0.5853313321   -0.5328750189    1.4007968375
 O   -0.2584609274   -1.6081562559    1.7936145927
 C   -1.5730523553   -1.2547854402    1.4032157340
 C   -1.4094327131   -0.6364160300    0.0031123451
 O   -2.4378865676    0.2416467352   -0.3860828478
 H   -0.3602605382    1.8583814719   -0.5611586050
 H    0.6066791296   -0.1256551767   -0.7627053712
 H    1.5942315352   -0.9308966932    1.2709873051
 H    0.6110942738    0.2572717546    2.1663821306
 H   -2.1906245660   -2.1550790331    1.4243133703
 H   -2.0156487347   -0.5070233950    2.0845958350
 H   -1.3697837385   -1.4279296553   -0.7503532413
 H   -2.3087181071    1.0416688976    0.1409829761