16

 O   -0.0958256023    0.0261620379    0.3601569196
 C   -0.0799826209    1.1993886691    0.0739509018
 C   -1.2832549339    2.0994570596   -0.1824412989
 O   -1.4564503577    2.9315901603    0.9880106030
 C   -0.8178698984    3.4969239547   -0.1523120330
 C    0.6960625629    3.4592704035   -0.0699651698
 C    1.4687560848    3.7096865504    1.2607447226
 C    1.9557572368    2.2321894343    1.1736647956
 N    1.0352979159    2.0238181573    0.0249937919
 H   -2.1893347760    1.7400838711   -0.6569349311
 H   -1.3449702006    4.3082966150   -0.6451195155
 H    1.1434535113    3.9400710682   -0.9472718686
 H    2.2394345048    4.4804566542    1.2300670846
 H    0.7964911223    3.8841406107    2.1017271904
 H    3.0055526188    2.1127416574    0.8926017489
 H    1.7307247522    1.5819264763    2.0219024085