15

 C   -0.0326948683    1.4057698773    0.2537522912
 N   -0.0074209326   -0.0554038882    0.1358111643
 C   -1.2341362996   -0.7058330767   -0.0345928688
 N   -2.3138039546   -0.0573174754   -0.1296751341
 O   -1.1508680022   -2.0644266371   -0.1146855974
 C    0.0340911592   -2.6010360331    0.4266752035
 O    1.1696287947   -2.0245723880   -0.1756880467
 C    1.2184873112   -0.6649477469   -0.1280301813
 O    2.2458586423   -0.0735676136   -0.3031239613
 H    0.9745285916    1.7355079630    0.4974870571
 H   -0.3568707354    1.8624546973   -0.6847893544
 H   -0.7387062202    1.6850424871    1.0354877971
 H   -3.1020160735   -0.6968885130   -0.2060336204
 H    0.0620473258   -2.4375934255    1.5123787291
 H    0.0456990616   -3.6634031371    0.1886134621