21

 C   -0.2295709011    1.4560376377   -0.1729923657
 C   -0.0363017505   -0.0488450033   -0.0416583026
 C    1.1271120814   -0.6032196649   -0.9621117540
 O    1.5875450034    0.1340532353   -2.0545593743
 C    1.9780059743   -0.5543241130    0.3024884824
 O    3.1239941998   -0.2155293596    0.4411212288
 C    0.7571103118   -0.5551895412    1.2356320057
 C    0.8697865932    0.3515366418    2.4567010217
 C    0.3210884264   -1.9721384592    1.6414573151
 H    0.7123553964    2.0018354460   -0.0563561011
 H   -0.6186793728    1.6982505596   -1.1655926137
 H   -0.9327175776    1.8342598652    0.5749989589
 H   -0.9842723293   -0.5730420457   -0.1875730822
 H    0.8967649029   -1.6270321030   -1.2789329723
 H    2.4250878634    0.5349229913   -1.7875220825
 H    1.1979097365    1.3592802058    2.1927135540
 H   -0.0923637525    0.4268132594    2.9747680538
 H    1.6001153276   -0.0571273269    3.1620623638
 H    1.0168113024   -2.4003350018    2.3701513376
 H   -0.6721183779   -1.9369156292    2.1023825077
 H    0.2670358024   -2.6533849844    0.7872704989