20

 C   -0.0613017904    1.5523303402    0.2764030819
 C   -0.0278392016    0.0340701303    0.0981783238
 O    0.8702419566   -0.5892104305    1.0162183680
 C   -1.3932390444   -0.6099418318    0.1735434968
 C   -1.7951163981   -1.7430208247   -0.6834566346
 N   -2.4098508583   -0.4143923210   -0.9209860026
 C   -3.4320993953   -0.1109302014    0.1590319173
 C   -3.6472382181   -1.1271830996    1.2437615099
 C   -2.4237733987   -0.2510096301    1.2747656512
 H    0.9425535871    1.9646744487    0.1457736204
 H   -0.7321890357    2.0090780547   -0.4569468329
 H   -0.4118340089    1.8301747150    1.2774125863
 H    0.3825537649   -0.1923823004   -0.8922655147
 H    0.5780038990   -0.3674227582    1.9071701553
 H   -1.1086018432   -2.0130691190   -1.4809456526
 H   -2.3882847329   -2.5742144349   -0.3221997089
 H   -4.1431296385    0.6755468867   -0.0587043970
 H   -4.4116765640   -0.8206717060    1.9522444831
 H   -3.6109139728   -2.2004677287    1.0978201550
 H   -2.2113797467    0.4232562309    2.0936756944