17

 C   -0.1572857710    1.5388983925    0.0084535612
 O    1.1374847349    0.9385469932    0.0669181847
 C   -0.0033168215    0.0785221121    0.0288373025
 C   -0.2512817923   -0.7092845477    1.2722007962
 O   -1.4115234081   -1.5660450720    1.2499547200
 C   -0.1356180052   -2.1666995719    1.2984711087
 C    0.4049024897   -3.1732684185    0.2864002629
 O    0.9020154275   -3.9950016478    1.3660568517
 C    0.3378089735   -3.1323752160    2.3793681341
 H   -0.4738150956    2.0575383198    0.9123839900
 H   -0.4011513540    2.0384503481   -0.9274981129
 H   -0.1382814680   -0.4717461951   -0.9027020557
 H   -0.1053515744   -0.1563341441    2.2013484651
 H   -0.3703518205   -3.6784212221   -0.3035873405
 H    1.2081611940   -2.8293798380   -0.3761269375
 H    1.0964161451   -2.7611806974    3.0783564316
 H   -0.4750461242   -3.6147393151    2.9369088078