13

 O   -0.3744149773    0.2812646900   -0.5878854781
 C   -0.0027199309    1.0771146818    0.2426112332
 C    1.2129967791    1.8470897887    0.1384727688
 C    2.2254115143    2.5025074975    0.0769628419
 C    3.4256516808    3.2923296024   -0.0256013592
 C    4.1106421894    3.4637987557   -1.4036755156
 O    3.9370217889    4.9133991818   -1.3195485985
 C    3.2645474202    4.8395054637   -0.1339423262
 O    2.7818383538    5.7108543662    0.5039786821
 H   -0.5856586348    1.2740169102    1.1641566507
 H    4.1288905066    3.0429939979    0.7756403007
 H    5.1678733402    3.2007293779   -1.4516615421
 H    3.5590329397    3.0541360261   -2.2500342679