18

 C   -1.9328883573    0.7995247172    0.6082484112
 N   -1.0175736275   -0.2831944284    0.3086461560
 C   -0.3890018648   -0.7946829498    1.2759752257
 N    0.5802549690   -1.8132571910    1.0893541181
 C    1.0363964687   -2.0582912917   -0.2121752856
 O    1.7876046083   -2.9442397610   -0.5386817011
 C    1.0058292556   -2.5368852848    2.2414839938
 C    2.2820292974   -3.3333304507    2.1414564169
 N    0.2821786709   -2.4290323854    3.2835323412
 H   -1.6204992653    1.7013377352    0.0695838524
 H   -2.9317453493    0.5396382235    0.2411854764
 H   -2.0015395838    1.0378735378    1.6806576751
 H   -0.5080682891   -0.5263154798    2.3264122947
 H    0.6042811086   -1.3283067695   -0.9088925957
 H    2.5587707267   -3.6732218235    3.1421527420
 H    2.1600754078   -4.1931800147    1.4814914421
 H    3.0968154651   -2.7384488495    1.7220041291
 H    0.6993242190   -2.9432008839    4.0569341177