18

 C    0.0141265638    1.5047905506   -0.0342857624
 C    0.0101457512   -0.0374180502   -0.0062305099
 C    0.7763451867   -0.6800862793   -1.2067001581
 C    1.5607321968   -1.8878276653   -0.6308064638
 O    2.8400603048   -2.0747167262   -1.2130595050
 C    1.5823177419   -1.5994908463    0.8529775731
 C    0.7578485401   -0.6144165191    1.1941259421
 C   -1.3862727931   -0.5074467680    0.0250526500
 N   -2.4841705092   -0.8692936564    0.0558263408
 H    1.0460359736    1.8668099571   -0.0167433313
 H   -0.4736039520    1.8788896483   -0.9387269837
 H   -0.5136156703    1.9151945439    0.8311385066
 H    0.1182976899   -0.9472665027   -2.0348014206
 H    1.5020466726    0.0494657424   -1.5819644267
 H    1.0359312957   -2.8301498527   -0.8289454056
 H    3.3797308632   -1.3082010171   -0.9881038828
 H    2.1998711345   -2.1745668619    1.5338310153
 H    0.5685733998   -0.2487414170    2.1969665621