21

 C   -0.7689936628    1.5054279540    1.5692395233
 C   -0.8645007080   -0.0129009318    1.4019209187
 C   -1.2291137332   -0.4348151423   -0.0294785681
 C   -1.2774637886   -1.9428236104   -0.1745429871
 C   -2.5476663789   -2.7061226496   -0.0027333898
 N   -1.8936777894   -2.6425616656   -1.3090096558
 C   -2.5463099603   -1.8634744027   -2.3527996098
 C   -3.4509542659   -2.7167363487   -3.1334853117
 N   -4.1782043062   -3.3700087395   -3.7482651849
 H   -0.5040676430    1.7752037201    2.5959068499
 H   -0.0076342447    1.9300949412    0.9057921201
 H   -1.7219517420    1.9917036280    1.3329183810
 H    0.0914911814   -0.4749398900    1.6799608436
 H   -1.6112926646   -0.4180405968    2.0959855105
 H   -2.1918131117    0.0150337198   -0.2978882036
 H   -0.4856418447   -0.0233825684   -0.7263393893
 H   -0.3570231103   -2.4335865401    0.1411515530
 H   -2.5640045517   -3.6842479309    0.4688918893
 H   -3.4560934717   -2.1203977212    0.1377635381
 H   -3.1346019097   -1.0056216422   -1.9898853501
 H   -1.7804766242   -1.4653208928   -3.0286620870