17

 O    0.2404805086   -0.1187143698    0.2279544925
 C    0.1672274053    1.0273368165   -0.1270816879
 C    1.3169040405    2.0259517970   -0.0462377027
 N    1.3511754663    2.9500671609   -1.1478583343
 C    1.5964738311    2.5694466224   -2.5288956214
 C    1.5883474824    3.9412420629   -3.2400773069
 N    0.7532699713    4.7312454002   -2.3440831202
 C    0.7940072410    4.2162611848   -1.0544108928
 O    0.4087882621    4.7545169924   -0.0384165783
 H   -0.7751461769    1.4582007986   -0.5388087979
 H    1.1626417056    2.6304773763    0.8575818288
 H    2.2593725961    1.4770012746    0.0553605606
 H    2.5526547555    2.0490271514   -2.6417211080
 H    0.8049798778    1.9140214982   -2.9210222676
 H    2.6084643883    4.3427930873   -3.3176973785
 H    1.1642509903    3.8796073031   -4.2453168432
 H    0.7349430046    5.7363252232   -2.4167153422