17

 C    0.0055142204    1.5320343661    0.0502705081
 C    0.0545841710    0.0163804930    0.0525819596
 C   -1.1858345129   -0.6570461248   -0.5147618670
 C    1.3267192259   -0.7448264364   -0.1795670193
 O    2.4581629406   -0.0051835157    0.3561877699
 C    1.9638256890   -0.1337921436    1.6529807036
 O    2.5113919447    0.1440439136    2.6689845087
 C    0.6794856691   -0.7934051742    1.2034344641
 O   -0.0662974139   -1.6983613483    1.9096163354
 H    0.9457611659    1.9736204855    0.3847042172
 H   -0.1959242874    1.8990637848   -0.9620527479
 H   -0.7978253357    1.8901193596    0.7021244246
 H   -1.3733819511   -0.2908744620   -1.5291735954
 H   -1.0854113002   -1.7444046049   -0.5493506800
 H   -2.0625160437   -0.4269694110    0.0981137333
 H    1.5378479285   -1.5021048780   -0.9218062462
 H    0.5232339997   -2.3552932538    2.2981923913