16

 C    0.0199111851    1.5125564005   -0.0468902288
 C   -0.0472632484   -0.0082981653    0.0980050423
 N   -1.4030256248   -0.5228349780   -0.0107179695
 N   -2.1078887565   -0.8724354425    1.0900248797
 N   -3.2955771095   -1.2590424857    0.6833739021
 C   -3.3585798536   -1.1561437182   -0.6569997659
 O   -4.4409951372   -1.4773401558   -1.4080235564
 C   -2.1533454686   -0.6831832236   -1.1249883681
 O   -1.6623690798   -0.3950864459   -2.3513285464
 H    1.0548168587    1.8502167349    0.0613375469
 H   -0.3418925170    1.8274162281   -1.0293647113
 H   -0.5861643587    1.9985607997    0.7223085258
 H    0.5630354428   -0.4986120678   -0.6665683713
 H    0.3080973650   -0.3292617724    1.0792090699
 H   -5.1201509813   -1.7930786460   -0.7997316305
 H   -2.3400001360   -0.6129821119   -3.0014254784