14

 C    0.0725397798    1.4847616125   -0.0153872014
 C   -0.0710875697    0.0062875459    0.0170142720
 C   -1.1240231002   -0.8371128279   -0.1303176724
 C   -0.6077606274   -2.1790482945    0.0093740464
 C    0.7321074080   -2.0279615309    0.2323106510
 O    1.0696355496   -0.7172071769    0.2395330336
 C   -1.3287126674   -3.3925545062   -0.0670343260
 C   -1.9590976186   -4.4163377742   -0.1352855512
 H    0.7605244689    1.8034187048   -0.8064540076
 H   -0.8995432732    1.9466423604   -0.1999392691
 H    0.4621393788    1.8706010937    0.9332944272
 H   -2.1502924433   -0.5639822232   -0.3159794502
 H    1.5304885426   -2.7319495991    0.3957043831
 H   -2.5089401078   -5.3224307444   -0.1943133353