20

 C   -0.0470098207    1.5620332732   -0.0140553535
 C    0.0200651414    0.0289664038   -0.0279408005
 C    0.7920410397   -0.5490924291   -1.2573914014
 C    1.3787261195   -1.8718935324   -0.7299641472
 C    1.5611989079   -1.6160751912    0.7592504402
 C    2.1844311916   -0.3286681452    1.1593324108
 N    0.7200571425   -0.4829259839    1.1878407004
 C   -1.3391665853   -0.5287614228    0.0010494459
 C   -2.4527400835   -0.9806820427   -0.0085291259
 H    0.9608924690    1.9874013038   -0.0246842800
 H   -0.5877749977    1.9278983934   -0.8908592720
 H   -0.5643623694    1.9099919523    0.8829292852
 H    0.1366476906   -0.6853538304   -2.1186937508
 H    1.5824962694    0.1454735024   -1.5561791058
 H    0.6656486777   -2.6905928231   -0.8707700619
 H    2.3085839621   -2.1529080058   -1.2337174242
 H    1.5995075372   -2.4694596083    1.4300528354
 H    2.6350020366   -0.2229777921    2.1416557683
 H    2.6475478581    0.2833187330    0.3899484424
 H   -3.4369092667   -1.3794752347   -0.0017540057