17

 O   -0.1113617030    1.3520909836    0.0297112247
 C    1.2248965770    0.8310807425    0.0048590623
 C    0.0608326721   -0.0526457727    0.0199504098
 C   -0.4287824261   -0.9953486154    1.0945770057
 C   -1.9041142466   -1.2322150177    0.9170421991
 C   -0.9534846943   -1.9559832619    0.0023361510
 C   -0.4589306737   -1.0042386644   -1.0620076621
 O   -1.1883606982   -0.6197585390   -2.2122826178
 C    0.0717571271   -1.2801799993   -2.3956015099
 H    1.7746382567    0.9943914320   -0.9213161254
 H    1.8017652000    0.9785222666    0.9175965562
 H    0.0999474268   -1.2440376595    2.0051339820
 H   -2.3672897994   -1.8479373117    1.6810737072
 H   -2.5399035922   -0.4427480187    0.5281291104
 H   -0.8781459932   -3.0347488494   -0.0309039836
 H    0.8700341981   -0.6618767023   -2.8044301040
 H    0.0160978288   -2.2907903627   -2.7995498154