17

 N    0.0958723275    1.3465026600    0.2223871810
 C   -0.0012190853   -0.0063727288    0.0352676660
 C   -1.1824912884   -0.6765270915   -0.0264928807
 C   -1.2474080582   -2.1228673764   -0.0567451183
 O   -2.2850933060   -2.7511907933   -0.1954379358
 C    0.0662513225   -2.8868387629    0.1742016404
 N    1.3307435044   -2.1787948065   -0.0360813289
 C    1.5639698448   -1.5231249836   -1.3072320116
 C    1.2971351569   -0.7188201287   -0.0659752276
 H    0.9379818249    1.8111703051   -0.0775661145
 H   -0.7453808562    1.8948103908    0.1349867074
 H   -2.1290443095   -0.1443915258   -0.0297875217
 H    0.0489196802   -3.2360922969    1.2141871779
 H    0.0571636532   -3.7807980932   -0.4552848505
 H    2.5776510051   -1.5975919960   -1.6935199338
 H    0.7753432908   -1.5265400896   -2.0572193164
 H    2.1301771832   -0.2310166727    0.4380240271