21

 C   -0.2270726438    1.6129490565   -0.0983318880
 C   -0.0285854025    0.1021696547   -0.0075686286
 C   -1.3516715729   -0.6177808250   -0.2893123083
 C    1.1704456871   -0.5887458161   -0.7286579081
 C    2.4306813057    0.1655105154   -0.2658381609
 C    2.1109072427    0.1484196056    1.2707627642
 O    2.0130365988    1.4060313710    1.9138327096
 C    0.7439897467   -0.5625979528    1.1769473266
 O    1.1086296831   -1.6557344292    0.2779365309
 H    0.6622824974    2.1838037593    0.1607808523
 H   -0.5439924745    1.8853304692   -1.1122209820
 H   -1.0242832480    1.9284711382    0.5838949369
 H   -1.7306094337   -0.3451968919   -1.2810461096
 H   -1.2341421165   -1.7015553723   -0.2490182249
 H   -2.1122771106   -0.3218385845    0.4418082171
 H    1.1105147233   -0.9431553056   -1.7591976492
 H    3.3365929392   -0.3909117370   -0.5158473316
 H    2.5158305911    1.1812691267   -0.6601058677
 H    2.8092924692   -0.5037384389    1.8089951924
 H    2.9023133951    1.7528222220    2.0305665224
 H    0.2620808731   -0.8768524254    2.1036892567