13

 N   -0.1590946652    1.3201812076   -0.0466699911
 C    0.0497991976   -0.0222905728   -0.0463699369
 O    1.1430450034   -0.5529915395   -0.0877085693
 C   -1.1924654026   -0.8407961954    0.0081147188
 C   -1.3587621791   -2.1879667478    0.0217517250
 C   -2.7715315871   -2.3297441460    0.0800557168
 O   -3.4312931415   -3.4937809223    0.1126791600
 N   -3.3996797031   -1.1747875222    0.0997754690
 O   -2.3865708815   -0.2159166131    0.0543553131
 H    0.6410894589    1.9291695355   -0.0782228233
 H   -1.0849811638    1.7106342660   -0.0063918113
 H   -0.6008081420   -2.9504573618   -0.0053433307
 H   -4.3777322140   -3.2995362882    0.1501945899