16

 O    0.5033908426    1.0285109341   -0.4371427189
 C    0.0480182235   -0.2582366630   -0.1450743599
 C   -1.4540201963   -0.3540160672   -0.2546619502
 N   -2.1515880905    0.6386669132   -0.5738513060
 O   -1.8542141907   -1.6599264380    0.0473357670
 C   -3.1479397202   -2.0617832524    0.0371625332
 O   -4.1026956456   -1.3748231400   -0.2262274701
 C   -3.2646298154   -3.5262872605    0.4077858901
 O   -4.5961177516   -3.9461716721    0.3984887744
 H   -0.2881529977    1.5498290993   -0.6429888449
 H    0.4882993480   -1.0032411316   -0.8270391280
 H    0.3362295388   -0.5633841336    0.8736308063
 H   -3.1489636826    0.4472858472   -0.6136977332
 H   -2.6533033355   -4.1043138119   -0.3019283063
 H   -2.8048115874   -3.6617606886    1.3986277773
 H   -5.1266448494   -3.1757352147    0.1509391093