21

 C    0.1927216042    1.6286355058    0.5302372292
 O    0.5823413234    0.3899600976   -0.0186100759
 C    0.6939095091   -0.6237587190    0.9317729972
 C   -0.5930608722   -1.2790502497    1.5346249212
 C   -0.0060234193   -2.6900768820    1.2053291070
 C    0.1843828566   -3.6751772490    2.3340937821
 C   -0.4710313250   -3.1863122573   -0.1743633476
 O    0.5009433973   -2.3595035515   -0.8521066350
 C    1.1342152240   -1.9916966443    0.3860731659
 H    0.9129728098    1.9837201959    1.2847619158
 H    0.1551465441    2.3497055396   -0.2896027702
 H   -0.8005514442    1.5774565727    1.0014431991
 H    1.3750971436   -0.3237733613    1.7475566696
 H   -0.7619624593   -1.0815991588    2.5958274875
 H   -1.5046203983   -1.0452016085    0.9782118669
 H   -0.7829434949   -4.0350867810    2.7056035420
 H    0.7626244058   -4.5473459309    2.0104792099
 H    0.7091259135   -3.2184178037    3.1802381966
 H   -0.2806800015   -4.2540389695   -0.3564736261
 H   -1.5013260015   -2.9500442862   -0.4691912154
 H    2.1979690349   -2.2485038890    0.4011125504