22

 C   -0.0801066556    1.5543756542    0.0332399099
 C   -0.0189922292    0.0265986244   -0.0319438647
 C    0.7369294461   -0.4984681205   -1.2489207380
 C    0.8967208725   -2.0268394686   -1.2369621742
 C    1.3390747683   -2.5566293118   -2.5939808002
 N    0.2692889850   -2.7355440994   -3.5968718099
 C    1.2595658805   -1.6680970899   -3.7857098841
 C    0.7579766284   -0.2505715960   -3.6017197279
 O    0.0238254353   -0.0792669625   -2.4081562545
 H    0.9229348490    1.9879778113    0.1176347167
 H   -0.5448039607    1.9564888393   -0.8703282224
 H   -0.6609937619    1.8897517070    0.8977522664
 H    0.4604798821   -0.3740772413    0.8698383798
 H   -1.0338123577   -0.3886457398   -0.0611648463
 H    1.7441564297   -0.0415711801   -1.2743792421
 H    1.6301767337   -2.3027405438   -0.4709516439
 H   -0.0569338893   -2.4921374886   -0.9644306984
 H    2.1307356008   -3.3019846059   -2.5810260898
 H    0.4888821900   -3.5220468094   -4.2024103982
 H    2.0073594195   -1.7868641013   -4.5680607138
 H    1.6255820506    0.4332985019   -3.6206417181
 H    0.0852014329    0.0314557409   -4.4185914362