17

 O   -0.0549455661    1.3812873697   -0.3594040209
 C   -0.0439009833    0.0421334449    0.0989566950
 C   -1.4124028624   -0.5722061520    0.0599650573
 O   -2.3362279140    0.1271727807    0.8748885284
 C   -3.3810140066   -0.7866276843    1.2362243245
 C   -3.2161524590   -1.9281101781    0.2454468736
 O   -3.3876141703   -1.3509683942   -1.0879403011
 C   -1.9706484904   -1.2270267607   -1.1940331966
 C   -1.6856800202   -2.0482961481    0.0435101225
 H   -0.7460823585    1.8349063786    0.1365182256
 H    0.6331372396   -0.5141665784   -0.5578997995
 H    0.3512067752   -0.0278103897    1.1249773261
 H   -3.2613319711   -1.1222591798    2.2777427269
 H   -4.3454541724   -0.2834099914    1.1227003449
 H   -3.8283230352   -2.8167718853    0.4006060926
 H   -1.5258446767   -1.1967153969   -2.1822292980
 H   -1.0246066486   -2.8725140049    0.2755974787