18

 C   -0.0339169371    1.5506363430    0.0375353077
 C    1.2854150897    0.8205436506    0.0045916469
 C    2.1588551589    0.7064329451    1.2565272256
 C    2.1981636184   -0.7235450583    1.7882638852
 O    1.5017328618   -0.9780645145    3.0150979727
 C    0.9364015293   -1.4795456949    1.7969702258
 C   -0.3113299329   -0.7736083387    1.2735731054
 C   -0.0127246965    0.0427460939    0.0135486140
 H   -0.3175520133    2.0347373114    0.9681463072
 H   -0.3569171397    2.0794685738   -0.8529202052
 H    1.8287955836    0.8470034773   -0.9346923038
 H    3.1716981318    1.0569746303    1.0395821121
 H    1.7699397741    1.3439212182    2.0572077928
 H    3.1397415895   -1.2639126881    1.6967768220
 H    0.9678667775   -2.5652186239    1.7117627617
 H   -1.1003031926   -1.5026439431    1.0690643448
 H   -0.6818736569   -0.1251123248    2.0741267194
 H   -0.3018635356   -0.4296106073   -0.9199901644