20

 C   -0.0194465988    1.5507025742   -0.0778522345
 C    0.0158003356    0.0533219733    0.0058742544
 C   -0.8873355451   -0.7876233906    0.8557918074
 C    0.6163615065   -0.8793471437    1.0316791657
 N    1.4569003183   -1.6215270322    0.0094265922
 C    0.6278159283   -2.2757051323   -1.0279884460
 C   -0.5349175130   -3.2509964628   -0.8253426106
 O   -0.2557804628   -4.4939393742   -1.4536502458
 C    0.7545347614   -0.7949108434   -1.0507847839
 H    0.9653875401    1.9603567487   -0.3301148821
 H   -0.7269858996    1.8905790741   -0.8443862787
 H   -0.3302508114    1.9879531738    0.8761064804
 H   -1.3502403525   -0.2335261813    1.6692697691
 H   -1.5237799811   -1.5666805070    0.4610680307
 H    1.0933278889   -0.6735614643    1.9817861969
 H    1.3028214266   -2.7149936854   -1.7649234177
 H   -0.7429595994   -3.3956877255    0.2412621848
 H   -1.4475285286   -2.8814048597   -1.3038513490
 H    0.4685393059   -4.9082191141   -0.9732440601
 H    1.3389678206   -0.3066079675   -1.8274059130