21

 C   -0.0225897787    1.6007827068    0.0216326929
 C    0.0103638774    0.0617121049    0.0582976406
 C    0.8127603146   -0.4399729328    1.2730736048
 C   -1.3787031036   -0.5211739872    0.0350222605
 C   -1.9339669777   -1.3307424813   -0.9141235679
 C   -1.4440925274   -1.9140766249   -2.1918574867
 O   -3.2204523208   -1.6469486727   -0.5710391769
 C   -3.4850929095   -1.0302710956    0.6108403510
 C   -2.4045663414   -0.3302108340    1.0309763421
 H    0.9925251954    2.0115830959    0.0004912525
 H   -0.5586542766    1.9638341491   -0.8601300052
 H   -0.5268972130    2.0033060682    0.9069998585
 H    0.5320793502   -0.2786427699   -0.8449554951
 H    0.3434511606   -0.1230102004    2.2108924061
 H    0.8723994919   -1.5322204163    1.2837201017
 H    1.8322459167   -0.0398472724    1.2584942065
 H   -1.4737064492   -3.0096872945   -2.1700057740
 H   -2.0554622928   -1.5889185249   -3.0416900877
 H   -0.4131968918   -1.6074499768   -2.3800742724
 H   -4.4727878290   -1.1889047014    1.0114776184
 H   -2.3344797352    0.2536687901    1.9359012102