18

 C    0.0440116165    1.5072315628   -0.0335264232
 C    0.0389041576   -0.0021516405   -0.0029546530
 C    0.1033773946   -0.7227818717   -1.1960680905
 O    0.1681559457   -0.1180851054   -2.4299819352
 C    0.1003871398   -2.1283544860   -1.2114741684
 N    0.2263686547   -2.7968424548   -2.4312819628
 C    0.0238819625   -2.8027593404    0.0085872903
 C   -0.0423952976   -2.0976461108    1.2067086887
 C   -0.0332793804   -0.7081111835    1.2025603764
 H    0.9540806805    1.9090756961   -0.4994080105
 H   -0.8141483225    1.9151471248   -0.5859807162
 H   -0.0060819957    1.9152048734    0.9784292249
 H    0.1166951418    0.8353267881   -2.3193335703
 H   -0.0498074488   -2.2374446419   -3.2255539852
 H   -0.1954569192   -3.7138735082   -2.4483349766
 H    0.0211571472   -3.8888319426    0.0089362717
 H   -0.1010288956   -2.6385581587    2.1450039211
 H   -0.0833234712   -0.1563339907    2.1355708990