19

 O   -0.0171502218    1.4416557523    0.1458520096
 C   -0.0526730581    0.0402995178    0.0458139661
 C   -1.4708961359   -0.5724170828   -0.1236834605
 C   -2.1415887017    0.1180036257   -1.3156025925
 O   -1.3973138750   -0.3580718547   -2.4589271926
 C   -0.4248661639   -1.2757208659   -1.9570251884
 C   -1.1273029549   -1.9363062780   -0.7610731786
 C    0.6908436315   -0.4812740097   -1.2544289671
 O    1.1433459946    0.5925841115   -2.0674725233
 H    0.2624945778    1.7526392487   -0.7290118118
 H    0.4152688471   -0.3738299639    0.9470050451
 H   -2.0708864148   -0.5785791782    0.7866468027
 H   -3.1960772427   -0.1660407971   -1.4238063090
 H   -2.0722704812    1.2080838553   -1.2560724215
 H   -0.0930626112   -1.9094694221   -2.7800875833
 H   -0.4682811906   -2.5568109947   -0.1466547101
 H   -2.0014925373   -2.5189212361   -1.0599487002
 H    1.5257041680   -1.1437747943   -0.9979102512
 H    2.0458562501    0.8020305863   -1.8084271235