20

 C    0.3323775053    1.4301544471    0.1597170605
 C    0.0570922200   -0.0702219880    0.0276068413
 C    0.4888937055   -0.6145269072   -1.3266609007
 O    1.9259141119   -0.5244110261   -1.5521473971
 C    2.0604017262   -1.9559362347   -1.7829160599
 C    3.0504983284   -2.6292442385   -0.8487769846
 C    0.5809298447   -2.1104988368   -1.5091596819
 N   -0.2814361461   -3.0283865142   -1.4234716368
 O    0.2951333266   -4.2893271612   -1.6709466086
 H    1.3963795176    1.6377553966    0.0155722644
 H   -0.2266252406    2.0037581268   -0.5879033453
 H    0.0427780368    1.7968857617    1.1486832817
 H    0.5829516947   -0.6234140402    0.8139565968
 H   -1.0123367542   -0.2821958913    0.1492234332
 H   -0.0586987246   -0.1051262398   -2.1337115448
 H    2.3247915946   -2.1577550997   -2.8309248988
 H    2.7810377881   -2.4573770116    0.1966878505
 H    3.0642803062   -3.7063473341   -1.0364223758
 H    4.0538068205   -2.2272641491   -1.0196628140
 H   -0.4582027916   -4.8812062599   -1.5707271603