16

 N   -0.0107934294   -1.1997218788    0.0105953976
 C   -0.0207705444   -0.0454434271    0.0657598627
 C   -0.0053956672    1.4141538010    0.1288237192
 C    1.4037465378    2.0042418548   -0.1340870752
 C    1.4098520761    3.4999922535   -0.0472294485
 C    1.5493146001    4.3816047684   -1.0746348588
 O    1.4920574482    5.6633343950   -0.6282216995
 C    1.3096808860    5.6029863490    0.7164084682
 C    1.2507296977    4.3124995665    1.1312653675
 H   -0.7160109335    1.8086766856   -0.6052663255
 H   -0.3670452024    1.7265415114    1.1144429288
 H    2.1030975199    1.5744472784    0.5912559900
 H    1.7423228630    1.6838573031   -1.1237619617
 H    1.7002115705    4.2586405941   -2.1348871190
 H    1.2477649172    6.5516202963    1.2234204356
 H    1.1218459904    3.9712800687    2.1472100888