15

 O    0.1282341929    0.6021995881    1.0187803328
 C    0.1061415181    1.4241031971    0.1283812775
 N    1.1485403292    1.7080219920   -0.7007222533
 C    2.4582727150    1.0854905568   -0.5419497338
 C    3.5145658573    2.0385956008   -0.1054900118
 C    4.2495125864    2.2177834796    1.0184472760
 N    5.1041300162    3.3019175328    0.8502837141
 C    4.8466374187    3.7199079218   -0.3436076381
 O    3.8969513376    3.0118258685   -0.9995903090
 H   -0.7874551710    2.0311155956   -0.1150476477
 H    1.0459894878    2.4518133195   -1.3725490133
 H    2.3370653268    0.3099935407    0.2164868403
 H    2.7508333869    0.6031406334   -1.4824503930
 H    4.2254242633    1.6479844989    1.9336777090
 H    5.2872209248    4.5486673144   -0.8753495596