20

 O   -0.1432384476    1.2925100956   -0.6015191252
 C    0.0140990697   -0.0193092206   -0.0555198220
 C   -1.3786223178   -0.5759683943    0.0974460179
 O   -2.1878956367    0.2306272623    0.9060762467
 C   -2.0351085191   -1.3030053688   -1.0570334326
 C   -1.6388061518   -2.0472431296    0.2070266827
 C   -0.5522622707   -3.0818166825    0.2586622881
 C   -0.6899497223   -4.3630178163   -0.4792363757
 N    0.3297986621   -3.3775327167   -0.8826918407
 H    0.6696331957    1.7829704841   -0.4516195672
 H    0.6297551390   -0.6546621940   -0.7048660656
 H    0.4939909734    0.0276681576    0.9327748446
 H   -2.0699976564    1.1280312467    0.5678205210
 H   -3.0917620002   -1.1247099533   -1.2171916954
 H   -1.4574108276   -1.4476914923   -1.9654661673
 H   -2.4713711082   -2.2664040220    0.8718588537
 H   -0.0213949259   -3.1143784036    1.2091623807
 H   -0.3001756452   -5.2857506651   -0.0591055709
 H   -1.5663036247   -4.4816449994   -1.1113015282
 H    0.0010483943   -2.8877591477   -1.7115217746