19

 C    0.2227673219    1.5695422601    0.0850877624
 C   -0.0645348742    0.1049391797   -0.0516808730
 C   -1.0759381935   -0.6232702268    0.7346370217
 N    0.3493738151   -0.9237688848    1.0020920188
 C    0.8387603588   -1.8024071659   -0.1179604096
 C    0.2855319533   -3.2307654411   -0.1869718782
 C    0.6870251193   -4.0485651899    0.9564254206
 N    1.0127545284   -4.6984164962    1.8543825180
 C    0.4177734094   -0.7806499697   -1.2070376905
 H    1.2742457755    1.7899712255   -0.1281387759
 H   -0.3912118834    2.1516334519   -0.6123672927
 H    0.0026856552    1.9132959299    1.0996267060
 H   -1.5408577829   -0.1032965059    1.5663704486
 H   -1.7186594489   -1.3636696984    0.2628263209
 H    1.9258445936   -1.8589825003   -0.0255957358
 H   -0.8074383638   -3.2315628167   -0.2524031759
 H    0.6528424254   -3.7093888482   -1.1028415627
 H   -0.3488296776   -1.0884002209   -1.9255864655
 H    1.2677834284   -0.3725045025   -1.7570645773