17

 C    0.2015744202    1.4394777465    0.0473163402
 C    0.0154731283   -0.0654695994    0.0410010022
 O   -0.1578786636   -0.6961124121    1.0587676142
 C    0.0399097568   -0.7359084201   -1.3285407035
 C    0.1515341053   -2.2543238258   -1.2502046587
 C   -0.4364365563   -2.9642100729   -2.4419120954
 O   -1.1493563244   -2.4567743774   -3.2783478492
 C   -0.1116711955   -4.4584012027   -2.5958418437
 O    0.6548895089   -5.0510402850   -1.8843142555
 H    1.2321473356    1.6828941173   -0.2374798725
 H   -0.4520959396    1.9180833829   -0.6896139008
 H    0.0008980555    1.8365882587    1.0428333712
 H   -0.8897956384   -0.4615983611   -1.8458628637
 H    0.8411228845   -0.2994436137   -1.9361426903
 H    1.1808600867   -2.5990638862   -1.1073066616
 H   -0.3773781440   -2.6106429833   -0.3543308406
 H   -0.6500124198   -4.9268532359   -3.4466925323