21

 C    0.0082372855   -1.2598720027   -0.0742739402
 C   -0.0040676400   -0.0583438262   -0.1141863450
 C    0.0191369809    1.3981826578   -0.1539306433
 C    1.4120121509    1.9910902835    0.1670830693
 C    1.4113889358    3.4936278507    0.1412845589
 C    1.5569852303    4.2919697661   -1.1285458669
 C    2.5694098943    4.4833960854   -0.0308624955
 C    1.9905865998    5.3912022063    1.0594464161
 C    0.7991584576    4.3922814553    1.2317143983
 H    0.0050019914   -2.3209413397   -0.0425259622
 H   -0.2995993533    1.7465833881   -1.1443877586
 H   -0.7166765874    1.7945240396    0.5578136004
 H    1.7302850343    1.6281227670    1.1520681487
 H    2.1372757683    1.6040874549   -0.5577724365
 H    1.9079818077    3.7306150425   -1.9895306303
 H    0.8554261316    5.0876130324   -1.3732992349
 H    3.6217614692    4.2767862168   -0.1895044535
 H    2.6148160604    5.4454168745    1.9540017919
 H    1.7396524376    6.4111093189    0.7490576107
 H   -0.2060627524    4.7792738543    1.0332672862
 H    0.7991791676    3.9191195644    2.2174819162