16

 C   -0.0799300627    1.3509647647   -0.1166275546
 N   -0.0044201939   -0.0940608262    0.0436742253
 C    0.6547965366   -0.6112811825    1.1038155473
 N    1.0921626792    0.0286102971    2.1365713416
 O    1.6267092980   -1.0225316133    2.9641244352
 C    1.4728198928   -2.2116436309    2.3229692766
 O    0.8486207937   -1.9497508573    1.1144764513
 N    1.7915402921   -3.3661993480    2.6710064070
 C    2.4415393642   -3.5601302469    3.9581439653
 H    0.8969048307    1.8046184339   -0.3256479928
 H   -0.7665653887    1.5757140979   -0.9341596579
 H   -0.4707896715    1.7909092967    0.8034673144
 H    0.0281525268   -0.6613733935   -0.7890733414
 H    2.0440477643   -4.4686763500    4.4201580564
 H    3.5171326861   -3.7159254765    3.8113465038
 H    2.3089347121   -2.7245648052    4.6556145926