13

 N    0.0014510710   -1.1272428234    0.1541559638
 C    0.0362787607    0.0241967197    0.0615977758
 C    0.0389151758    1.4562586143   -0.0874739895
 C   -0.9318252901    2.1437147839   -1.0382380259
 O   -0.4233287086    3.4584525410   -1.1929873311
 C    0.9818393879    3.4645628667   -0.9696245475
 C    1.2464191268    2.3003587779   -0.0393855077
 O    0.3455789595    2.2460381238    1.0665307461
 H   -0.9602180202    1.5892935699   -1.9889356430
 H   -1.9462123174    2.2169875683   -0.6366032143
 H    1.5511348796    3.3214531306   -1.9017840936
 H    1.2467095747    4.4344394706   -0.5384656389
 H    2.2440684803    1.9036695268    0.1229685958