17

 C    0.0612757106    1.6389186890    0.0377239404
 C    0.0055239474    0.1200438615    0.0724905785
 N    0.9242786986   -0.6014391939   -0.8579902085
 C    1.3913912597   -1.5419443411    0.1857797263
 C    2.9107433788   -1.7254451242    0.2982934241
 C    3.4457187512   -2.5430358410   -0.7872933056
 N    3.8388471671   -3.1960898532   -1.6558342005
 C    0.7199948774   -0.6148397830    1.2198724624
 O    0.8025758260   -0.4798546668    2.4024363732
 H    1.0951754090    1.9872361620    0.1042820343
 H   -0.3698266255    2.0207720513   -0.8925413208
 H   -0.5057410249    2.0547709025    0.8761312074
 H   -1.0386715856   -0.2264798848    0.0131969322
 H    0.4759749509   -1.0383885037   -1.6543409971
 H    0.9001174965   -2.5261214805    0.1724236379
 H    3.3966237483   -0.7449686411    0.2807478528
 H    3.1465088645   -2.1981854726    1.2584749930