16

 C   -0.2747351458    1.4992472733   -0.0489050101
 N    0.0366107992    0.0775991851    0.0647115707
 C    1.3382953512   -0.4681653737   -0.2865147552
 C    2.5445784015    0.4516675988   -0.3299778027
 O    2.5308408606    1.1955890254    0.8858483556
 C    1.8108350053    0.4673873016    1.8773903163
 C    0.8666888405   -0.4580617393    1.1322518080
 H    0.5440486482    2.1780777287    0.2184157221
 H   -0.5770548354    1.7028733248   -1.0810872112
 H   -1.1339107986    1.7148081010    0.5942215235
 H    1.3418502735   -1.3556099535   -0.9140906787
 H    3.4607873873   -0.1539558291   -0.4229976778
 H    2.5312062371    1.1746279362   -1.1537143125
 H    2.4864602798   -0.1330809993    2.5081354329
 H    1.3100862955    1.2007893149    2.5198578517
 H    0.4900623802   -1.3373622651    1.6483961673