20

 C    0.4138263950   -2.2640876995    0.5913797088
 N    0.0145490720   -1.0032166413   -0.0277003203
 C   -1.4127690661   -0.7034032111   -0.0943365328
 C   -2.1173259151   -1.6284066111   -1.1176594707
 C   -1.5661228649   -1.5152807849   -2.4653052269
 N   -1.1526421486   -1.4178121446   -3.5396256997
 C   -2.1644465765   -0.7452054416    1.2305104936
 C   -2.1544434181    0.4374913347    2.1240258168
 N   -3.3894280112    0.0517358351    1.4158960166
 H    1.5050161591   -2.3285928362    0.5690957496
 H    0.0884167567   -2.3974335060    1.6355744141
 H    0.0347216985   -3.1102044781    0.0094559861
 H    0.4911198870   -0.2349001045    0.4291384199
 H   -1.4879896801    0.3223573330   -0.4799205676
 H   -2.0508260441   -2.6726747693   -0.7936526796
 H   -3.1845705677   -1.3848797779   -1.1510153912
 H   -2.2318872246   -1.7293764326    1.6902548690
 H   -2.1848785024    0.3111047513    3.2021786110
 H   -1.6198202808    1.3237092293    1.7885851632
 H   -3.5248310482    0.6678215052    0.6157643199