19

 C   -0.3810598526   -0.6729111454   -1.3119022172
 N    0.0621185919   -0.0968337178   -0.0509698178
 C    0.4885890932   -0.7313116871    1.0857120773
 N    0.8758907826   -0.1682907745    2.1697095273
 C    0.8607993777    1.2788812113    2.2183644081
 C    0.4398701959   -2.2458159526    1.0712113700
 O   -0.3235145657   -2.8923519481    0.3911479341
 O    1.3264859269   -2.7809971600    1.9134097217
 C    1.2885822317   -4.2099875689    2.0057486281
 H   -1.3807356344   -1.1125074962   -1.2466664795
 H   -0.3902280863    0.1265916980   -2.0576189731
 H    0.3022823832   -1.4515162080   -1.6561071392
 H   -0.0189976025    0.9018100913    0.0273542645
 H    1.5027994473    1.7322653745    1.4441416387
 H   -0.1522274177    1.6968721877    2.0864286953
 H    1.2275352100    1.6149845373    3.1911505546
 H    0.3137074859   -4.5470876832    2.3674563328
 H    1.4771540686   -4.6662497293    1.0303941508
 H    2.0722928043   -4.4787432791    2.7134676034