20

 C   -0.0271209228    1.3915177801   -0.0542274798
 N   -0.0060492496   -0.0495281076    0.0428352257
 N   -0.0190985398   -0.7942153988   -1.0860329951
 C    0.0206056006   -2.0599043768   -0.6718564938
 C    0.0160463106   -3.1915828983   -1.6498503285
 C    0.0480835917   -2.1270655674    0.7434405854
 N    0.0609413968   -3.2657738145    1.5933809929
 C    0.0200822753   -0.8101695478    1.1722213767
 C    0.0121018140   -0.2571936410    2.5561606057
 H    0.8616630866    1.8350135549    0.4080830728
 H   -0.0432027568    1.6415857922   -1.1145570188
 H   -0.9171074686    1.8117583320    0.4273446960
 H    0.8462315511   -3.8844728825   -1.4682809401
 H   -0.9104661165   -3.7772539349   -1.5977441160
 H    0.1085121360   -2.8029390908   -2.6662485598
 H   -0.2894719224   -4.0835770448    1.1078352608
 H    0.9976559170   -3.4913817692    1.9142510078
 H    0.9647371352    0.2140299431    2.8301802060
 H   -0.7731339763    0.4950293718    2.6935211712
 H   -0.1729283122   -1.0746884798    3.2575812309