18

 C   -0.0900663909    1.6110171445   -0.0393453343
 C    0.1425099506    0.1049354305    0.0513788532
 C    1.3876492730   -0.6999075300   -0.1965199059
 C    2.6808938191   -0.1616884708    0.4653949219
 N    2.3874096461    1.1258801332    1.1493709349
 C    2.0503134263   -0.1635672769    1.7948631263
 C    0.7114050299   -0.7152957522    1.2060862895
 C    0.0025161031   -1.7708767153    1.8365453840
 C   -0.5854056502   -2.6624453479    2.3948699070
 H    0.6805883895    2.1049774868   -0.6318848619
 H   -1.0612585941    1.7978115095   -0.5101816092
 H   -0.0910084466    2.0822203213    0.9440203884
 H   -0.7002954545   -0.4593090972   -0.3454009888
 H    1.4083578879   -1.5267113033   -0.8954277001
 H    3.6861020640   -0.4285807649    0.1690430565
 H    3.2613833497    1.4445394653    1.5684265172
 H    2.4413702869   -0.4450397711    2.7632015140
 H   -1.1095097499   -3.4471696216    2.8807117975