15

 O   -0.1548523191    1.4289656496    0.0162206832
 C   -0.0426868567    0.0641829469    0.0067752491
 C   -1.2629504203   -0.9023508908    0.0504158879
 C   -0.3556014953   -1.8602143183    0.7844348948
 C   -0.4153664013   -1.8544534377   -0.7586973198
 C    0.6871753403   -0.8332902246   -1.1006869779
 C    1.8078046352   -1.0632426813   -0.0691190753
 O    3.0001027352   -1.1471973725   -0.1156022225
 C    0.7703790747   -0.8413019183    1.0477242506
 H    0.7251782489    1.8233552036   -0.0158401056
 H   -2.3307476379   -0.7436389822    0.0923668296
 H   -0.6143432332   -2.7276591212    1.3755536011
 H   -0.7193094957   -2.7175437756   -1.3344769632
 H    0.8608069775   -0.5374155309   -2.1323700241
 H    1.0233644777   -0.5530796467    2.0650684420