15

 C    0.4271345689    1.0745025101   -0.7740049081
 C    0.0721209244   -0.3013110009   -0.1826629298
 N    1.2288370561   -0.8433261836    0.5189801771
 C    1.1529876680   -1.1633229411    1.7343720695
 O    2.2075802322   -1.6608671144    2.4376106434
 C    3.2916514025   -2.1849635939    1.7600180639
 O    4.2817418809   -2.4827612183    2.3448056250
 C   -1.1575365081   -0.2161134046    0.6320897093
 N   -2.0972097405   -0.1602275926    1.3028523949
 H    1.3229975974    0.9734692541   -1.3898905556
 H   -0.3943849701    1.4513239835   -1.3877442658
 H    0.6285456572    1.7915201276    0.0253521974
 H   -0.1437630123   -0.9856093181   -1.0129424723
 H    0.2794487350   -1.0759219185    2.3839252954
 H    3.1001345885   -2.2957736892    0.6855918158