17

 O   -0.1214444045    1.3091723177   -0.8150119638
 C    0.0386807782    0.2110803766    0.0675427781
 C   -1.2806573636   -0.4796474512    0.3062886270
 O   -1.7713916853   -1.3021151153   -0.7728475740
 C   -1.4736157641   -1.9259960263    0.4739287724
 C   -0.3266402562   -2.9326163396    0.5016998564
 O    0.2741299930   -2.9647474412    1.7938586254
 C   -0.7911388647   -4.2553010357    0.0797062234
 C   -1.2046110411   -5.3445059799   -0.2157778677
 H   -0.4818469885    0.9586874331   -1.6373918170
 H    0.7896097028   -0.4970308018   -0.3068450848
 H    0.4111831792    0.6245074921    1.0105345045
 H   -2.0452755962    0.1740283409    0.7294268686
 H   -2.3518114968   -2.2544261148    1.0337945615
 H    0.4541524803   -2.5928002759   -0.1848948320
 H   -0.2608009231   -3.5394436562    2.3522353345
 H   -1.5548284696   -6.3071620424   -0.4973830927