12

 O   -0.0714740228    1.3682087265   -0.2106122619
 C    0.0259158014    0.0292126089   -0.0257718905
 C    1.1551297602   -0.6881170004    0.0477616841
 O    1.1876579570   -2.0340445287    0.2350525567
 C    0.0323855195   -2.7418393376    0.3611109952
 N    0.1016396087   -3.9816269272    0.5326177996
 O   -1.1394971228   -2.0401893801    0.2912142109
 C   -1.2588085348   -0.6638902962    0.1016395202
 O   -2.3468703706   -0.1800513056    0.0598303078
 H    0.8088747572    1.7535568183   -0.2857035899
 H    2.1544592230   -0.2777942905   -0.0332223631
 H   -0.8297029161   -4.3825806176    0.6108101509