15

 C   -0.1115177694    1.3769174319    0.0922246346
 N    0.2319518207   -0.0297934619   -0.0455003503
 C    0.7322606113   -0.7102093500    1.0291255017
 N    0.7734850287   -2.0424755202    1.1095094765
 N    1.3860056869   -2.2031386484    2.2873916954
 C    1.6802183042   -3.5029663613    2.8491696940
 N    1.6960064398   -1.0767525403    2.8951733182
 N    1.2853568785   -0.1036065111    2.1127087577
 H    0.7524540428    1.9243168268    0.4736973466
 H   -0.3673402637    1.7722028872   -0.8932891467
 H   -0.9529728810    1.5546217549    0.7769907235
 H   -0.3789440752   -0.5838871338   -0.6251795199
 H    2.3403407254   -4.0576723901    2.1781864391
 H    2.1698473118   -3.3385070664    3.8081758263
 H    0.7542828689   -4.0657876271    2.9891894834