20

 C    0.1512734591    1.6189913685   -0.3621049320
 C    1.5169189320    1.4558647361    0.3577705093
 N    1.1986295479    0.0369842335    0.7428279604
 C   -0.0759547567    0.1196126670   -0.0835144958
 C    0.4922594338   -0.8874000029   -1.1086114747
 C    1.7449263299   -0.9820807305   -0.2001596704
 C    3.1883095184   -0.9246301724   -0.7381398269
 O    3.4593299348   -2.2663205125   -0.2927495648
 C    2.1869229705   -2.3381247128    0.3855249486
 H   -0.5475991742    2.2759209470    0.1599929383
 H    0.1831388001    1.9110044647   -1.4149987392
 H    2.3974189928    1.5598444260   -0.2849127720
 H    1.6631896009    2.0911748890    1.2355440822
 H   -1.0094662594   -0.1634189512    0.4100310408
 H   -0.0679428543   -1.8192164529   -1.2214939433
 H    0.6749358800   -0.4704478160   -2.1038735724
 H    3.3020387932   -0.8150672993   -1.8239905579
 H    3.8293699660   -0.1885713533   -0.2332949586
 H    2.2929669719   -2.3208455654    1.4771931232
 H    1.6086363734   -3.2191358226    0.0806011854