17

 O   -0.3893298705    0.6010430513    0.8326897020
 C    0.0258355465    1.2143352298   -0.1151953529
 C    1.4508329309    1.7325391961   -0.2383337192
 N    1.4815976310    2.8841019131   -1.1216446442
 C    1.4399393555    4.2539706216   -0.6461278666
 C    2.2449190783    4.4705502372    0.6489309952
 C    3.5040517959    3.8806236666   -0.0628395693
 C    2.6605670900    3.6900979689   -1.3392778687
 H   -0.6093720673    1.4410928618   -0.9999613110
 H    1.8525471422    1.8815337283    0.7724563718
 H    2.0403490377    0.9301262998   -0.7054663296
 H    0.6581619003    4.9022444024   -1.0267271900
 H    2.3651426602    5.5308563751    0.8798005098
 H    1.8802750345    3.9627000736    1.5468221644
 H    4.2906337267    4.6263882119   -0.1932445655
 H    3.9500049847    2.9764865734    0.3620283671
 H    3.0084246233    3.8211828893   -2.3585890830