14

 O    0.1917131751   -0.1803009991    0.2393203356
 C    0.1319516407    0.8971200814   -0.2857225049
 C    1.1965351105    1.9749518092   -0.1045099709
 N    1.1975596227    2.9383893309   -1.1709772639
 N    1.5332960673    2.5799455960   -2.4612482132
 C    1.4436634187    3.6834400872   -3.1336006797
 N    1.0668955736    4.7398843131   -2.3463155122
 C    0.8970235203    4.2829534428   -1.0348028417
 O    0.5732418217    4.8990650941   -0.0424197050
 H   -0.7206416457    1.2006879123   -0.9331509131
 H    0.9711512102    2.5342456823    0.8118192948
 H    2.1748526638    1.4989664842    0.0106183076
 H    1.6408295603    3.7647233432   -4.1907290176
 H    0.9336570211    5.6985383925   -2.6174886559