16

 O   -0.1546168412   -0.0278909133    0.2594799177
 C   -0.0076694486    1.1152126369   -0.0819969710
 C    1.3395750437    1.8154263498   -0.1661995850
 N    1.3315087360    2.8145996775   -1.2237395867
 C    2.5064239323    3.6862809148   -1.2056641384
 C    2.5042602471    4.6270711597   -2.3165481162
 C    2.5276093524    5.3998594149   -3.2441668083
 C    2.5204477030    6.3128207967   -4.3587565278
 O    3.3415673414    7.1828308376   -4.5348446666
 H   -0.8647438315    1.7694784396   -0.3571633628
 H    1.4761288337    2.3371661011    0.7938180700
 H    2.1350334247    1.0553384659   -0.2320665502
 H    1.2664580585    2.3654262494   -2.1316557818
 H    2.5020617705    4.2493310742   -0.2619388221
 H    3.4657657490    3.1349434815   -1.2222510203
 H    1.6808018690    6.1552692336   -5.0657476506