21

 C   -0.1009292638    1.6029227718   -0.1030227562
 C   -0.0043823875    0.0731547552   -0.0263713315
 C    0.8120785102   -0.4941868462   -1.2016913637
 O    2.1876323338   -0.1480157031   -1.0778426624
 C    2.7182035521   -0.6287343513    0.1247646790
 O    2.0642013267   -0.0992200460    1.2503861380
 C    0.6709550709   -0.4421787657    1.2603991178
 C    0.1253087601    0.0878407350    2.5797975998
 O    0.7843393469   -0.5127748107    3.6771850061
 H    0.8868982049    2.0577946732    0.0016494463
 H   -0.5137688744    1.9105294629   -1.0692993003
 H   -0.7512895680    2.0091003984    0.6763613880
 H   -1.0121798828   -0.3601133631   -0.0768007141
 H    0.7074888955   -1.5916227692   -1.2396468476
 H    0.4761704580   -0.0845619200   -2.1581930762
 H    2.6568651888   -1.7340987615    0.1485391378
 H    3.7595258305   -0.3040273177    0.1733391878
 H    0.5886885739   -1.5427654282    1.2834787025
 H    0.2225345571    1.1829220740    2.6067575246
 H   -0.9380350557   -0.1604706157    2.6651654364
 H    1.7274817631   -0.4062402119    3.5051324678