18

 C   -0.0471380763    1.4680830204   -0.7498452585
 C   -0.0657190104    0.1262170098   -0.0542575966
 C    0.8848899399   -0.9414440270   -0.4873237462
 N    1.0561781913   -0.2814364480    0.8149073528
 C   -1.4470231864   -0.3060769351    0.4233517945
 O   -2.4472575001    0.0181077505   -0.1714561487
 N   -1.3933575034   -1.0875565225    1.5654826087
 C   -2.4268989125   -1.7104089942    2.2539713939
 N   -3.6374594035   -1.7254930417    1.8775334948
 H    0.9319864051    1.6625570834   -1.1983357499
 H   -0.8082796956    1.4888750309   -1.5321943743
 H   -0.2741184248    2.2758821309   -0.0461208077
 H    0.5936062732   -1.9864514306   -0.4360166774
 H    1.5743121930   -0.6976746929   -1.2910952421
 H    1.8006472709    0.4094775666    0.7796363292
 H   -0.4612631618   -1.1541212060    1.9579347781
 H   -2.0402075910   -2.1892025514    3.1633886545
 H   -4.1954239174   -2.2472711332    2.5520345947