18

 C   -0.0102089776    1.5083083439   -0.0105945042
 C    1.4341056396    2.0503331600    0.0136722608
 N    2.2083824110    1.6660129074    1.2017428105
 C    1.9336303858    0.3535340207    1.6273487137
 C    0.9714012408   -0.4350221538    1.0722646149
 C   -0.0262946643   -0.0360962503    0.0461515041
 O    1.0061323797   -1.6830597525    1.6289335907
 C    1.9951743148   -1.6648562864    2.5632709324
 C    2.6053156036   -0.4514966949    2.6094003370
 H   -0.5594223766    1.9085448873    0.8500911195
 H   -0.5192486834    1.8613453555   -0.9131609235
 H    1.9661927746    1.6733831126   -0.8705654560
 H    1.4354562496    3.1418629497   -0.0550138298
 H    2.1222333960    2.3421903962    1.9511891696
 H   -1.0275405108   -0.3999362340    0.3049512807
 H    0.2105701805   -0.4579696131   -0.9411312050
 H    2.1450940558   -2.5859392885    3.1020118096
 H    3.4283488008   -0.1655693499    3.2455531350