21

 C    0.0015798415    1.6170831872    0.0096701680
 C    0.0415992175    0.0886133557    0.0037064093
 C    0.7300179452   -0.4829532308   -1.2479840274
 C    1.0199830981   -1.9733815465   -1.0868922879
 C    0.2584782268   -2.8020823165   -0.0056462206
 O    1.3736593087   -3.7690534871    0.0053250311
 C    2.0052425909   -2.4332297062    0.0195333098
 C    0.9903762546   -1.9826907774    1.1027917961
 C    0.6959667199   -0.4936613866    1.2686582438
 H    1.0152211161    2.0346868351    0.0251583892
 H   -0.5044468323    2.0058214827   -0.8805734123
 H   -0.5283847916    1.9982885004    0.8891781053
 H   -0.9947971363   -0.2790035733   -0.0118807498
 H    0.1001958145   -0.3116018978   -2.1287636669
 H    1.6728710406    0.0493486187   -1.4399943964
 H    1.1563569060   -2.5138651494   -2.0260674262
 H   -0.7536105824   -3.2098580569   -0.0210647649
 H    3.0961875768   -2.3894780825    0.0344692304
 H    1.1013837178   -2.5311556990    2.0406804383
 H    1.6332044916    0.0368947958    1.4906487110
 H    0.0425092659   -0.3297583458    2.1334935500