21

 O    0.0359856175    1.2962254542    0.4703986073
 C   -0.0352406712    0.0034846676   -0.1220438385
 C   -1.4481765360   -0.5087228901    0.0152008230
 C   -1.7985486324   -1.1994918205    1.3035571679
 C   -1.6319781094   -2.0168040736    0.0270564299
 C   -2.8347389779   -2.5643754765   -0.6474251336
 C   -3.8750885142   -1.8042777032   -0.9959787404
 C   -3.8993210178   -0.3178374132   -0.7451571378
 C   -2.4874410956    0.2986328405   -0.7495957943
 H    0.8994922027    1.6695689084    0.2710592016
 H    0.2389535253    0.0466794177   -1.1890291522
 H    0.6617105664   -0.6943244596    0.3695434399
 H   -1.0255851160   -1.2747455355    2.0611339802
 H   -2.8032733165   -1.1063243997    1.6995275854
 H   -0.7364497711   -2.6284577029   -0.0334076880
 H   -2.8498443273   -3.6339426901   -0.8393320555
 H   -4.7459943655   -2.2555253137   -1.4630382468
 H   -4.5126375781    0.1846717589   -1.5018038615
 H   -4.3959494604   -0.1093038440    0.2131044002
 H   -2.5178882006    1.3203051943   -0.3596099830
 H   -2.1450608421    0.3715044911   -1.7911026641