18

 C   -0.0366803381    1.5270853210    0.0340702116
 C    0.0317552527    0.0280734786    0.0134693969
 C   -0.8382490621   -0.8701631187    0.8432294751
 C    0.6553240161   -0.9583381670    1.0126249583
 C    1.2500387119   -1.7905569252   -0.1114679314
 O    0.8043107163   -3.1173352856   -0.1221759646
 C    0.6212797576   -0.7743457046   -1.1651778618
 C   -0.2865489449   -1.3288979260   -2.1558729278
 N   -0.9956419903   -1.8031778053   -2.9370326928
 H    0.9183493624    1.9781925780   -0.2588553879
 H   -0.8057517346    1.8964292603   -0.6542127793
 H   -0.2869509458    1.8913403144    1.0353374290
 H   -1.3585040565   -0.3699020616    1.6535734567
 H   -1.3854971409   -1.6959689401    0.3998959860
 H    1.1461277825   -0.7542647784    1.9559560959
 H    2.3446265424   -1.7275659125   -0.1514762712
 H    1.0995965573   -3.5427520548   -0.9347827378
 H    1.4115210339   -0.2177756025   -1.6771564849