15

 C    0.0392924624   -0.1476847449    1.2098644466
 C    0.0131440374    0.5388860913    0.2239567314
 C    0.0167740182    1.3661003108   -0.9860608291
 N    1.2419034936    2.1348818857   -1.2128273324
 C    1.4906852482    3.1946269496   -0.3489875223
 C    0.7853264772    3.7710198493    0.6879585027
 N    1.4781937876    4.8603162447    1.1309987289
 N    2.5690853504    4.9962787776    0.4468568351
 N    2.5850842520    3.9868060370   -0.4667857317
 H    0.0559568756   -0.7464836681    2.0871808169
 H   -0.1411231887    0.7324421413   -1.8653877214
 H   -0.8183647162    2.0748836627   -0.9606728080
 H    2.0445344873    1.5312058948   -1.3448180815
 H   -0.1405353115    3.4608221470    1.1410913409
 H    3.3332706766    3.9345147813   -1.1387637560