18

 C    0.1341916674    1.5546559703    0.0230451188
 C    0.0433771062    0.0532046897   -0.0143260011
 C    0.6305676689   -0.9106978346   -1.1661981287
 C   -0.0690777976   -1.8089364648   -0.1043939835
 C    0.6082182688   -0.9557026892    1.0077480668
 N   -0.9487594841   -2.9291114235    0.2353508954
 C   -1.9194609351   -2.0073843832    0.7402508477
 O   -2.8673288990   -2.1771334675    1.4447931793
 C   -1.2571110542   -0.8535127168   -0.1138057270
 H    1.1798207643    1.8818141505    0.0118786251
 H   -0.3717120122    2.0034504623   -0.8378441747
 H   -0.3335603626    1.9447540870    0.9325609023
 H    0.1580303736   -0.8375507828   -2.1475158298
 H    1.7213182988   -0.9546245533   -1.2379493690
 H    1.6959823770   -1.0203209841    1.0900118561
 H    0.1236418985   -0.9719205529    1.9880945043
 H   -0.6749477314   -3.7623070195    0.7462427958
 H   -1.7890768174   -0.7736273977   -1.0663500380