15

 N    0.1776076700    1.3966684343    0.0323464691
 C    0.0277641742    0.0013302231   -0.0071877658
 C   -1.0221444959   -0.8543219514    0.2206966154
 N   -0.5976843976   -2.1661650545    0.1635379612
 C    0.6831067319   -2.1137532954   -0.1162052232
 C    1.6102955046   -3.2656004269   -0.3306097983
 O    2.8803603831   -3.0553764009    0.2845757201
 N    1.1145495599   -0.8156250066   -0.2269277807
 H    0.3663486067    1.7968717435   -0.8820858925
 H   -0.6577266853    1.8357503118    0.3988154624
 H   -2.0500142832   -0.5985858021    0.4303407182
 H    1.1102586083   -4.1768625303    0.0200583063
 H    1.8352035040   -3.4005755102   -1.3955029743
 H    2.7313344565   -2.9969444858    1.2346883825
 H    2.0733788127   -0.5222733386   -0.3190286204