19

 C   -1.0030914865    1.0191337053    0.1858883097
 C    0.0018365753   -0.1052419062   -0.0350892788
 C    0.9503838256   -0.0662521069   -1.2734177532
 C    2.2036815161   -0.3608209666   -0.3659251982
 C    2.6596645999   -1.8325173693   -0.4056413489
 C    3.3196482483    0.5549558658   -0.4878355081
 C    4.2362187117    1.3280107724   -0.5818822397
 C    1.2549669062   -0.1036474250    0.8536892985
 O    1.4503037881    0.1017885611    2.0130597248
 H   -0.5218750181    1.9983078438    0.0964782981
 H   -1.8142697805    0.9712389392   -0.5472063288
 H   -1.4404745273    0.9508271613    1.1861530361
 H   -0.4982717094   -1.0782336110    0.0498493940
 H    0.7641293093   -0.8082096844   -2.0514596510
 H    1.0012386502    0.9257557358   -1.7254590495
 H    3.1542199400   -2.0463440919   -1.3573969810
 H    3.3632245484   -2.0350348495    0.4055494155
 H    1.8050106925   -2.5085186923   -0.3006491069
 H    5.0470151302    2.0091488484   -0.6605038526