19

 O   -0.0995700177    1.4381005058   -0.0604554774
 C   -0.0237655330    0.0235606361   -0.0301442156
 C   -1.4228944623   -0.5800349395   -0.2115947152
 C   -1.7642015456   -0.1210422776   -1.6567751484
 C   -0.6220222055   -1.0848567609   -2.0484870382
 C   -1.0520570436   -1.9709527192   -0.8559062852
 O    0.0607220157   -2.6740268877   -0.3366179726
 C    1.2244603702   -1.9729386892   -0.8107919561
 C    0.6567992229   -0.6308355893   -1.2822243845
 H    0.7898685959    1.7862150344    0.0545643554
 H    0.4522536907   -0.3140603245    0.9004503253
 H   -2.1229386855   -0.4742083719    0.6164005841
 H   -2.7366367398   -0.4881462539   -1.9942640776
 H   -1.6587086438    0.9400999665   -1.8772658468
 H   -0.4889379544   -1.4764528255   -3.0570515073
 H   -1.8942531970   -2.6489822969   -0.9937774658
 H    1.9404237330   -1.8756733973    0.0134952934
 H    1.7014830977   -2.5408473616   -1.6226354810
 H    1.3591628020    0.0172077922   -1.8088499066