15

 O   -0.3499631512    1.3311137233    0.0528009302
 C   -0.0576782370   -0.0641541666    0.0169952869
 C    0.7542233501   -0.4103109656   -1.1543363051
 C    1.4460164424   -0.6681428997   -2.1032371631
 C    0.5978306277   -0.5589248185    1.3064167699
 C    1.5622831315    0.3096973475    2.0669896282
 C    0.1875827675    0.0294543197    2.6274406775
 H    0.4440371268    1.8001631691   -0.2245356186
 H   -1.0362292139   -0.5530203851   -0.0778003335
 H    2.0449815432   -0.9034035082   -2.9482794403
 H    0.8149338327   -1.6227882102    1.2846444383
 H    2.4238365626   -0.1620305937    2.5254033282
 H    1.7465003256    1.3134870540    1.7000735034
 H   -0.5245022640    0.8461370637    2.6020776841
 H    0.0962944659   -0.6344645797    3.4797259639