19

 C    0.0297913587    1.5670754599    0.0487202747
 C    0.0605501758    0.0674572423   -0.0107072509
 C    0.6380973341   -0.7672706207   -1.1306645980
 C    2.1269456979   -0.9261849439   -0.9887390036
 C    1.2342055516   -1.7733799788   -0.1195843804
 C    0.6228977068   -0.9670906300    0.9845287285
 O    1.1904928582   -0.6597885710    2.2227216501
 C   -0.8719853500   -0.8077481365    0.8247643496
 O   -1.5166653198   -0.2059746253    1.9042132695
 H    1.0304290224    2.0007597305   -0.0501745548
 H   -0.5899483362    1.9687559586   -0.7615714469
 H   -0.4043659493    1.9048286920    0.9930158159
 H    0.1177508891   -1.0273093437   -2.0459647190
 H    2.6167246594   -1.4582094541   -1.7987686804
 H    2.7236902100   -0.1337489562   -0.5466167561
 H    1.2135103782   -2.8552543173   -0.1938814272
 H    1.2475606937   -1.4745751130    2.7367804555
 H   -1.4863842462   -1.5742295310    0.3542033947
 H   -0.8422098543   -0.0795943019    2.5869652288