18

 O    0.4613669278    1.0334981268    0.6189036676
 C    0.0071668601    0.1501765994   -0.3868907759
 C   -1.3784893670   -0.4047216819   -0.0941432435
 C   -1.5912620450   -1.8906292522    0.0159282196
 C   -1.4000668889   -2.6158839422   -1.3361956385
 C   -1.7001882799   -4.0943937957   -1.2155347153
 O   -0.9423264138   -4.9776283146   -1.5196713266
 N   -2.4123172158    0.3261315007    0.0805833569
 O   -2.1083340961    1.6992332848   -0.0708958306
 H   -0.1920731830    1.7426016139    0.6608015154
 H   -0.0100017206    0.6320261314   -1.3777301242
 H    0.7314268215   -0.6678429319   -0.4329013248
 H   -0.8821414860   -2.2990800412    0.7472581403
 H   -2.6020087755   -2.0709894564    0.3939363302
 H   -2.1041694774   -2.1904170941   -2.0646858526
 H   -0.3860131147   -2.4996546409   -1.7284748234
 H   -2.7123654817   -4.3218329398   -0.8053186673
 H   -2.9513783939    2.1203605137    0.1258559827