16

 O   -0.0142554863   -0.0061416339    0.0226074639
 C   -0.0298318643    1.1896211488    0.0197614261
 C   -1.1375058908    2.2464451672    0.1124578200
 C   -1.6300678706    2.7954811816   -1.2744559502
 N   -0.8006253233    4.0163695633   -1.0847461220
 C   -0.0761145253    3.3831318570   -0.0107069374
 C    0.6744506700    3.9337984124    1.1873794480
 O    1.4796191389    2.7234768722    1.2361923873
 C    1.0572260827    2.2877613667   -0.0831496257
 H   -1.8900264901    2.1845366646    0.8974778427
 H   -1.3490980045    2.1679094959   -2.1285206054
 H   -2.7019730641    3.0021366189   -1.3260035453
 H   -0.2563248166    4.3289795418   -1.8824352283
 H    1.2986966247    4.8120535311    0.9723408322
 H    0.1102542905    4.1018533310    2.1105396912
 H    1.8848818092    2.2129372111   -0.7950865773