16

 C   -0.0169003920    1.4862729050   -0.1298124427
 O    1.3805978046    1.5828036095    0.1987407180
 C    1.4425896053    0.1891984478    0.5512583363
 C    0.0096581936   -0.0621618686    0.0037486546
 C   -0.9852999242   -0.7222672377    0.8787778623
 C   -1.8354354046   -1.7720728407    0.7031143480
 C   -2.5063527024   -1.8717545382    1.9502701957
 N   -2.1021986661   -0.9664992474    2.8057487049
 O   -1.1321103036   -0.2316588560    2.1257611425
 H   -0.6521021484    1.9838849105    0.6127266191
 H   -0.2377079319    1.8811032228   -1.1272528211
 H    2.2550169143   -0.3342410823    0.0359824057
 H    1.5355530605    0.0396617673    1.6336008417
 H    0.0155745331   -0.5639665276   -0.9645716344
 H   -1.9627792503   -2.3787689773   -0.1777071896
 H   -3.2709032177   -2.5731706472    2.2537966590