18

 C   -0.0003265517   -1.1896958936   -0.1748198988
 C   -0.0018917021    0.0110464991   -0.1170221346
 C    0.0298642627    1.4656997389   -0.0408729443
 C    1.4505895342    2.0265353778    0.1737618740
 C    1.4515253841    3.5436335583    0.2204467144
 C    2.8052878522    4.2783673577    0.0958973203
 C    2.1709719447    4.9360594313   -1.1457003379
 O    0.9790410225    4.1324468543   -1.0183095466
 H   -0.0140367312   -2.2497471076   -0.2295620690
 H   -0.3778201222    1.8984495950   -0.9619184281
 H   -0.6243551062    1.8043100252    0.7736618083
 H    1.8690770645    1.6365538435    1.1095283802
 H    2.1004625704    1.6871948905   -0.6404243101
 H    0.8376799530    3.8940924070    1.0642049583
 H    3.0676631827    4.9474428574    0.9163075979
 H    3.6503112199    3.6200176066   -0.1166992024
 H    1.9521626716    6.0065626185   -1.0433980657
 H    2.6778304908    4.7694286601   -2.1031359261