15

 O   -0.0565073399   -0.0529468715   -0.0596904498
 C    0.0683991984    1.1360016390   -0.1638809716
 C    1.3933832606    1.8868479424    0.0284110111
 N    1.5659029628    2.8453903353   -1.0671921472
 C    1.8987523729    4.1799517016   -0.5468154149
 C    1.6455789012    4.0512094602    0.9236988750
 C    1.3713286875    2.7849886647    1.2566818880
 C    1.1116967143    2.2963933421    2.5643543331
 N    0.9004309446    1.8794497698    3.6238863605
 H   -0.7704696669    1.8110507127   -0.4433205542
 H    2.1871760775    1.1297984961    0.1058231381
 H    2.2160448940    2.5168072524   -1.7658397881
 H    2.9443066370    4.4759166969   -0.7344582418
 H    1.2694431770    4.9585558635   -1.0015745811
 H    1.7001593290    4.8821789650    1.6148983728