17

 O    0.2340257661    1.4872571417    0.1437636071
 C    0.1178579919    0.0879784456    0.1888205031
 C   -1.3256502099   -0.4208305007    0.0861173691
 C   -1.3966287279   -1.9796216557    0.0617529996
 O   -2.4532538878   -2.2910451038    0.9484559594
 C   -2.4203625059   -1.2717191753    1.9127274314
 O   -2.1250073562   -0.0737220058    1.2196479389
 C   -2.0568625723    0.1524846575   -1.1227303082
 O   -1.5350062948    0.8057725406   -1.9922844529
 H   -0.0503013169    1.7543781652   -0.7390237000
 H    0.7074899056   -0.4030580178   -0.6036916565
 H    0.5266321159   -0.2373962394    1.1514972010
 H   -1.6322073181   -2.3992534022   -0.9196940160
 H   -0.4396907029   -2.4018335774    0.4056305313
 H   -3.4029852050   -1.1878064108    2.3833102845
 H   -1.6449076724   -1.4729510611    2.6726575252
 H   -3.1420312794   -0.0839758906   -1.1359332667