19

 C   -0.0158358894    1.5102378973    0.0004981809
 C   -0.0322272993    0.0153770418    0.0812882961
 O    0.0180263032   -0.6216949519   -1.1851663329
 C   -0.3468559372   -1.9701621481   -0.9224387935
 C    0.8700110593   -2.7364138005   -0.4107914552
 C    1.4110568657   -2.0319715867    0.8655764267
 C    0.5721859796   -0.8091411963    1.2093219202
 C   -0.9205867529   -0.8550961945    0.9216274357
 O   -1.3394213802   -1.9218870277    0.0989212757
 H    0.9344453632    1.8722839200   -0.4061550406
 H   -0.8234272215    1.8687638930   -0.6455988567
 H   -0.1465558951    1.9463704057    0.9948063715
 H   -0.7891820087   -2.3997606787   -1.8242091963
 H    0.5722991251   -3.7679835215   -0.2017664547
 H    1.6245228951   -2.7632926324   -1.2024279672
 H    1.4056944999   -2.7241234282    1.7137877839
 H    2.4530331825   -1.7287867787    0.7214643720
 H    0.8689614120   -0.2532350425    2.0943962281
 H   -1.6864522512   -0.5186443201    1.6087261263