19

 C   -0.0196217994   -1.1686805553   -0.1649430958
 C   -0.0157770456    0.0256070113   -0.0264113340
 C    0.0215327038    1.4734831124    0.1397598542
 C    1.4420642418    2.0576978967    0.0546956314
 C    2.1233001151    1.8946496134   -1.3458168688
 C    2.2752725778    3.3944628626   -1.6696393159
 C    2.8624334374    3.9920090912   -0.3716551760
 C    1.4385276640    3.6062202468    0.0776289441
 O    0.9691510592    3.9285412661   -1.2701544144
 H   -0.0382834693   -2.2231266373   -0.2866310316
 H   -0.5924846564    1.9544246005   -0.6312256200
 H   -0.4255852458    1.7389861867    1.1072485490
 H    2.0553808177    1.6452064843    0.8610042092
 H    3.0792797499    1.3668311892   -1.3055845499
 H    1.4774890386    1.3862301678   -2.0649318798
 H    2.5906463105    3.6948983482   -2.6685237566
 H    3.7228125468    3.5085426714    0.0989284427
 H    2.9911383650    5.0725766644   -0.4373469612
 H    0.8946233588    4.1176963796    0.8729823732