18

 C    0.9168182403   -0.6334837471    1.3871088774
 C    0.6525283000    0.2867904400    0.6629657370
 C    0.3184045345    1.4084130286   -0.2173429542
 C    1.4799406232    2.2111458873   -0.6074505402
 C    2.4320432708    2.8651668305   -0.9481684888
 C    3.6080137332    3.6617570048   -1.3167059223
 N    4.4552136327    4.1545705042   -0.2234229745
 C    3.8200435490    4.5639290190    1.0239611307
 C    4.6314164522    3.3159433398    0.9572854159
 H    1.1537193958   -1.4476196180    2.0262777988
 H   -0.1771550013    1.0251938740   -1.1201833465
 H   -0.4257188994    2.0477712359    0.2773580996
 H    4.2501719991    3.0700681688   -1.9806989102
 H    3.2853933670    4.5361765831   -1.8953197600
 H    4.2227140168    5.4666879670    1.4744162398
 H    2.7438865411    4.4373304322    1.1182630821
 H    4.0832363142    2.3779508918    1.0085931432
 H    5.6407428507    3.2874798583    1.3578233721