24

 C   -0.0086987226    1.3769715284    0.0927102705
 C   -0.0927249404   -0.1517098672   -0.0157753850
 C   -1.5407139678   -0.6671491226   -0.0041940261
 N   -2.2317284345   -0.3610268759    1.2456402863
 C   -3.1202379747    0.7974418208    1.2517749996
 C   -3.6732038996   -0.5832953334    1.2486986240
 C    0.6253917400   -0.6527693105   -1.2567684908
 C    2.1198665335   -0.8461315028   -1.2525925697
 C    1.2032504741   -2.0449757997   -1.3048089923
 H    1.0342822670    1.7080726096    0.0737874680
 H   -0.5243937886    1.8598794961   -0.7465962561
 H   -0.4625771775    1.7360280476    1.0197923269
 H    0.4048771248   -0.5847644953    0.8627116355
 H   -2.0838159093   -0.2664047245   -0.8824308742
 H   -1.5249891419   -1.7579595051   -0.1123202783
 H   -3.1204574301    1.3924235240    2.1608962517
 H   -3.2159712775    1.3722001144    0.3317173272
 H   -4.1371728841   -0.9286146203    0.3255333588
 H   -4.0846278586   -1.0191249483    2.1549152845
 H    0.2032082770   -0.2856689280   -2.1907037464
 H    2.6808818171   -0.5861113952   -2.1435205484
 H    2.6509096383   -0.6581511327   -0.3246698057
 H    1.1231512719   -2.6561747583   -0.4112585942
 H    1.1382969234   -2.6052149410   -2.2311157658