19

 C    0.3018690810    0.9089734647    0.5630711577
 N   -0.4266545261    0.2521052198   -0.5246838970
 C    0.3506470316   -0.5509965376   -1.3916402593
 C    1.0033640689   -0.1577409017   -2.5426132989
 N    1.5952096571   -1.2620162967   -3.0514272949
 N    1.3709970158   -2.3789642178   -2.3108889169
 C    0.6193212875   -1.9506380692   -1.3014255573
 N    0.1067678250   -2.8136262014   -0.3385158696
 C    0.6021020456   -4.1828243393   -0.3301994321
 H    0.8598578415    0.2211838667    1.2212706611
 H    1.0230007868    1.6152971074    0.1413346427
 H   -0.4043040531    1.4763710440    1.1771966068
 H   -1.2023623670   -0.2859587432   -0.1554886421
 H    1.0718688109    0.8072382217   -3.0194072817
 H    2.1524333819   -1.3382335493   -3.8827301235
 H    0.0941501428   -2.3926417289    0.5803361855
 H    1.6914930424   -4.2534898589   -0.1956590167
 H    0.1047140827   -4.7333965657    0.4723186059
 H    0.3595409246   -4.6584944044   -1.2835342998