20

 O    0.0966806507    0.1092834999    0.8716756567
 C    0.0136059670    1.1297073326    0.2250202020
 C   -1.3043245509    1.7976418363   -0.1421528423
 C   -1.6563328115    2.9735040129    0.7948572197
 C   -0.7175047071    4.1880132206    0.7200101992
 C    0.7383733742    3.8818182214    1.1211900601
 C    1.5138125986    3.1389661654    0.0518531967
 C    2.3716055522    1.9540872628    0.4016536365
 N    1.1266678686    1.7822103312   -0.3080401163
 H   -1.2542780507    2.1542921567   -1.1769982272
 H   -2.0819873172    1.0333447608   -0.0747198020
 H   -2.6739755023    3.3009484338    0.5546878959
 H   -1.6872529169    2.6037950585    1.8278968607
 H   -0.7363607753    4.6110153486   -0.2937880822
 H   -1.1103343205    4.9663836772    1.3838944257
 H    1.2685565174    4.8164024668    1.3382656156
 H    0.7408999807    3.2981803234    2.0507305921
 H    1.8152889148    3.7495700614   -0.7993966200
 H    3.2747597946    1.7494992579   -0.1666850290
 H    2.3955596838    1.6322455619    1.4400989283