21

 C   -0.2217170182    1.4731293326    0.0238696914
 C    0.0525102045   -0.0116842367    0.0244861005
 C   -0.7635351281   -0.9294476842    0.8861696618
 O   -1.3111766162   -2.0894890604    0.3065014757
 C    0.7139189498   -0.7705285935    1.1676625651
 C    1.6911331898   -1.7901404787    0.5920419774
 C    1.3384377621   -1.9160404773   -0.9057170848
 C    0.5546008746   -0.6312272405   -1.2870670130
 O   -0.4742259782   -0.8451878582   -2.2382221997
 H    0.6904234682    2.0437860294   -0.1869214617
 H   -0.9575404998    1.7233878312   -0.7482918182
 H   -0.6129805352    1.8140753539    0.9876018939
 H   -1.4365832257   -0.4421737341    1.5922168265
 H   -1.2768899188   -2.8040036068    0.9508134856
 H    0.9850666058   -0.2670479837    2.0912521562
 H    2.7093677214   -1.4077277983    0.7234485810
 H    1.6536669235   -2.7562825693    1.1093867267
 H    2.2260711278   -2.0448665022   -1.5306714570
 H    0.6904473383   -2.7764629135   -1.0818349367
 H    1.2281754170    0.0914640442   -1.7631106160
 H   -1.0998670627   -1.4492296540   -1.8187482845