18

 C   -0.0343742719    1.5306746551   -0.0298010489
 C   -0.0085959730    0.0265876574    0.0031328500
 C   -0.0290473683   -0.6874957493   -1.1368276567
 O   -0.0085454008   -2.0367568245   -1.2008095379
 C    0.0371288614   -2.8123217817   -0.0402358515
 N    0.0559362087   -4.0815188155   -0.1154516546
 C    0.0600595784   -2.0731536435    1.2030483747
 C    0.0391381066   -0.7214816935    1.2534199131
 C    0.0640398742    0.0142743929    2.5644910432
 H    0.8530793883    1.9641220517    0.4459599531
 H   -0.0696921166    1.8965876540   -1.0594873071
 H   -0.9071868492    1.9350489806    0.4960072303
 H   -0.0643351693   -0.2491317324   -2.1277556427
 H    0.0333508985   -4.3832481384   -1.0897564540
 H    0.0954488913   -2.6788017797    2.1003831176
 H    0.0994947490   -0.6818093620    3.4050378005
 H    0.9344707138    0.6773393913    2.6315519731
 H   -0.8228402813    0.6479844675    2.6813806579