23

 C   -0.5717501138    1.4426523862    0.0405863350
 C    0.0353792250    0.0266665730    0.0186818024
 C    0.7202494670   -0.2491615624   -1.3336021039
 C    1.1603542861   -1.6892636991   -1.4877468630
 C    2.4502273307   -2.0577058979   -2.1830122428
 C    2.3328009184   -2.1830128534   -0.6820829976
 C    3.0458344475   -1.2121281130    0.2482541498
 C    2.1591260724   -0.6515395655    1.3433395651
 C    0.9212969940   -0.1628892945    1.2327593424
 H    0.2091491368    2.2030200842   -0.0723381895
 H   -1.2908997768    1.5727459796   -0.7748345658
 H   -1.0926481413    1.6391018182    0.9833101580
 H   -0.8044113694   -0.6813739736    0.1164588376
 H    0.0261599935    0.0135249899   -2.1423679675
 H    1.5767479177    0.4264816805   -1.4435777439
 H    0.3383376059   -2.3914417084   -1.6070758056
 H    2.4776526480   -2.9612341271   -2.7826554221
 H    3.0620199249   -1.2495706239   -2.5735419682
 H    2.2465728064   -3.1914337482   -0.2871987509
 H    3.9040023805   -1.7163814244    0.7063655335
 H    3.4799135245   -0.3896835405   -0.3347231282
 H    2.5970815571   -0.6508767983    2.3399110879
 H    0.4519834050    0.1795030686    2.1558243474