19

 C    0.5051005637   -0.4833180296    1.5461629285
 O   -0.0041675756   -0.1996403878    0.2480589745
 C   -1.2817185803   -0.7095936311   -0.0226423847
 C   -2.3906113921    0.0013517481    0.7280537859
 O   -2.3769821270    1.3887282909    0.4557003679
 C   -1.4919537339   -1.1305474981   -1.4257581654
 C   -1.4370783712   -2.2024489299   -0.3290679842
 C   -0.2598318821   -3.1006180598   -0.3061002819
 O   -0.2918274178   -4.2531818391    0.0528554082
 H    1.5222780297   -0.0874200458    1.5704362158
 H   -0.0814590500   -0.0015262937    2.3382834598
 H    0.5345725366   -1.5631989725    1.7394634024
 H   -3.3624427526   -0.3861301992    0.4075299040
 H   -2.3040884195   -0.1964747097    1.8086009314
 H   -1.4521485494    1.6623883642    0.4707065509
 H   -2.4492672839   -0.9401903087   -1.8960801017
 H   -0.6316490645   -1.0778461006   -2.0845587222
 H   -2.3644264172   -2.6782893463   -0.0271208261
 H    0.6837353770   -2.6321406114   -0.6638020031