20

 C    0.8219609521   -0.3416442682   -1.3043253797
 C    0.0972399308    0.0949791818   -0.0241763177
 C    0.0720483071    1.6239837573    0.1289986108
 C   -1.3337471174   -0.4372583179   -0.0068155436
 N   -1.5743681106   -1.9343651911   -0.0972559358
 C   -1.0850337306   -2.5099605298    1.1499023862
 C   -2.4336678387   -1.8691827184    1.1642155015
 C   -2.2482793648   -0.3810219908    1.2399429656
 O   -2.7521761291    0.5014149272    1.8741617962
 H    1.8596254781    0.0071284341   -1.2995520536
 H    0.8261088274   -1.4302299375   -1.4103274747
 H    0.3314951101    0.0774698384   -2.1905382839
 H    0.6419331107   -0.3157757442    0.8354337744
 H    1.0897761158    2.0214465042    0.1910320180
 H   -0.4166479567    2.0932693670   -0.7328114891
 H   -0.4739929014    1.9263004282    1.0268893957
 H   -1.8960469891    0.0207329415   -0.8321132083
 H   -1.0704225781   -3.5956882839    1.1516572279
 H   -0.2607456665   -2.0473945119    1.6848694268
 H   -3.3512438091   -2.4310332661    1.2937468732