21

 C   -0.5383129054    1.2394345593   -1.9163511351
 C   -0.2775036245   -0.0576910069   -1.1791397812
 C    1.1173101170   -0.5683988844   -0.8386851851
 C    2.3816285221    0.1931157268   -1.1697063603
 O    3.3710271682    0.0928641723   -0.1505035373
 C    0.1984121450   -0.0787067590    0.2425274864
 C    0.4207557269    1.0822547133    1.2110439970
 O   -0.1325654054    0.3028417122    2.2970640167
 C   -0.3653648153   -0.8347993775    1.4402336773
 H    0.1221101286    2.0462352652   -1.5871115064
 H   -0.4049181111    1.1192241791   -2.9968423886
 H   -1.5668509014    1.5749698547   -1.7447487232
 H   -0.9834810217   -0.8469881639   -1.4316469446
 H    1.2337826012   -1.6509810157   -0.8981985532
 H    2.7803369436   -0.1447918306   -2.1391453696
 H    2.1804365204    1.2634522944   -1.2648519021
 H    3.5368434384   -0.8417264099    0.0094063806
 H    1.4683834111    1.3497320854    1.3899142520
 H   -0.1658943815    1.9916366354    1.0235307444
 H   -1.4310136657   -1.0977317589    1.3853252750
 H    0.2038692896   -1.7175795211    1.7635449472