20

 C   -0.9889996036    1.3589055043   -0.5477411344
 C   -0.7479437505   -0.1239452066   -0.7658611433
 O   -1.7851147005   -0.8495499814   -0.1229681906
 C   -1.6621234883   -2.2483203606   -0.2541386629
 C   -2.9351004565   -2.8959986880    0.2670669915
 O   -4.0542317596   -2.8033838498   -0.6060062277
 C   -4.6003618408   -1.5177467732   -0.7859454966
 C   -4.0509274986   -0.8205151801   -1.9658160811
 N   -3.6502392215   -0.2852360039   -2.9084235454
 H   -0.1902490767    1.9433650598   -1.0137993488
 H   -1.9407383986    1.6576310261   -0.9946915012
 H   -1.0128336610    1.5940331191    0.5204095858
 H   -0.7425026816   -0.3592181398   -1.8408196061
 H    0.2277314753   -0.4281556940   -0.3519595890
 H   -1.5048013630   -2.5366458864   -1.3052251250
 H   -0.8020008174   -2.6211024025    0.3290373338
 H   -2.7708730226   -3.9696750438    0.3954736420
 H   -3.1799429160   -2.4616836035    1.2481359362
 H   -5.6777629380   -1.6429686015   -0.9439063465
 H   -4.4506746503   -0.8785246144    0.0926345993