17

 N    0.2121904769    1.0391965835   -0.8066257052
 C    0.1329628210   -0.1240880051   -0.3136593824
 O    0.6442364376   -0.5002291776    0.9106789610
 C    0.3676587173   -1.8795827182    1.1368544554
 C   -0.3850618261   -2.3441685798   -0.0859122608
 C   -0.4999070356   -1.2994721434   -0.9158212050
 C   -0.8577808458   -3.7330816984   -0.2136357259
 C   -2.3087476561   -4.0098633116   -0.4716380090
 N   -1.3095852180   -4.2793085520   -1.5038197036
 H    0.7099634209    1.6647011160   -0.1717686852
 H    1.3115776995   -2.4243347462    1.2766804405
 H   -0.2208087284   -1.9878578395    2.0582432302
 H   -0.9657495743   -1.2532429918   -1.8895416051
 H   -0.3135043079   -4.4556589117    0.3909125482
 H   -2.7703138742   -4.8903106785   -0.0331487973
 H   -2.9609366178   -3.1476044320   -0.5779242588
 H   -1.3156004291   -3.5447826137   -2.2072611470