12

 N    0.0179029616    1.3428097956   -0.1241523365
 C   -0.0063610048   -0.0093389797    0.0017442982
 N    1.1950302744   -0.6318199082    0.1193906152
 H    1.1885327583   -1.6412236781    0.0908201576
 H    2.0003987841   -0.1906051692   -0.2954540701
 C   -1.2044099248   -0.7225102163    0.0098154789
 C   -2.4276048486   -0.0133352231    0.0371277570
 N   -3.3872823022    0.6404700420    0.0547046252
 C   -1.1644086062   -2.1359847273   -0.0095422154
 N   -1.0473581960   -3.2913674281   -0.0214386448
 H    0.7937057544    1.8428804247    0.2801307481
 H   -0.8722605402    1.8183609776   -0.0893950633