20

 C   -0.0686296970    1.4153163232    0.0172776308
 O   -0.0416967150    0.0143182294    0.1748305505
 C   -1.2704973335   -0.6126543042   -0.1762516038
 C   -1.1090926137   -2.1096541548   -0.0755929992
 C   -0.0193020245   -2.6899427575   -0.9615945533
 O    1.2864337250   -2.3924534118   -0.5038999041
 C   -1.3514822522   -2.7643572485    1.2608473090
 C   -2.3633415150   -2.9195800562    0.1542685127
 H    0.9112059432    1.7980199636    0.3113555362
 H   -0.2683852221    1.7039319377   -1.0261355655
 H   -0.8377446688    1.8758274555    0.6557576025
 H   -2.0744973026   -0.2596889264    0.4901114304
 H   -1.5459696963   -0.3254528502   -1.2058539410
 H   -0.1013883448   -3.7825641439   -0.9828443460
 H   -0.1707119832   -2.3348828575   -1.9967353089
 H    1.2790119968   -1.4545496528   -0.2720179170
 H   -0.7318355800   -3.6159041643    1.5185832959
 H   -1.6078019804   -2.1296805413    2.1024613160
 H   -3.3073630196   -2.3911408960    0.2423908060
 H   -2.4420668464   -3.8795692940   -0.3447111110