14

 N   -0.0339925654    1.2674608248   -0.0181158192
 C   -0.1070873530   -0.0455971991    0.2923512894
 O    0.6465954378   -0.6664661944    1.0133626824
 C   -1.3352133331   -0.7343469577   -0.3287238288
 O   -2.2820320180   -0.1129411255   -0.7528963170
 C   -1.2793713875   -2.2688969102   -0.4240718125
 O   -0.3771143274   -2.7678484439   -1.0423613822
 C   -2.4494562414   -3.0069622595    0.1892598122
 O   -2.3428587569   -4.3745527787   -0.0875457005
 H    0.6747775300    1.8412385728    0.4079280768
 H   -0.7866771726    1.6930025397   -0.5346997828
 H   -2.4338033249   -2.7779452396    1.2709918944
 H   -3.3668171550   -2.5444977770   -0.2128255067
 H   -3.0784092725   -4.8256345217    0.3369212245