19

 C   -0.1435752028   -1.1863262582    0.0073212494
 C   -0.0258766668    0.0053865594    0.1158642647
 C    0.0755590890    1.4283279712    0.2504788173
 C    1.0662150999    2.0346672930    1.2483112453
 C    1.3062765832    2.1663128394   -0.2267934345
 O    2.2885161368    1.4087849307   -0.8516442247
 C    3.5501610939    2.0153590110   -0.8538368713
 C    4.5167736180    1.7417760152    0.2685254575
 C    4.7121075090    1.1123673250   -1.0980991709
 H   -0.2360569341   -2.2386555988   -0.0965915304
 H   -0.8609938924    1.9638567953    0.1240011160
 H    0.7506668301    2.9034662779    1.8152666441
 H    1.6858904197    1.3273809808    1.7846980736
 H    1.1381346276    3.1437858311   -0.6811878221
 H    3.5602699561    3.0073469715   -1.3062064523
 H    5.1858765601    2.5349353821    0.5840665568
 H    4.1788241561    1.0872189718    1.0629573565
 H    4.4862024545    0.0561368688   -1.1891428506
 H    5.5174966521    1.4640105227   -1.7326450443