15

 C   -0.0305505668    1.4798948839   -0.0177694930
 C   -0.0486368975   -0.0050564270    0.0103739304
 N   -1.0643326912   -0.7982899410   -0.1576958883
 C   -0.5297678932   -2.0692911456   -0.0336421218
 N   -1.3704296610   -3.1694893347   -0.1633860313
 C   -0.9642047158   -4.4680763030   -0.0620720668
 O    0.1771883758   -4.8145453887    0.1529092474
 C    0.8028079779   -1.9913060451    0.2071532136
 O    1.1152292311   -0.6510517602    0.2357526440
 H    0.6381974675    1.8493431422   -0.8018909158
 H   -1.0398079241    1.8449387693   -0.2084574988
 H    0.3233516083    1.8861745355    0.9352478625
 H   -2.3405986047   -2.9602977877   -0.3443124847
 H   -1.8039605988   -5.1739428335   -0.1999621554
 H    1.5899328924   -2.7013785043    0.3653413682