22

 C   -0.6965153683    1.4643257913   -0.1808845876
 C   -0.3753868404    0.0686574331   -0.7324337136
 C   -1.5650784975   -0.8621107633   -0.6173687304
 C   -1.6118377077   -2.3414987465   -0.5897960077
 C   -0.4994505763   -3.0348656073    0.1955956412
 C    0.8928326674   -3.1873166153   -0.3898968751
 O    1.6748663788   -3.8842099065    0.5718520770
 C   -0.8168185471   -2.0478868589    1.3472184713
 N   -2.0316129822   -1.5063774819    0.6285443423
 H    0.1576767437    2.1390677129   -0.2912379249
 H   -1.5469277784    1.9100358937   -0.7079792939
 H   -0.9572054288    1.4155785583    0.8809781811
 H   -0.1035289865    0.1428418351   -1.7933284643
 H    0.5038619408   -0.3301202102   -0.2225831111
 H   -2.4360833183   -0.4477434817   -1.1284469686
 H   -2.3513937473   -2.8806204099   -1.1765218866
 H   -0.8338227086   -4.0356669868    0.4850099582
 H    0.8244428277   -3.7496127604   -1.3365023885
 H    1.3381917517   -2.2109034537   -0.6258456654
 H    2.5709170323   -3.9639193011    0.2323710778
 H   -1.1272706836   -2.5320266600    2.2738631301
 H   -0.0560843616   -1.2990052210    1.5869595185