19

 C    0.0060161878    1.5787474894    0.1089738427
 C    1.4900982366    1.9124671467    0.0042391129
 C    2.3807213607    1.0644673672    0.8788813372
 C    1.7167741905    0.1273013780    1.8845302220
 C    0.7191269600   -0.7532151386    1.1298378185
 O    1.4457914794   -1.5126866510    0.1252853518
 C    1.2237280914   -0.4138229463   -0.8001420174
 C    2.2229082088    0.7183828515   -0.5912348731
 C   -0.0081170022    0.0548848795    0.0147085064
 H   -0.4503271591    1.9495176539    1.0354584353
 H   -0.5514056236    2.0212039870   -0.7247047401
 H    1.7924036087    2.9272499577   -0.2307583337
 H    3.3292934693    1.4991457494    1.1765114681
 H    2.4603586262   -0.5186234203    2.3632166690
 H    1.2135231408    0.6932170050    2.6798289611
 H    0.1298416556   -1.4012696454    1.7848008324
 H    1.1314626965   -0.7561576149   -1.8331967102
 H    3.0613328892    0.8396178767   -1.2660274827
 H   -0.9577359766   -0.3920884556   -0.2788859101