20

 C    0.0475092367    1.5283646041   -0.0000699420
 C    0.0165866017    0.0142701771    0.0022558255
 C   -1.2969284666   -0.6960651928    0.4332822467
 N   -0.5622776639   -1.6112992470    1.3725101094
 C    0.6234449049   -2.1585519346    0.6525374448
 C    0.6726846224   -0.7782647019    1.1733984771
 C    0.6572986166   -2.1764051309   -0.8686855619
 O   -0.4136296984   -2.9812293193   -1.3531596540
 C    0.5612634554   -0.6742544202   -1.2580985622
 H    1.0649094169    1.9059805041   -0.1558430341
 H   -0.5812730463    1.9323427400   -0.8017929096
 H   -0.3205082421    1.9349317717    0.9479404841
 H   -1.9488184005   -0.0531614150    1.0314211890
 H   -1.8783896557   -1.2079925256   -0.3376482692
 H    1.0762034816   -2.9805356606    1.1961981758
 H    1.2788559039   -0.4067158785    1.9925213161
 H    1.6167165903   -2.6005304455   -1.1991357297
 H   -0.3253028862   -3.0457777614   -2.3092925435
 H   -0.0847718297   -0.5278797572   -2.1316149028
 H    1.5560460993   -0.2819029267   -1.5023974297