12

 N   -0.0307088521    1.0176261701   -0.0073675324
 H   -0.0729023321    0.0526257191   -0.3033597134
 H    0.7159226678    1.5314608333   -0.4519983327
 C   -1.2642852491    1.6152250513    0.0017570995
 N   -1.4666817030    2.9490613654    0.1710334699
 N   -2.7968700252    3.2275382077    0.2040662714
 C   -3.2989213558    2.0222667721    0.0558714352
 N   -2.4285177640    0.9949828301   -0.0776204615
 N   -4.7465809428    1.8186984957    0.0316769672
 O   -5.4475756550    2.8131235898    0.1353886287
 O   -5.1336709066    0.6677357198   -0.0901376992
 H   -0.8012475022    3.6939760356    0.3021862173