22

 C    0.2030919372    1.5487387856   -0.1513072070
 C   -0.0219579388    0.0346511791    0.0142925434
 C   -1.5153190519   -0.2924416653    0.0401133716
 C    0.7288708130   -0.7202808390   -1.1035538840
 O    2.0923735211   -0.7063638804   -0.7149874798
 C    2.1274581777   -0.9359810553    0.6899791571
 C    0.7660615562   -0.4872196995    1.2382701568
 C    0.5769242395    0.0284827884    2.6121187679
 N    0.1821650305   -1.3525434393    2.2740099286
 H    1.2702076652    1.7754655597   -0.2252395111
 H   -0.2832747430    1.9146102832   -1.0625483888
 H   -0.2070325405    2.1078622799    0.6952870288
 H   -2.0038686365    0.0770386666   -0.8677549741
 H   -1.6956345796   -1.3710030422    0.0952319805
 H   -2.0199983237    0.1848412718    0.8886158066
 H    0.3514364061   -1.7537005231   -1.1892358164
 H    0.6533430023   -0.2395813496   -2.0832060439
 H    2.2739348764   -2.0013368994    0.9177984787
 H    2.9713372047   -0.3714039489    1.0990246926
 H    1.4260115892    0.1130251989    3.2863544843
 H   -0.2048718340    0.7651194560    2.7860004120
 H   -0.8287964611   -1.4040156471    2.1764126261