15

 N    0.0911870158    1.4465989483   -0.1206096760
 C    0.0304927657    0.0398783499   -0.0383559951
 C   -1.0737565272   -0.7664548085   -0.0196426440
 O   -2.4011951012   -0.4486703574    0.0629354780
 N   -0.6581187423   -2.1004551003   -0.1075991339
 C    0.7127698072   -2.1211617045   -0.1119105114
 O    1.3694800307   -3.3086612689   -0.1108355569
 C    1.1722966779   -0.8322919197   -0.1007662906
 O    2.5055475323   -0.4723033890   -0.1009962343
 H    0.7689506832    1.8182547371    0.5373493970
 H   -0.8120099291    1.8537572707    0.0954462918
 H   -2.7774507786   -0.4023828844   -0.8252920672
 H   -1.2229471670   -2.8740506662    0.2019924599
 H    2.3108610097   -3.0993193264   -0.0888668185
 H    2.6778515728    0.0502335993   -0.8931490490