20

 C    0.1732546230    1.2700622029    0.2216318897
 O   -0.1718189276   -0.0555651060   -0.1398873704
 C    0.5114897803   -0.5241223807   -1.2384385499
 C    1.9349112904   -1.0336845738   -1.1359851616
 C    0.8278801143   -1.9987460017   -1.5208275046
 C    0.4365159366   -3.2037028251   -0.7161625395
 C    0.4621228844   -1.7484190379   -2.9697752182
 N   -0.9518745793   -1.3040230833   -3.0022211872
 C    0.1237628864   -0.3225104788   -2.6849059427
 H    1.2448534516    1.3595020995    0.4498792222
 H   -0.0755963783    1.9862202406   -0.5744703704
 H   -0.4066791916    1.5192354304    1.1130716827
 H    2.7004992760   -0.7416629858   -1.8503617289
 H    2.2905081307   -1.1406397426   -0.1151121026
 H    0.4930445752   -2.9905372268    0.3557371728
 H   -0.5927396167   -3.4939279779   -0.9477634727
 H    1.0913663918   -4.0578689264   -0.9241420528
 H    0.9483619761   -2.1467722984   -3.8531195441
 H   -1.1987163036   -1.1625514857   -3.9837094797
 H    0.2869085503    0.5437774374   -3.3157199922