16

 C    0.0119714013    1.6187743830   -0.0238550702
 C    0.0048439974    0.0801550858   -0.0685853631
 C    0.6428161435   -0.5286700787    1.2104455037
 C   -1.4450727121   -0.4564846629   -0.1361089682
 O   -2.4186950571    0.2310986889   -0.0125826359
 C    0.7013568896   -0.4182488398   -1.2487105924
 C    1.2524396709   -0.8481392250   -2.2355004853
 C    1.8857335949   -1.3270966311   -3.3460509129
 N    2.4250491487   -1.7366158516   -4.2900332573
 H    1.0354868992    1.9911367739    0.0614661853
 H   -0.4419041584    2.0375099876   -0.9240755991
 H   -0.5674524475    1.9597189889    0.8367930640
 H    0.1195406419   -0.1545043334    2.0949202859
 H    0.5868967751   -1.6206734485    1.2024401633
 H    1.6947658661   -0.2408611179    1.2755426163
 H   -1.5103551836   -1.5559311792   -0.2835901239