18

 C    0.1078462536    1.5891428533    0.1028431285
 C   -0.0526032122    0.0665286561   -0.0550122378
 C    0.6879725939   -0.4901851553   -1.2346442023
 C    0.2008090199   -0.8930003385   -2.4367043306
 O    1.1868252530   -1.3195611058   -3.2444156212
 N    2.3915250040   -1.2063646971   -2.5676180298
 C    2.0964560534   -0.7195365552   -1.3843606321
 C    3.2068398595   -0.4547387474   -0.4087718256
 O    3.4519910198    0.9360333267   -0.2228473981
 H    1.1640508349    1.8512811474    0.2016265299
 H   -0.2947277092    2.1139075736   -0.7695070622
 H   -0.4268043379    1.9430199221    0.9896521461
 H    0.2987460671   -0.4280237907    0.8591449741
 H   -1.1141739627   -0.1876577563   -0.1485072358
 H   -0.7958657676   -0.9411050903   -2.8487876015
 H    2.9428267209   -0.8402494613    0.5807863337
 H    4.1061758033   -0.9825242468   -0.7505288541
 H    3.6952310563    1.3006396354   -1.0808664211