18

 O    0.0810933477    1.4432730793   -0.4218281162
 C    0.0124605799    0.1086939755   -0.0347397204
 C    0.4814592428   -0.9850538246   -1.0392819724
 C   -0.9240327315   -1.6619628798   -0.9596098349
 C   -1.3820311167   -0.5967330135    0.0739036963
 N   -1.0473854436   -0.9126596148    1.4624963626
 C    0.2488810495   -0.2304607974    1.4699324374
 C   -1.6404832166   -1.6637592326    2.4159401744
 O   -1.1748064085   -1.8736333640    3.5177325065
 H    1.0083700352    1.6888614377   -0.5177361826
 H    0.6990136561   -0.5631223046   -2.0229699147
 H    1.3312310357   -1.5912559480   -0.7161677178
 H   -1.4794681953   -1.6085770012   -1.8986960515
 H   -0.9465304433   -2.6902901554   -0.5942872159
 H   -2.3341232173   -0.0851520579   -0.0784313185
 H    1.0998306394   -0.8744561384    1.7149620475
 H    0.2613740058    0.6566479496    2.1125418792
 H   -2.6185389792   -2.0635618999    2.0755554610