19

 C    0.1926742072    1.5669167563   -0.6856886307
 O   -0.2292830565    0.2262714642   -0.8402563603
 C    0.8048401281   -0.6668611881   -1.2202760680
 C    1.8405501838   -0.8012037522   -0.1855452680
 C    2.6832562147   -0.9056238391    0.6652214348
 C    0.1334749729   -2.0064740938   -1.5300339203
 C   -0.5746820919   -2.6815151599   -0.3817581690
 C   -0.2658970639   -2.2524898661   -2.9208755929
 O    0.9200443152   -2.8454027194   -2.3788267286
 H    0.9419196512    1.6690266389    0.1100926996
 H    0.6171663090    1.9641560568   -1.6205377077
 H   -0.6937723556    2.1480305969   -0.4227375309
 H    1.2883792063   -0.3158580445   -2.1464427326
 H    3.4333683969   -1.0035586710    1.4110536003
 H   -1.3479561875   -2.0214996536    0.0202248514
 H   -1.0349054955   -3.6145345975   -0.7147229789
 H    0.1327005854   -2.9082711281    0.4213460513
 H   -1.0814752397   -2.9438509555   -3.1266173524
 H   -0.1032665301   -1.4882426042   -3.6798253472