18

 C   -0.0056891735    1.5778066338   -0.1640059658
 C   -0.0278416109    0.0625522994   -0.0203667421
 C    1.0152433717   -0.7093012812   -0.8800086208
 N    1.7546956135   -1.0834542716    0.3575883357
 C    0.7071562977   -0.5437460528    1.2429055655
 C    1.4587107144    0.2728508327    2.2493877044
 C    2.7646682484    0.2443547244    1.9578166262
 C    2.9764943367   -0.4619732603    0.6564288448
 O    3.9566195611   -0.4506175080   -0.0542330789
 H    1.0076133207    1.9764579637   -0.0555646151
 H   -0.3773808733    1.8734251755   -1.1507464559
 H   -0.6378771125    2.0574400834    0.5907537526
 H   -1.0482545970   -0.3149803878   -0.1208133031
 H    0.6261792471   -1.5819663732   -1.4106119813
 H    1.6212012122   -0.1098697013   -1.5652504854
 H    0.1090267519   -1.3240490588    1.7299665081
 H    0.9960934404    0.7391196120    3.1109337639
 H    3.5789891513    0.7039368200    2.5010062073