16

 C   -0.0281180338    1.0677903479   -0.2725309046
 C   -0.2686548339   -0.4335558050   -0.0007018150
 N    0.4717681002   -0.8840412204    1.1650896237
 C    1.6841325307   -1.2734717225    1.0187702135
 N    2.4381858473   -1.2992651870   -0.1417324035
 C    2.4110556104   -1.6987774482    2.1867529222
 C    3.0476640015   -2.0710392431    3.1356143353
 C   -1.7058653315   -0.6792611073    0.2253936467
 N   -2.8390680089   -0.8568617578    0.3597375640
 H    1.0265021448    1.2338374664   -0.5058355575
 H   -0.6385770305    1.4120567858   -1.1112829999
 H   -0.2853243589    1.6470616402    0.6164594350
 H   -0.0195748362   -0.9987926976   -0.9167276279
 H    1.9566667978   -1.2702774157   -1.0264768342
 H    3.2614161482   -1.8800075735   -0.1300033850
 H    3.5878176227   -2.3928725921    3.9923075672