14

 C   -0.0162554091    1.4814918055    0.1001915681
 N   -0.0448997577    0.0244431491   -0.0501724391
 C    0.6787526590   -0.5049356394   -1.2056456529
 C    0.6713945261   -1.9736886278   -1.1604325269
 C    0.6753468230   -3.1706348720   -1.0991950226
 C   -0.0001101204   -0.0457015529   -2.4474353984
 N   -0.5302060974    0.3167430448   -3.4060068511
 C    2.1030973966   -0.0393233193   -1.2639960062
 N    3.1885151564    0.3536400983   -1.2204595498
 H    0.9961446626    1.9028459937    0.1809944545
 H   -0.5201360970    1.9433251103   -0.7534520502
 H   -0.5782657891    1.7358062727    1.0010277513
 H    0.3084910007   -0.4404991146    0.7792364446
 H    0.6760193463   -4.2328752484   -1.0536856415