21

 C   -0.0240631047    1.7070949349    0.1288858758
 C   -0.0632808782    0.1938470230    0.0311652377
 C   -1.3733244972   -0.4046226682   -0.4572507648
 C   -1.7270962893   -0.0318356815   -1.8952629384
 O   -2.9055177485   -0.7461322147   -2.2389611182
 C    1.2082989005   -0.5282848999   -0.3242385251
 C    0.6746162725   -0.6180070269    1.1007908534
 C    1.3732539514    0.0099863986    2.1824952326
 C    1.9542042806    0.5274685995    3.1010047165
 H    0.8992166359    2.0488543005    0.6021948855
 H   -0.0874979801    2.1706454980   -0.8612995252
 H   -0.8618062921    2.0813409325    0.7283504248
 H   -1.3287058594   -1.4985974962   -0.4031701705
 H   -2.1959431589   -0.0916273704    0.1977635335
 H   -1.8846812550    1.0539552731   -1.9816719051
 H   -0.8896782035   -0.2950544520   -2.5617961167
 H   -3.1616920794   -0.4927606963   -3.1303780487
 H    1.1503682405   -1.4266413197   -0.9299811254
 H    2.1073169669    0.0594616406   -0.4720308528
 H    0.2049923201   -1.5620120122    1.3639828500
 H    2.4673042379    0.9816410573    3.9117271410