20

 C   -0.1258872901    1.5397332776    0.0591464138
 C   -0.0148648512    0.0354859610   -0.0782746131
 C    0.6396845389   -0.6559452359   -1.2185660912
 C    1.6684714280    0.0909499743   -2.0707272653
 C    2.8650925390    0.3383436446   -1.1390910209
 O    2.9239615410    1.6398681588   -0.4960825635
 C    2.8544350886    1.0330873312    0.8172725284
 C    2.5338954298   -0.3451908286    0.2091898258
 N    1.1561133168   -0.8479526485    0.1622667222
 H    0.7192540840    2.0810457737   -0.3643851853
 H   -1.0372162617    1.8617431078   -0.4581914308
 H   -0.2367760616    1.8291910685    1.1097611045
 H   -0.9049414204   -0.4615342382    0.3086534573
 H    0.1572563521   -1.5168478267   -1.6764877028
 H    1.9714409218   -0.5321531857   -2.9174837689
 H    1.2949041543    1.0352473784   -2.4784841699
 H    3.8282201450    0.1062590505   -1.6071405829
 H    3.8288944981    1.0687390669    1.3199620191
 H    2.1000158415    1.4948386923    1.4584005244
 H    3.1776180761   -1.1643998418    0.5361647291