20

 O    0.0358775384    1.3728699837    0.0326994858
 N    0.0921431548   -0.0328055290   -0.0028834543
 C   -1.0654884593   -0.5745228617   -0.0154246879
 C   -1.0933811844   -2.0809194636   -0.0362705239
 C   -1.6956250628   -2.7319771934    1.2265922032
 C   -3.1661232300   -2.3674770789    1.5147463267
 C   -3.3815774399   -0.9565490089    2.0157943918
 C   -3.0383748091    0.1520370307    1.3614439163
 C   -2.3799752015    0.1734595584   -0.0057393339
 H    0.9685106454    1.6078624025   -0.0051557328
 H   -1.6792390422   -2.4065131627   -0.9084356038
 H   -0.0702227348   -2.4397166623   -0.1775569815
 H   -1.6231718739   -3.8190986919    1.1029438124
 H   -1.0814971823   -2.4704501068    2.0958918232
 H   -3.7562417893   -2.5332953376    0.6002838762
 H   -3.5601278959   -3.0711581129    2.2547190712
 H   -3.8513447067   -0.8548657045    2.9911860222
 H   -3.2259584762    1.1192180435    1.8190734120
 H   -2.2147135575    1.2000648815   -0.3303106979
 H   -3.0454800226   -0.3047289658   -0.7382483549