18

 C    0.0859691137    1.5503477397   -0.1115117228
 C    0.0098499292    0.0612835744    0.2395219248
 C   -1.3905073736   -0.5091479813    0.0443982415
 N   -1.7511322702   -0.8747887057   -1.3327548325
 C   -1.6334101113   -1.9596593111   -0.3464780190
 C   -0.5138673418   -2.9250703124   -0.5508181714
 O   -0.4824825085   -4.0155924841   -0.0386740729
 C   -2.4181843911    0.0730019809    0.8745461594
 C   -3.2700472336    0.5744459137    1.5601622050
 H    1.1027635567    1.9271577800    0.0303116072
 H   -0.1950118567    1.7138730097   -1.1563679836
 H   -0.5858424630    2.1404732854    0.5184462063
 H    0.7053824794   -0.4986261943   -0.3906573153
 H    0.3109940183   -0.1020614925    1.2803404144
 H   -2.7307823981   -0.6728428329   -1.5149302263
 H   -2.5323961498   -2.4099584727    0.0652389734
 H    0.2895245979   -2.5679512930   -1.2293980716
 H   -4.0225095474    1.0124618260    2.1688123332