17

 C   -0.1442588047    1.4949695977    0.0042111346
 C    0.0247894432    0.0009341676    0.0419827418
 N    0.1252430280   -0.7067045922    1.1037884239
 O    0.0483216699    0.0577346235    2.2707035128
 C    0.0477968849   -0.7517210320   -1.2525749258
 C   -0.2048672595   -2.2275042741   -1.2679362848
 N   -1.2265354206   -1.3275981963   -1.7880778712
 C    0.9182810696   -0.2259664838   -2.3494405398
 O    1.7705503191    0.6147775968   -2.2132500527
 H    0.8279840080    1.9738808122   -0.1453634175
 H   -0.7791403995    1.7875131616   -0.8367655953
 H   -0.5771993196    1.8571071764    0.9364195234
 H    0.1314991467   -0.6117200345    2.9581345483
 H    0.2884253667   -2.8417996772   -2.0162997198
 H   -0.3378709863   -2.6862420657   -0.2948456230
 H   -1.9513658718   -1.1928480074   -1.0856080238
 H    0.7086736260   -0.7057303028   -3.3304359912