18

 C    0.1706907415    1.1203235383   -0.4325760160
 O   -0.0883280131    0.0670021427    0.4854324505
 C   -1.3134998117   -0.5369890547    0.3280602223
 C   -1.4408819753   -1.8815175391    0.0708627370
 O   -0.5025274139   -2.8441541729   -0.1184950391
 N   -2.7677966678   -2.2073494537    0.0549904375
 C   -3.2965367383   -3.5221259881   -0.2366430058
 C   -3.5008764627   -1.0550316679    0.2812865569
 C   -2.6314942343   -0.0070202020    0.4632876441
 H    1.1819306064    1.4798284147   -0.2262512865
 H    0.1095172867    0.7700555908   -1.4717447346
 H   -0.5354437668    1.9503399750   -0.3022153990
 H    0.3502861912   -2.4186018551    0.0332333217
 H   -4.3135403861   -3.5902315086    0.1548138203
 H   -3.3185018300   -3.7247073993   -1.3139238261
 H   -2.6806534501   -4.2852276276    0.2445696166
 H   -4.5776520672   -1.0937316159    0.2926270865
 H   -2.9025279886    1.0135307734    0.6833038036