18

 C    0.3061284877    1.5462578491    0.3458130915
 C    0.0467350721    0.1049613042    0.0572417531
 C    0.8828690756   -0.9120451737   -0.7386119604
 C    0.5408936734   -1.1617117773    0.7101502931
 N   -0.7210287407   -1.9393257784    0.3443386366
 C   -0.4134298990   -1.6710903629   -1.1106575072
 C   -1.2328627901   -0.6949933133   -0.3471557689
 C   -2.7100291129   -0.4390891800   -0.3436530804
 O   -3.4033309560   -1.6651114849   -0.4589073687
 H    1.3600606929    1.6996078100    0.6025093145
 H    0.0817274572    2.1786174225   -0.5208445241
 H   -0.2946920954    1.9048383515    1.1893756597
 H    1.8352446568   -0.7727781486   -1.2302730474
 H    1.1496874320   -1.3477122199    1.5867872218
 H   -0.6748578707   -2.3722456502   -1.8938925558
 H   -2.9869032487    0.1041619753    0.5765474436
 H   -3.0079905356    0.1850255852   -1.1941920429
 H   -2.9582862488   -2.2727106388    0.1493163017