19

 C   -0.0383330821    1.6793183979    0.1592507233
 C   -0.1156513256    0.1535532785   -0.0210504389
 C    0.6680394744   -0.5832530751    1.0758282839
 C   -1.5811281399   -0.2744948351    0.0286907977
 O   -2.2629428420   -0.1633758485    1.0309362782
 N   -2.0833016291   -0.7976192653   -1.1381173026
 C   -3.4776691665   -1.1735958509   -1.2476871698
 C   -4.1837000482   -0.4124080481   -2.2858859759
 N   -4.7217647004    0.1730274850   -3.1238886561
 H    1.0046486410    2.0093444827    0.1599454600
 H   -0.5619578283    2.2067495271   -0.6441654789
 H   -0.4965887396    1.9665244946    1.1093648580
 H    0.3068076877   -0.1095951014   -0.9994260356
 H    0.2183467665   -0.3840431208    2.0519124712
 H    0.6639311819   -1.6659307482    0.9150890333
 H    1.7085166916   -0.2457138128    1.0926888807
 H   -1.5049144808   -0.8331012671   -1.9611957930
 H   -3.5928254886   -2.2434442639   -1.4599644373
 H   -3.9245931821   -0.9740314887   -0.2683358281