20

 C    0.0874104765    1.5538395413   -0.0142678785
 C    0.0388979993    0.0207436917   -0.0090517592
 C   -1.4260705238   -0.4643113790   -0.0041898350
 C    0.8021222131   -0.6482341689   -1.1494545287
 C    2.3129798111   -0.5038365271   -1.2009068102
 C    1.6839799590   -1.6800620317   -0.5143801922
 O    1.5727170101   -1.5823311543    0.8947014170
 C    0.7376781961   -0.5484159906    1.2315267512
 N    0.5563941503   -0.1366816462    2.4101238931
 H    1.1148347654    1.9228963472   -0.0767462924
 H   -0.4694571968    1.9507128599   -0.8692717031
 H   -0.3540883664    1.9426814784    0.9066031668
 H   -1.9499221788   -0.0979932801   -0.8935379074
 H   -1.4840633695   -1.5573757261    0.0001756455
 H   -1.9422971821   -0.0915296464    0.8837961763
 H    0.2701473383   -0.8533105716   -2.0710249409
 H    2.7923259551   -0.6745257415   -2.1586844992
 H    2.7978533683    0.2399327864   -0.5764448722
 H    1.8094060538   -2.7014892772   -0.8495315115
 H    1.1197452812   -0.6697571343    3.0740388703