19

 C   -0.3810463847    0.9850662404   -0.4138726117
 C    0.8944124191    1.2449379752    0.3467285158
 C    0.4681493833   -0.1720257288    0.0449040390
 C    0.0135893793   -1.0602079335    1.1590875064
 O   -0.9991739862   -0.5360311121    2.0434383584
 C   -1.3289845177   -1.6383584476    1.2241077614
 C   -2.4704227393   -1.6799671440    0.2144083928
 O   -2.8371373555   -2.9997127945    0.6797210580
 C   -1.8460391468   -2.9796810951    1.7319532918
 H   -1.3098153575    1.1577212270    0.1172718669
 H   -0.4099589391    1.2086191351   -1.4741889209
 H    1.7474478662    1.6487946412   -0.1865440814
 H    0.7974967309    1.5833990679    1.3724070119
 H    1.0403871986   -0.6974891547   -0.7153495292
 H    0.8117046331   -1.5903017633    1.6839022411
 H   -3.2603003831   -0.9391798298    0.3932808829
 H   -2.1939053003   -1.6743316599   -0.8460077181
 H   -1.1602502425   -3.8335094422    1.6736409032
 H   -2.2961808680   -2.9369051414    2.7321930117