21

 C    0.0801529275    1.5234254793    0.1115929538
 C   -0.0134966301    0.0250027854    0.0251575684
 C    0.7837357221   -0.7151619482   -1.0781326474
 C    0.5434797624   -2.1738160357   -0.5755610104
 C   -0.3180646847   -1.8103633700    0.6483014849
 O    0.4322259766   -0.6951025801    1.2276843454
 C   -1.3383783794   -0.7921410459    0.0894507330
 C   -2.3662912584   -0.3122441978    1.0923172087
 O   -3.2910586536   -1.3775921505    1.2888718671
 H    1.1217989106    1.8267684836    0.2601501306
 H   -0.2769148330    1.9822195247   -0.8163608992
 H   -0.5107719430    1.9176935855    0.9427532213
 H    0.3922168088   -0.5267783645   -2.0817819695
 H    1.8373439905   -0.4267053698   -1.0551965887
 H    0.0160952916   -2.8051540694   -1.2957184283
 H    1.4670048691   -2.6759077449   -0.2802293563
 H   -0.5939364150   -2.5826770896    1.3648695676
 H   -1.8188778843   -1.0425660115   -0.8620474534
 H   -1.8628416638   -0.0391682950    2.0294501552
 H   -2.8770715673    0.5850711235    0.7062561297
 H   -3.9189121465   -1.1069044189    1.9649579975