18

 O    0.4237976564    1.4683765482   -0.4771951261
 C   -0.0185380069    0.2507187046    0.0250370706
 C    0.1006883208    0.0400652104    1.5789120909
 C   -1.3305547480   -0.5008772290    1.5677166865
 C   -1.7866407437   -1.7917303865    2.1306049257
 N   -2.3075832015   -0.5055444326    2.6434426969
 C   -1.5716377396    0.0593328323    0.1661967302
 C    0.6129619541   -0.8898372302   -0.7311757728
 O    1.3869507031   -0.7045756272   -1.6402674203
 H    1.0373402307    1.2515025066   -1.1981076084
 H    0.9018968235   -0.6028357640    1.9549917089
 H    0.1741459873    1.0253469388    2.0486824795
 H   -2.5162636632   -2.3954799512    1.5969068531
 H   -1.0913098019   -2.3581198714    2.7459957136
 H   -1.8613969243   -0.2735135494    3.5282209073
 H   -2.0462630492    1.0435031451    0.1899812391
 H   -2.0809081499   -0.5729157860   -0.5658543402
 H    0.3269007823   -1.9107271684   -0.4056860546