19

 C   -0.7796245242    1.2652417969    0.3268999136
 C    0.0573910943    0.0195784886    0.1256624916
 C    0.7050189925   -0.2191590717   -1.2561352868
 C    2.0360606937   -0.2067768251   -0.4797745815
 C    2.9668943677   -1.4557138554   -0.4687317514
 C    4.0390591500   -0.5923829968   -1.1505482391
 O    5.0624856927   -0.8338297690   -1.7210761005
 C    3.2309877008    0.6905594355   -0.9033826458
 O    1.3676307353    0.1248765908    0.7453605762
 H   -0.2677405893    2.1463214723   -0.0725614518
 H   -1.7457126079    1.1617893756   -0.1793586848
 H   -0.9685005499    1.4309348256    1.3921413430
 H   -0.4719530553   -0.8610770069    0.5137816460
 H    0.4499736743   -1.1533859557   -1.7590079739
 H    0.5830310531    0.6127946547   -1.9537875948
 H    3.2534282649   -1.7219548151    0.5548381200
 H    2.6444013547   -2.3574531925   -0.9959625057
 H    3.1007125110    1.3705117874   -1.7495069916
 H    3.6194596116    1.2547276306   -0.0478927325