15

 C    0.0036223608    1.4237399332    0.1054683773
 C   -0.0219096622   -0.0543839242   -0.0492359425
 N   -0.0656133109   -0.7206745141   -1.1354954667
 C   -0.0165000272   -2.1103511308   -0.7856455911
 C    1.2098346949   -2.5863507395   -0.0511126053
 C    0.0185591473   -2.1291932392    0.7566761480
 O    0.0026539323   -0.7637415245    1.1282239174
 C   -0.7140218051   -2.9990338569    1.6242224243
 N   -1.2991662991   -3.7301144170    2.3031306688
 H    0.9457595104    1.7440334391    0.5613487839
 H   -0.1031884079    1.8921251327   -0.8722264820
 H   -0.8065189203    1.7479997633    0.7653502965
 H   -0.6001445428   -2.8004183106   -1.3817314677
 H    1.3951021122   -3.6541347409   -0.0483037691
 H    2.0910863278   -1.9537527705   -0.0402506419