19

 C   -0.0131564382    1.5607446031    0.0491244766
 O    1.3649633669    1.9772659240    0.0562354095
 C    2.1150333892    0.8012256172   -0.2585373714
 C    1.7526899304    0.3811199706   -1.7084590180
 C    0.4983884184   -0.4885739610   -1.4249068965
 O    0.9427395372   -1.8187150352   -1.1455197265
 C    1.6950079567   -1.7176267546    0.0778488270
 C    1.4229692966   -0.2989510520    0.5851521126
 C    0.0430566889    0.0332840916   -0.0387325174
 H   -0.4912608928    1.9044758762    0.9734130777
 H   -0.5445046895    2.0168769388   -0.7976964372
 H    3.1681466959    1.0037951438   -0.0617668405
 H    1.5540762669    1.2684668545   -2.3143095558
 H    2.5182177726   -0.2204834934   -2.2043665484
 H   -0.2475084277   -0.5362937327   -2.2187343197
 H    1.3377899537   -2.4823428810    0.7768864582
 H    2.7607602446   -1.9044414542   -0.1138869778
 H    1.5286352081   -0.1571335618    1.6609147791
 H   -0.8233156979   -0.4919379440    0.3638609786