18

 C   -0.0700900268    1.4082803850   -0.0386853026
 N    0.0182996370   -0.0471649714    0.0094540848
 C    1.3758508783   -0.5824816162   -0.1915092020
 C    0.7624239234   -0.5748449703    1.1660555201
 C    0.6356308794   -2.0912940783    1.3791565008
 O    1.9576018591   -2.5628947034    0.8998968475
 C    1.4455781749   -2.1013767943   -0.4133207432
 C    0.0573838128   -2.6422413428    0.0417115209
 O   -0.0540123609   -4.0345003634   -0.0007927406
 H    0.8209137534    1.9214049891    0.3611096083
 H   -0.2102891551    1.7229649692   -1.0772111014
 H   -0.9408803097    1.7320659814    0.5393326121
 H    2.1809672981    0.0811839842   -0.4871551396
 H    1.0754493150    0.0949457657    1.9594446037
 H    0.3606531794   -2.4836992532    2.3574859968
 H    1.9963944020   -2.5040632780   -1.2625370044
 H   -0.8488565044   -2.2081749857   -0.3702236166
 H    0.7695992442   -4.3766080875    0.3732897054