18

 C   -0.1459398173    1.3463624357    0.0921841283
 C    1.2869401548    0.8797433893    0.1611625147
 O    1.7259246167    0.5536923942    1.4364612401
 C    2.6344927263   -0.5367250381    1.5433519957
 C    1.9469710352   -1.8860060743    1.8202046743
 N    1.5399159165   -2.6347793518    0.6317586304
 C    0.5762549489   -2.2327620749   -0.0660410471
 O   -0.2061807496   -1.1248633211    0.1889070890
 C    0.2270612463    0.0216349921   -0.4984422081
 H   -0.6775253885    1.3127874412    1.0361169036
 H   -0.4198446573    2.1568212118   -0.5729685566
 H    2.0329747817    1.3536939078   -0.4781692120
 H    3.2730591183   -0.6093616170    0.6526604385
 H    3.2732497927   -0.2976463895    2.4003826837
 H    2.6575330087   -2.5177053782    2.3632176234
 H    1.0944931009   -1.6906900389    2.4816627622
 H    0.2699161345   -2.7900254937   -0.9542323315
 H    0.2432946210   -0.0856063145   -1.5826384784