21

 C    0.0096556468    1.5987892074   -0.1144268099
 C   -0.0239258990    0.0696451868   -0.1600564432
 C   -1.4122820890   -0.5053497187    0.1663088385
 C   -1.4333100586   -2.0095525005    0.1484831832
 C   -1.6074372791   -2.8307770829   -1.1278037220
 C   -2.5744285884   -3.0592880037   -0.0218590158
 C   -1.9371185397   -3.9941641163    1.0165554318
 C   -0.8537703485   -2.8986148353    1.2094946356
 O   -0.0130568623   -2.7213624568    2.0481554782
 H    1.0080262189    1.9813028971   -0.3477250190
 H   -0.6911088889    2.0345738563   -0.8358781274
 H   -0.2650462445    1.9711056794    0.8787533160
 H    0.2848397865   -0.2800413424   -1.1533571986
 H    0.6989005017   -0.3431609355    0.5523363012
 H   -1.7227291958   -0.1511695205    1.1580385931
 H   -2.1522732940   -0.1207749358   -0.5481605764
 H   -1.9594732046   -2.2404801581   -1.9686771372
 H   -0.8917426633   -3.6030512940   -1.3985090753
 H   -3.6317844751   -2.8446784906   -0.1043798672
 H   -2.5127339490   -4.1143270669    1.9388533306
 H   -1.6162165740   -4.9785920990    0.6627087040