13

 O    0.4989532664    1.0057705649    0.8330021599
 C    0.2014790700   -0.2020139620    0.3317378547
 N    0.3384196036   -0.5014074408   -0.9348632685
 O   -0.0765952666   -1.8299979307   -1.0474701850
 C   -0.4316692993   -2.2861334960    0.1635515114
 C   -0.2835893170   -1.3096918798    1.0942497290
 O   -0.6285538998   -1.3721664421    2.4098099597
 C    0.2565272448   -0.8719700423    3.3245437834
 N   -0.0716742602   -0.8674925602    4.5370211081
 H    0.7859322348    1.5701107311    0.1020158634
 H   -0.7821372430   -3.3039424648    0.2199159743
 H    1.1905933908   -0.5220188165    2.8752612779
 H    0.6796635056   -0.4777963708    5.1023123317