17

 C   -0.1149371421    1.5611229573   -0.0005602894
 C    1.4227801071    1.5116386527   -0.2080975259
 N    1.4171084339    0.1530188535    0.3657509268
 C   -0.0461616568    0.0358590793    0.2744436704
 C    2.2906574003   -0.8303996739   -0.0357083858
 C    2.1611617041   -2.2060029415    0.0051067485
 N    3.3521267779   -2.6424393583   -0.4902843488
 N    4.1601438272   -1.6322383887   -0.8184574051
 N    3.5199157009   -0.5243848389   -0.5468077035
 H   -0.4166084511    2.1429512640    0.8716857285
 H   -0.7089030669    1.8686805227   -0.8609867346
 H    1.7314778186    1.5298126731   -1.2607725918
 H    2.0300280138    2.2319182275    0.3469412367
 H   -0.5318612266   -0.3328343657    1.1845163015
 H   -0.3759663286   -0.5796643672   -0.5762015255
 H    1.3806765730   -2.8696914315    0.3317987563
 H    3.6668150954   -3.5891521945   -0.6280144283