27

 C   -0.0968837551    1.5375410818   -0.0466988050
 C    0.1155045767    0.0215177276   -0.0611462893
 C    0.6505941774   -0.5250509137    1.2670679023
 C    0.8620784525   -2.0417959513    1.2557753545
 C    1.3993182150   -2.5750758198    2.5782252072
 O    1.5440733905   -3.9755995596    2.4694187345
 C    2.2160431748   -4.6091026844    3.5509338423
 C    1.3425481976   -4.6876221119    4.8076375726
 C    2.6232155217   -5.9918278278    3.0525529030
 H    0.8402823992    2.0669189514    0.1590853627
 H   -0.4778755028    1.8977034789   -1.0075115899
 H   -0.8161535185    1.8294059279    0.7267715935
 H   -0.8310291657   -0.4798921499   -0.3023490611
 H    0.8119232581   -0.2443067732   -0.8672702906
 H    1.5983922819   -0.0229873323    1.5077271487
 H   -0.0457136460   -0.2569325043    2.0741567944
 H   -0.0832226563   -2.5521336718    1.0335115997
 H    1.5606569678   -2.3207518111    0.4574848539
 H    2.3727080428   -2.1084690864    2.8112718836
 H    0.7114964195   -2.3053069460    3.3962610334
 H    3.1265394126   -4.0313795605    3.7888550156
 H    0.4216865250   -5.2398053253    4.5929994969
 H    1.8761593784   -5.2043108705    5.6119096964
 H    1.0693542394   -3.6952135492    5.1772675758
 H    3.2423052600   -5.9065236412    2.1557057151
 H    3.1877202385   -6.5304457087    3.8195545464
 H    1.7349924247   -6.5798018186    2.7997650032