20

 C    0.4350813040    0.2429614203   -1.5012313591
 C   -0.0426096646    0.1745332325   -0.0451974434
 C   -1.4160439782   -0.4757659383    0.0877897311
 C   -1.5240875436   -2.0411034737   -0.0331022466
 C   -1.1178898793   -2.1061396307    1.4743628024
 C   -1.9723514052   -0.8172797264    1.5001038203
 O   -3.2966644549   -1.2994770662    1.2114888228
 C   -3.0429717471   -2.1987184791    0.1035069779
 H    1.4065178991    0.7412006742   -1.5763189755
 H    0.5396018846   -0.7579226402   -1.9331613751
 H   -0.2745375230    0.7989424293   -2.1236555277
 H    0.7076039976   -0.3496072081    0.5563334850
 H   -0.0995221640    1.1922007988    0.3633093222
 H   -2.1374609615    0.0755533790   -0.5274844104
 H   -1.0219774923   -2.6172596391   -0.8101008563
 H   -1.4812502399   -2.9480969816    2.0686297712
 H   -0.0549042205   -1.9462782199    1.6484937315
 H   -2.0112748301   -0.1151701624    2.3324610991
 H   -3.5989099545   -1.8699866180   -0.7826161237
 H   -3.3583588766   -3.2158546105    0.3655045943