18

 C    0.0048872262    1.5710018474   -0.0230536303
 C   -0.0370844074    0.0534485952    0.1622567325
 C   -1.4507457460   -0.5268813213   -0.0342245599
 O   -1.9790554106   -0.1941002094   -1.3119823223
 C   -1.4621711789   -2.0168600738    0.1498975172
 C   -1.8705329197   -2.8046060762    1.1713320003
 O   -1.6481203143   -4.1115053597    0.8216078155
 C   -1.1160524966   -4.0379065748   -0.4153400575
 N   -0.9767600704   -2.8371837892   -0.8704181973
 H    1.0263932747    1.9513458832    0.0707480314
 H   -0.3788048870    1.8451330038   -1.0087042605
 H   -0.6110368515    2.0788343484    0.7280197905
 H    0.6350118041   -0.4381280378   -0.5525162477
 H    0.3168478046   -0.2230019778    1.1634728623
 H   -2.1266826240   -0.0691777337    0.6986822173
 H   -1.5909956468   -0.8209340649   -1.9359005257
 H   -2.3086967477   -2.6340803762    2.1390896744
 H   -0.8662410586   -4.9714538931   -0.8946210801