19

 C   -0.1121750302    1.6297604433    0.1136653888
 C    0.0250090476    0.1038307311    0.0840447718
 C   -1.2160021352   -0.5763385777   -0.4978451792
 O   -1.4067163180   -0.3026820740   -1.8764819136
 C    1.2708899200   -0.6844952135   -0.2588716134
 C    2.5875262484   -0.1395468786    0.3724062474
 O    2.3191416049    1.0614055131    1.1100348561
 C    2.0144344018   -0.2055490941    1.7112002857
 C    0.6687806457   -0.7608895613    1.1474726656
 H    0.5951189428    2.1197353861   -0.5577609288
 H   -1.1252952120    1.9207934105   -0.1957844672
 H    0.0518405509    2.0390107431    1.1099418516
 H   -1.1262392163   -1.6648295400   -0.4267832428
 H   -2.0965975370   -0.2771099101    0.0930426955
 H   -1.5243558231    0.6475784126   -1.9759083651
 H    1.2652557350   -1.4427621326   -1.0318969952
 H    3.5963611689   -0.2911054027    0.0083659958
 H    2.4527071590   -0.4218133209    2.6778429710
 H    0.1562677768   -1.5973763142    1.6079620660