16

 C   -0.1905530955    1.2829157150   -0.0257662099
 C    1.3229997946    1.4696505558   -0.2947454947
 C    1.5219029946    0.2153084173    0.5901482849
 N    0.0865531257   -0.1135022000    0.3936978357
 C    2.4637134661   -0.8574476102    0.1502851315
 N    3.1948932947   -0.7722586802   -0.9286600252
 O    3.8953756995   -1.9867243716   -0.9492645050
 C    3.4953149422   -2.6583358658    0.1305791456
 N    2.6258460795   -2.0359852506    0.8576084063
 H   -0.5513943880    1.9348094503    0.7823211878
 H   -0.8731354419    1.3684222961   -0.8767855964
 H    1.5982106874    1.2851238607   -1.3331171315
 H    1.7883187307    2.3924712337    0.0504153306
 H    1.7713284420    0.4801186229    1.6282235430
 H   -0.3984112434   -0.4350261247    1.2242187649
 H    3.9293283518   -3.6345658188    0.2910422624