18

 O   -0.1174473132    1.4377191114   -0.0639273025
 C   -0.1092653181    0.0406088756   -0.1075287301
 C    0.5783838322   -0.7480832348    1.0773745343
 C   -0.7882283674   -1.3730254280    1.3860272570
 O   -1.6885536087   -0.2720839672    1.6246764428
 C   -1.4272348913   -0.6644039996    0.2578192377
 C   -1.1012607060   -2.6676477349    2.0365997756
 C   -1.4992663156   -2.6941003831    3.4690226444
 N   -2.4863939065   -2.9768918671    2.4128304242
 H   -0.5892644449    1.6775688242    0.7440333583
 H    0.2829119734   -0.2534181303   -1.0836745054
 H    1.3215480014   -1.4685968288    0.7269438519
 H    1.0043109711   -0.1351909340    1.8754151439
 H   -2.2896302404   -0.9106595383   -0.3515517828
 H   -0.5445269605   -3.5113964152    1.6340723902
 H   -1.2288103024   -3.5444605201    4.0879745859
 H   -1.5612362304   -1.7427841741    3.9897345644
 H   -3.0454103726   -2.1376917558    2.2664474403