18

 C   -0.2548528429    1.5722219541    0.0697467439
 O   -0.2139216836    0.2501769947    0.5661834084
 C   -1.3056108565   -0.5284085651    0.1654458903
 C   -1.2601904005   -1.1689341672   -1.2545512213
 N   -1.2822502262   -2.5552156383   -0.6810616217
 C    0.0917872386   -3.1268113060   -0.5084830312
 C    0.1473086864   -2.5722521766    0.9285086586
 O    0.9056981112   -2.6578200772    1.8441088012
 C   -1.2540446758   -1.9681803202    0.7249586252
 H    0.6209852449    2.0910921063    0.4644525829
 H   -0.2193489923    1.6011975031   -1.0294341385
 H   -1.1634554711    2.0976103811    0.4013312591
 H   -2.2522301784   -0.0117264302    0.3808863557
 H   -2.1319797593   -0.9752603533   -1.8853856624
 H   -0.3509827712   -0.9315974910   -1.8178061159
 H    0.1007631576   -4.2216966142   -0.5537723690
 H    0.8518612312   -2.7426791757   -1.1979832484
 H   -2.0237858922   -2.2662543643    1.4410559932