21

 C    0.0487052466    1.5775878402    0.0566253390
 C    0.0326604142    0.0686616152   -0.0063819123
 C   -0.8977035137   -0.7390103084    0.8791986258
 C    0.6005971092   -0.8384775143    1.0755942592
 C    1.3731200543   -1.9721854156    0.3976686429
 C    1.0148382913   -3.3714626504    0.8997670005
 O    1.8320690806   -4.3023018010    0.2012200041
 C    1.0804094064   -1.7498105442   -1.0749832291
 C    0.3819279447   -0.6324679833   -1.2838633995
 H    1.0223541979    1.9800299056   -0.2450664846
 H   -0.7094645827    2.0101264902   -0.6072614282
 H   -0.1620297759    1.9325503605    1.0703714952
 H   -1.4456146537   -0.2020699599    1.6482293200
 H   -1.4417172741   -1.5650805989    0.4340869537
 H    1.0063367629   -0.4102787630    1.9856715030
 H    2.4508694462   -1.8498590415    0.5807946856
 H    1.1891973354   -3.4269287433    1.9862395138
 H   -0.0529850188   -3.5695272947    0.7245544048
 H    1.5768512842   -5.1890529592    0.4710493917
 H    1.4004696927   -2.4549233805   -1.8320510511
 H    0.0635809425   -0.2593841835   -2.2521736243