17

 C    0.0268573098    1.5461468931    0.2192492530
 C   -0.0164331807    0.0413181476   -0.1016553789
 C   -1.3993252761   -0.5256753015   -0.1225625500
 C   -2.1054324280   -1.0481907435   -1.1345679679
 C   -3.4613055800   -1.4658310564   -0.6316146057
 C   -3.4191757000   -1.1020156602    0.8629368727
 O   -4.2712768334   -1.2547864602    1.7067395609
 N   -2.1670319579   -0.5465390998    1.0606937141
 H    1.0585547971    1.9091650474    0.2209903775
 H   -0.5374533915    2.1173971106   -0.5234870554
 H   -0.4037018278    1.7632732880    1.2019810484
 H    0.4408604500   -0.1430537447   -1.0784411332
 H    0.5894234874   -0.5036133986    0.6355375414
 H   -1.7563977511   -1.1506170671   -2.1510930738
 H   -4.2958148798   -0.9381377448   -1.1088314327
 H   -3.6693271300   -2.5369756793   -0.7389400047
 H   -1.8563292580   -0.2334502604    1.9654653244