19

 C   -0.0972962545    1.6053321250    0.0092924909
 C    0.0318510059    0.0802458184   -0.0186734948
 C    0.7306211896   -0.5048254162    1.2282521810
 C   -0.0071085457   -0.1375436666    2.4399153508
 N   -0.6235674112    0.1534429681    3.3736078856
 C    0.8993017098   -2.0716832958    1.1572933982
 N    1.6044542460   -2.5694267327   -0.0206114731
 C    1.5792262371   -2.5490606148    2.3616492081
 C    2.1693468287   -2.9024739996    3.3459248924
 H    0.8854846685    2.0842548075    0.0771382337
 H   -0.5822841412    1.9656368849   -0.9023234877
 H   -0.6926900250    1.9378004377    0.8641435256
 H   -0.9595856831   -0.3786205514   -0.1162815241
 H    0.6115825927   -0.2184240012   -0.8981957669
 H    1.7368438379   -0.0732327747    1.3102621186
 H   -0.1120866766   -2.4982937337    1.1316090818
 H    1.1314382231   -2.2955981223   -0.8743578474
 H    2.5529275856   -2.2086138089   -0.0523840629
 H    2.6697925626   -3.2290987638    4.2241439103