17

 C   -0.2785793432    1.4628967848   -0.0157650156
 N    0.0289832817    0.0394992939    0.0967162602
 C    1.3443552004   -0.4573586442   -0.2787125908
 C    2.4027855749    0.4413548562   -0.6672910589
 N    3.2394065123    1.1677294707   -1.0006177728
 C    0.8872025938   -0.4448954277    1.1788968153
 C    1.5361740996    0.4516313481    2.2083240456
 C    0.4279782327   -1.7891387509    1.6826181101
 O    0.6935622234   -2.2294159098    2.7695606311
 H    0.5676324672    2.1327761928    0.1782379513
 H   -0.6429287951    1.6522315057   -1.0288996361
 H   -1.0832590769    1.6941751585    0.6868067707
 H    1.3424809243   -1.3921393617   -0.8356683296
 H    2.1191701625    1.2565918576    1.7602007401
 H    0.7751875362    0.8878698583    2.8628025188
 H    2.1956939448   -0.1533037571    2.8343287509
 H   -0.1939997586   -2.3443600953    0.9471614597