20

 C    0.0363767201    0.5268737112   -0.8583805350
 O    0.4143324746    0.8882728998    0.4576054983
 C    0.9564958706   -0.1137151725    1.1885951455
 C    1.1953995712   -1.4455077726    0.9372498205
 C    1.7893951925   -1.9855578523    2.1258259072
 C    2.2374016422   -3.4004591919    2.3319292839
 C    1.8790432125   -0.9607877764    3.0321250914
 N    1.3748462940    0.1946288194    2.4543531670
 C    1.2185385966    1.4798123474    3.0988992921
 H    0.9009434484    0.1733501338   -1.4346066146
 H   -0.7275021189   -0.2611118598   -0.8466728016
 H   -0.3720174133    1.4254279712   -1.3232908852
 H    0.9877859966   -1.9758526868    0.0218908370
 H    3.0124672160   -3.6930720757    1.6129205957
 H    2.6504910994   -3.5396352442    3.3355723202
 H    1.4106015157   -4.1115702378    2.2139919213
 H    2.2629847100   -0.9412865147    4.0399139225
 H    1.9817143971    1.5872768384    3.8729915156
 H    1.3449788231    2.2780962149    2.3651934093
 H    0.2304323915    1.5901282184    3.5623186889