17

 C    0.0120723855    1.5263557958   -0.0242711441
 C    0.0096364489    0.0195522472   -0.0164411386
 C   -0.0095598923   -0.7070164839   -1.2038411409
 C   -0.0113931021   -2.0975756216   -1.1693469932
 C    0.0063285395   -2.7169269331    0.0728743106
 N    0.0249555022   -2.0460988979    1.2275673263
 C    0.0266837913   -0.7086495589    1.1907081394
 C    0.0480047125   -0.0047052611    2.5234555525
 H    0.8997970413    1.9330516848    0.4742857361
 H   -0.0036153230    1.9133932883   -1.0465217119
 H   -0.8578177710    1.9360618687    0.5024371425
 H   -0.0230632688   -0.1810338425   -2.1544121180
 H   -0.0261755404   -2.6842576355   -2.0810907987
 H    0.0056638282   -3.8018218964    0.1508983107
 H    0.9296970482    0.6394458777    2.6253608437
 H   -0.8290834262    0.6408550428    2.6526733041
 H    0.0597638862   -0.7461011044    3.3229170695