21

 C    0.1828669782    1.7882839949   -0.1501680427
 C    0.1256352542    0.2667606482   -0.0445476019
 O    0.8410670490   -0.2896388024   -1.1589869381
 C    1.8238123438   -1.2089176797   -0.6994416788
 C    2.1594194867   -0.7517178986    0.7176372177
 C    0.7770433449   -0.3262957412    1.2260218996
 C    0.7232756994    0.4164940371    2.5795145100
 O    0.1714133619   -0.7362131167    3.2451601947
 C    0.0018858194   -1.4279133334    1.9939660373
 H    1.2003019950    2.1578519560    0.0148036755
 H   -0.1286640956    2.0939380535   -1.1525600244
 H   -0.4847938347    2.2641026999    0.5747036120
 H   -0.9232476719   -0.0570053801   -0.1124107419
 H    1.4262386476   -2.2374880566   -0.6942720265
 H    2.6711255432   -1.1781274031   -1.3908386102
 H    2.6225224980   -1.5258978964    1.3348686466
 H    2.8347982036    0.1112681872    0.6875966026
 H    1.6901673696    0.7153493733    3.0027068135
 H    0.0386249952    1.2738011298    2.6185392375
 H   -1.0580994969   -1.5176076282    1.7172362537
 H    0.4520011393   -2.4287549435    2.0083513739