19

 C    0.0071715667    1.5931001605   -0.0387182026
 C   -0.0461628619    0.0660459509    0.0206667875
 O    0.4366415217   -0.5120156116   -1.1886552787
 C    0.6995756446   -0.5262729678    1.2371455344
 C    0.2110948818    0.0131148595    2.5816223735
 C    0.9212292461   -2.0570293771    1.1758474154
 O    2.3711974192   -1.8522864666    1.0590378358
 C    2.2278796060   -0.4959306348    1.0640950766
 O    3.0773719356    0.3306163652    0.9314779658
 H    1.0446689625    1.9437818480   -0.0134992365
 H   -0.4591223163    1.9330938598   -0.9671221796
 H   -0.5255868760    2.0523433195    0.7979258437
 H   -1.0923767328   -0.2602531379    0.0850619322
 H    1.2697931341   -0.0810231395   -1.4136717092
 H   -0.8731485885   -0.1115812618    2.6779327356
 H    0.6866084589   -0.5158323540    3.4128571717
 H    0.4441796409    1.0751319853    2.6885648963
 H    0.6856813684   -2.6172999028    2.0826207429
 H    0.5410967089   -2.5518327848    0.2827222152