13

 C    0.4562638148    1.2557496542    0.1820879034
 C   -0.3181630411   -0.0112754320   -0.0929262911
 O   -1.1653388213   -0.4655871905    0.6415350126
 C    0.0135867091   -0.6918619054   -1.3396113558
 C    0.2740615678   -1.2666054657   -2.3718874789
 C    0.5841681787   -1.9635986219   -3.5938106814
 O    1.4030982425   -2.8520918591   -3.6819401244
 C   -0.1830977030   -1.5207752231   -4.8490209422
 O   -0.9757898728   -0.6209307863   -4.8627518526
 H    1.5303686294    1.0422155609    0.2078262840
 H    0.2909001800    1.9785713403   -0.6242510606
 H    0.1340269272    1.6766957241    1.1353584137
 H    0.0924683589   -2.1268005255   -5.7364127868