20

 C   -0.5158854056    1.3697024711   -0.0170197924
 C   -0.0573555322   -0.0717301864    0.0403589230
 C    1.3597070118   -0.4653237316   -0.3016352595
 C    0.8650751988   -0.6072248920    1.1177120156
 C    1.4075183311    0.2217330839    2.2595954002
 C    0.6006900821    0.2933398019    3.5532412875
 C    1.8649746161   -0.5067039297    3.5221857565
 C    2.1741328842    1.3944321566    1.9207062399
 N    2.7965129209    2.3320025511    1.6489278534
 H    0.2806818337    2.0674545128    0.2513603638
 H   -0.8473328099    1.6238614231   -1.0296357710
 H   -1.3587842310    1.5451159340    0.6607714804
 H   -0.8198683054   -0.7824906944   -0.2699469623
 H    1.5401791313   -1.3658628153   -0.8781706271
 H    2.0603200564    0.3395094074   -0.5009523867
 H    0.6469312562   -1.6214061699    1.4414232129
 H    0.5965545250    1.2303045299    4.0970707022
 H   -0.3470164028   -0.2332607986    3.5445373597
 H    1.7993187692   -1.5886549353    3.4976396896
 H    2.7334067100   -0.1164849986    4.0389896843