16

 O    0.0016732149    1.3603305284    0.0291298697
 C   -0.0199537982   -0.0274600695    0.0187299458
 C   -0.4704730292   -0.7690236445   -1.2071723105
 C   -1.3334800539   -0.7724929313    0.0538379639
 C   -1.1190641932   -1.9301631663    0.9658156057
 C    0.1194869217   -1.9587709975    1.4598638926
 C    0.9303775281   -0.7524184664    0.9992943056
 C    2.2196257543   -1.1005863311    0.4000178862
 N    3.2335949131   -1.3658997160   -0.0881034335
 H    0.6879190427    1.6578893243   -0.5792072499
 H   -0.8174573057   -0.1426865302   -2.0221925518
 H    0.0261994999   -1.6880236339   -1.4997325928
 H   -2.2763269324   -0.2390937981    0.0334407747
 H   -1.8867326905   -2.6664263370    1.1734454242
 H    0.5420724650   -2.7160080071    2.1073402438
 H    1.1287928035   -0.0745396439    1.8414207465