20

 C    0.6370758962    1.4318878615   -0.0308317735
 O    0.8301588520    0.0154077919   -0.1447259909
 C    0.1385630646   -0.5811824792   -1.1377676490
 O   -0.6095220257    0.0076796941   -1.8773393478
 C    0.4645385491   -2.0657878364   -1.2224664627
 C   -0.7875991904   -2.8789751101   -1.5730574256
 C    1.5600376245   -2.2457455311   -2.2676396667
 C    2.9864234251   -2.0650814314   -1.9064814594
 N    2.4561431003   -3.4085743544   -2.2113385597
 H    0.9478776280    1.9381399196   -0.9481815024
 H   -0.4143451788    1.6630487372    0.1571275745
 H    1.2546074924    1.7493118071    0.8093820017
 H    0.8671717938   -2.3753831611   -0.2516073297
 H   -1.2345761250   -2.5007469199   -2.4955503758
 H   -0.5300091225   -3.9324460311   -1.7132783849
 H   -1.5397773803   -2.8096645044   -0.7818419721
 H    1.2454031574   -1.9894570789   -3.2774862567
 H    3.6911924456   -1.6757573483   -2.6353159611
 H    3.2159636619   -1.8146501947   -0.8740952364
 H    2.3041195818   -3.9203172705   -1.3444802319