20

 C    0.0844868356    1.4948693076    0.2782386163
 C    0.0384023524   -0.0009487190   -0.0489223822
 C   -1.3751198579   -0.5413531383   -0.1465802033
 C   -2.1171199222   -0.9106278733    1.1284657742
 C   -1.6708363820   -1.9872116182    0.1725784848
 C   -2.6626699854   -2.6856280326   -0.7262474863
 O   -3.5879293695   -1.7871007233   -1.3631961158
 C   -3.1360991606   -0.5458615219   -1.6685783314
 N   -2.1516093674    0.0833053863   -1.1853007554
 H    1.1155340428    1.8609692403    0.2974768499
 H   -0.4719618951    2.0641203062   -0.4703939224
 H   -0.3643337463    1.6986091398    1.2563858502
 H    0.5501056217   -0.1857766865   -1.0018412271
 H    0.5818257955   -0.5718764166    0.7141667948
 H   -1.5852683377   -0.8160132351    2.0694854141
 H   -3.1735432917   -0.6683413504    1.1793605532
 H   -0.8416645766   -2.6189666646    0.4804295583
 H   -2.1246125702   -3.2292884900   -1.5144019381
 H   -3.2848884447   -3.4038204395   -0.1830533387
 H   -3.7761282608   -0.0892745510   -2.4211019951