20

 N   -0.1026608748    1.3114674275    0.1199604459
 C   -0.0465120357    0.0556831639    0.0033183925
 O   -1.1748747020   -0.6770151780    0.0109570719
 C   -1.0393417671   -2.1031460788    0.0172875959
 C   -0.9858955346   -2.6450425539    1.4476688822
 C   -1.0486872227   -4.1768981416    1.4281825894
 O   -2.1961322013   -4.6453254054    0.7447116937
 C   -2.2194155906   -4.2230230107   -0.6067790275
 C   -2.2339580134   -2.6944452812   -0.7263287407
 H    0.8340703129    1.7058423172    0.0652929671
 H    0.8654222241   -0.5455333844   -0.1270887487
 H   -0.1123057810   -2.3752235350   -0.5110980667
 H   -0.0740362253   -2.3102830876    1.9554986958
 H   -1.8419964199   -2.2484943629    2.0041444823
 H   -0.1356040120   -4.5855648080    0.9596673502
 H   -1.1081420514   -4.5768548370    2.4438919800
 H   -1.3484180976   -4.6355674911   -1.1463161217
 H   -3.1202270622   -4.6550458430   -1.0504394443
 H   -3.1543977243   -2.3014527822   -0.2814440121
 H   -2.2165440512   -2.3924663281   -1.7786588953