18

 C   -0.0463937880    1.5814890760   -0.0562009263
 C    0.0066938512    0.0536968355   -0.0048291677
 C    0.7225069539   -0.4922190422    1.2501462971
 C   -0.0007811747   -0.1244736918    2.4696223216
 N   -0.6000545205    0.1683836438    3.4136270235
 C    0.9059858722   -2.0438224526    1.1743451630
 O    1.5786107002   -2.4045003191   -0.0231681863
 C    1.5937297350   -2.5629852995    2.3551142803
 C    2.2164252624   -2.9685244590    3.2993655627
 H    0.9602183353    2.0139885069   -0.0614006537
 H   -0.5567880133    1.9165617418   -0.9635507858
 H   -0.5837688027    1.9924520063    0.8038227276
 H   -1.0084391256   -0.3595596924   -0.0357294153
 H    0.5392919298   -0.3443268582   -0.8722078792
 H    1.7257355998   -0.0503011668    1.3139940783
 H   -0.0913383525   -2.4936254864    1.1009256630
 H    2.5261142057   -2.3548304506    0.1456406685
 H    2.7426922219   -3.3361194517    4.1461475087