15

 O    0.2185751685    1.3029708052   -0.2182626661
 C    0.0081507533   -0.0306852152    0.0166587070
 C   -0.7903928087   -0.7930370405   -1.1120559831
 C   -0.8482223547   -2.3766569683   -1.0076518978
 C   -0.8380745768   -2.0513070376    0.4761648189
 C    0.3325017613   -2.0656530639    1.1695356779
 C    0.8983750869   -0.6953428739    1.0399087110
 O    1.8977302935   -0.1724413153    1.4859191347
 C   -1.3713312769   -0.6469796122    0.2567951039
 H    0.9788726760    1.5345087426    0.3396487327
 H   -1.0431282235   -0.2331543356   -2.0089093330
 H   -1.8042396635   -2.6877983465   -1.4416133191
 H   -0.0270257031   -2.9860673138   -1.3927404917
 H    1.0034785359   -2.9163743137    1.2294837729
 H   -2.2367224281   -0.1339514512    0.6495076116