12

 O    0.3793401319    1.0816126500    0.7157829116
 C    0.1576866001   -0.1630794452    0.2755066977
 N    0.3212953109   -0.5275822447   -0.9706685279
 O   -0.0154737144   -1.8845796609   -1.0041003305
 C   -0.3546153380   -2.2881274067    0.2276795583
 C   -0.2689097969   -1.2504231308    1.0971375893
 O   -0.6143312861   -1.2365837365    2.4206361636
 C    0.3169870542   -0.7730261474    3.3138985651
 O    0.0716104728   -0.6815555543    4.4721931460
 H    0.6496147331    1.6262924243   -0.0360646473
 H   -0.6462746322   -3.3197749433    0.3419644326
 H    1.2741055847   -0.5178760245    2.8294250016