18

 C    0.0683739101    1.5989508261    0.0886962114
 C    0.1134063937    0.0792970841   -0.0060830105
 C    0.8029500429   -0.6333239990   -1.1718823976
 C    2.2785000989   -0.8445585767   -0.7972984187
 C    1.2140853601   -1.7877770130   -0.2940903843
 C    1.0473199484   -0.7737258585    0.9080946497
 C    2.4908768450   -0.2462710851    0.6003814143
 C    3.5162700244   -0.9476467752    1.3614367549
 N    4.3312960445   -1.4942561888    1.9730388876
 H    1.0473466466    2.0581051926   -0.0753752332
 H   -0.6107685039    2.0070309883   -0.6676251318
 H   -0.2983006923    1.9215887692    1.0695083012
 H   -0.8996375375   -0.3269471402    0.0941809130
 H    0.4998134266   -0.6668285855   -2.2110098159
 H    3.0373312476   -1.0292507346   -1.5453620604
 H    1.0925891976   -2.8561098580   -0.3850351777
 H    0.7730377405   -1.0148981003    1.9320561233
 H    2.6598741368    0.8315973144    0.6911171245