13

 O   -0.1593827714    0.0080662041    0.0006719545
 C   -0.0360693524    1.2129101044    0.0086463409
 C    1.2239867714    1.9007547643   -0.0001175461
 C    2.2770955321    2.5012644316   -0.0072747312
 C    3.4985149436    3.1873684181   -0.0157649472
 C    4.8163082127    2.7381280108   -0.0341272745
 C    5.5931738162    3.9059749166   -0.0338496373
 N    4.8355244618    5.0068379844   -0.0167695210
 N    3.5817340761    4.5545344024   -0.0061171262
 H   -0.9163975698    1.8872378333    0.0236221745
 H    5.1388514994    1.7105618652   -0.0457310602
 H    6.6686212627    3.9986384982   -0.0452774139
 H    2.8142620476    5.2066301464    0.0076362976