15

 O    0.1183358139    0.0542403564   -0.5802043358
 C    0.0516292146    1.1586264720   -0.1303997779
 C   -1.1157504505    2.0604060203    0.3225131340
 C   -0.0538772073    3.0447218782    0.8326145792
 C    1.1081735699    2.2172192582    0.2590591560
 O   -0.1584800912    4.4442771424    0.7192065113
 C   -0.0870078995    3.8766935537    2.0488125417
 C   -1.2639765612    3.9567151815    2.8681527290
 C   -2.2382470500    4.0029312077    3.5708032026
 H   -1.7068708861    2.4496242409   -0.5131482910
 H   -1.7941148127    1.6333016933    1.0661399318
 H    1.8883971578    1.8842281126    0.9486084005
 H    1.5799228587    2.6840525045   -0.6124718034
 H    0.8557645529    4.0742502306    2.5578264216
 H   -3.1007924993    4.0538684677    4.1889892604