20

 C    0.2612685832    1.5682934108   -0.5226615501
 C    0.1600526408    0.1562610999   -0.1808952600
 C    0.0809258010   -1.0131072617    0.0981469943
 C   -0.0314881529   -2.4217267016    0.4488345281
 C    0.1377130771   -2.7305136058    1.9558607666
 C   -0.4000860846   -4.1694117307    2.1124446150
 C   -1.4003947246   -4.3828700181    0.9351096986
 C   -1.4073937297   -3.0593416806    0.1400389457
 H   -0.6592493068    1.9331048753   -0.9923093147
 H    0.4430610452    2.1829364573    0.3662546718
 H    1.0834757186    1.7518871119   -1.2235411786
 H    0.7353152421   -2.9871465485   -0.1013123492
 H    1.1705433654   -2.6147645233    2.2942569867
 H   -0.4732607729   -2.0225057660    2.5265514075
 H    0.4193994075   -4.8922125803    2.0493974640
 H   -0.8710799852   -4.3173592052    3.0878972663
 H   -1.0662949354   -5.2084304763    0.2988540368
 H   -2.4021738757   -4.6456357382    1.2852842341
 H   -2.1917948110   -2.3886646777    0.5077028361
 H   -1.5743692620   -3.1982330612   -0.9311669689