17

 C   -0.4746431453    1.4659216443    0.2388938975
 C   -0.0850618222   -0.0074841928    0.0679128709
 C    1.0657850608   -0.2706122611   -0.9470368106
 O    1.9424579742   -0.7095701188    0.1038586651
 C    0.9159523653   -0.5608387154    1.1069094253
 C   -1.3166029323   -0.8591183911   -0.1380863969
 O   -1.7575960017   -1.6470715373    0.6666410778
 C   -2.0669045162   -0.7200605550   -1.4742015005
 O   -1.7093479088   -0.0068663442   -2.3747547144
 H    0.4261132387    2.0669895545    0.3949069751
 H   -0.9886155960    1.8435197514   -0.6483132564
 H   -1.1270855496    1.6014481551    1.1079513901
 H    0.8824660153   -1.0578661329   -1.6882923388
 H    1.4360048601    0.6227028447   -1.4632541007
 H    1.2079960048    0.1425123106    1.8955746188
 H    0.6284714461   -1.5164536124    1.5576805774
 H   -2.9718132232   -1.3618487896   -1.5216148797