19

 C    0.0108944649    1.5583754396   -0.0593324623
 C    0.0346964106    0.0411679779    0.0171560075
 O    0.6151607387   -0.4285337282   -1.2175962794
 C    1.1650681870   -1.6613454767   -1.2290814213
 N    1.4645165081   -2.4314904229   -0.2703863449
 C    1.2917414229   -1.9567169278    1.0847463028
 C    2.6185307852   -1.4257023402    1.7004211122
 N    2.1759164795   -0.0433575970    1.3962889227
 C    0.7769392395   -0.4968081176    1.2309803144
 H    1.0341106237    1.9429425841   -0.0482578806
 H   -0.4801030896    1.8884267907   -0.9782603137
 H   -0.5345673224    1.9726792541    0.7946661394
 H   -0.9906826528   -0.3559896917    0.0530260316
 H    1.3554632252   -1.9673652809   -2.2568852002
 H    0.7758135846   -2.7195243348    1.6708737919
 H    2.6989554975   -1.6531787553    2.7720735202
 H    3.5362553060   -1.7341486197    1.1917792508
 H    2.3297032192    0.6361874184    2.1319538334
 H    0.1453984323   -0.3573901221    2.1209313256