29

 C    0.0387654520    1.6174069084   -0.0153045965
 C    0.0044102832    0.0914778615   -0.1414086294
 C   -1.3619858153   -0.5057855112    0.2232489150
 C   -1.4292714412   -2.0472434072    0.1204402314
 C   -0.7014259092   -2.6832681127    1.3187012581
 C   -2.8826224032   -2.5970396675   -0.0902492340
 C   -3.4056914590   -2.1619554159   -1.4754016046
 C   -2.8751539009   -4.1395282620   -0.0678754798
 C   -3.8527107219   -2.0900332203    0.9948531598
 H    1.0181064055    2.0202215760   -0.2926232922
 H   -0.7097404782    2.0859089040   -0.6643565042
 H   -0.1725743254    1.9347739407    1.0120387386
 H    0.2569092865   -0.1960841171   -1.1707723720
 H    0.7886151185   -0.3386171219    0.4932097477
 H   -1.6266824755   -0.1975940064    1.2439475504
 H   -2.1109241355   -0.0467650488   -0.4313631367
 H   -0.8728125280   -2.3358679662   -0.7842003098
 H   -1.2497768250   -2.5235659622    2.2539701829
 H   -0.5585170440   -3.7590658037    1.1934620625
 H    0.2908389244   -2.2413332609    1.4483331965
 H   -2.7507613051   -2.5257366319   -2.2753850373
 H   -4.4052134549   -2.5736129455   -1.6536462773
 H   -3.4821321704   -1.0755913196   -1.5743835734
 H   -2.6453334794   -4.5371771629    0.9243204428
 H   -3.8577225529   -4.5284204377   -0.3563595229
 H   -2.1392038263   -4.5444080553   -0.7723012321
 H   -3.9618683285   -1.0017161159    0.9678012499
 H   -4.8481406977   -2.5233767194    0.8479940907
 H   -3.5208592727   -2.3695096582    1.9999519360