14

 O    0.7154961385    1.3553214637   -0.6339189426
 C    0.1402269963    0.1731568395   -0.0969495150
 C    0.1676263235   -0.9855911475   -1.1328027402
 C   -0.4619024214   -0.5157045379   -2.4290618062
 O   -1.6444318390   -0.5453561075   -2.6544841158
 C    0.4792131752    0.0210413297   -3.4337421091
 N    1.2328208502    0.4081248641   -4.2207947137
 C    0.7697118797   -0.2412409794    1.1552971071
 C    1.3307531569   -0.5868833223    2.1602335516
 H    1.6752602823    1.2628825516   -0.6174653824
 H   -0.9098630452    0.4281701272    0.0858764743
 H    1.2011923911   -1.3050745534   -1.2951355384
 H   -0.4168942395   -1.8272820357   -0.7526252809
 H    1.8108594314   -0.8809250921    3.0614980313