17

 O    0.1010938427    1.3088555134    0.2114580414
 C    0.0639223767   -0.0754706989    0.0235938221
 C   -1.3892013611   -0.5526721604   -0.1917356067
 C   -1.2286396955   -2.0231569633   -0.6340027352
 C   -0.6828915922   -1.2656850597   -1.8613081979
 O   -1.6398534289   -0.1987430353   -1.5906717669
 C    0.6247144778   -0.6181426511   -1.3535755252
 C    1.1507093943    0.4431456513   -2.2880563016
 O    1.8094819209    1.3932623642   -1.9331971028
 H    0.8948937258    1.6501696800   -0.2247329237
 H    0.5332551321   -0.6031252886    0.8672858662
 H   -2.1444425165   -0.1920629504    0.5043030486
 H   -0.5650610201   -2.6851033947   -0.0713258775
 H   -2.1883812549   -2.4961635480   -0.8406585704
 H   -0.7156827727   -1.6505996781   -2.8818577487
 H    1.4349544211   -1.3432158914   -1.2048761169
 H    0.9209710506    0.2908949910   -3.3653511747