14

 N   -0.0421812965    1.2890834792    0.2018975484
 C    0.0237708129    0.0301179042    0.0686827276
 N    1.1076727475   -0.7973546566   -0.1422985788
 C    0.8569637153   -2.2201137562   -0.0681390850
 C   -0.6609093415   -2.3087461712    0.1094090713
 O   -1.2924689043   -3.3134615697    0.2441199442
 C   -1.2206512280   -0.8626721121    0.0718391837
 C   -2.1635392681   -0.5864037272    1.1438268184
 N   -2.9126922936   -0.3992881711    2.0021055229
 H    0.8790880186    1.7288064979    0.1702025645
 H    2.0423336102   -0.4248274610   -0.0991052805
 H    1.1535243132   -2.7596222822   -0.9769520135
 H    1.3442715690   -2.7108367968    0.7852846229
 H   -1.7375590347   -0.7444176474   -0.8902925061