20

 O   -0.6766462691    1.3302191964   -0.5749965610
 C   -0.3640261859   -0.0139187815   -0.3539479043
 C   -0.1885564449   -0.5288311622    1.0529038660
 C   -1.4298661971   -0.8772305742    0.2646267529
 C   -2.7998470785   -0.2968301835    0.6078181927
 C   -3.7408843004   -1.0865189380   -0.2904117759
 C   -3.3687474899   -1.2183915540   -1.7216409007
 N   -3.0782108722   -2.3152911861   -0.7833423649
 C   -1.7007046434   -2.2899125628   -0.2583834308
 H    0.0959009510    1.8597360831   -0.3523855490
 H    0.2480281332   -0.4703819544   -1.1338507918
 H    0.5510391694   -1.3023481450    1.2380633861
 H   -0.3034734241    0.1921238909    1.8567296868
 H   -3.0503539071   -0.4803020978    1.6596041143
 H   -2.8393364936    0.7810738354    0.4334624321
 H   -4.7795923849   -1.1881701895    0.0107262183
 H   -4.1293114934   -1.4529449214   -2.4606627855
 H   -2.5479625425   -0.6093306190   -2.0928601693
 H   -0.9887208634   -2.6049371249   -1.0296799877
 H   -1.6485817031   -3.0197500215    0.5591267816