17

 O   -0.1311704125    1.4640548877    0.0889630173
 C   -0.0098084631    0.0521310592   -0.0181277861
 C    0.7456739372   -0.6377611576    1.1372109932
 C    0.0206065015   -1.9808093972    1.3319646512
 O    0.5157051460   -2.9917136373    1.7617330586
 C   -1.3735319467   -1.8244546567    0.8154853450
 C   -2.1215720157   -0.5744505520    1.2991268626
 C   -1.4056952202   -0.5556035218   -0.0099555612
 O   -2.1216929338   -0.5282866448   -1.2000533600
 H    0.7290056468    1.8570883896   -0.0885970877
 H    0.4508279105   -0.2208703793   -0.9786183656
 H    1.8085566697   -0.8021996605    0.9504353899
 H    0.6545755194   -0.0349749590    2.0485551467
 H   -1.9478495873   -2.7045669401    0.5573584440
 H   -3.2009025035   -0.6555765468    1.2434171449
 H   -1.7435966454   -0.0144355027    2.1468332179
 H   -2.3785261528    0.3879674592   -1.3569868008