21

 C   -0.0674237099    1.5171208177   -0.0458731539
 C   -0.0024670008    0.0064346548    0.0304812634
 C    1.3328569858   -0.7111067861   -0.1989581180
 C    0.6932907069   -0.6896578641    1.1458630828
 C    1.1777774113   -0.2529276235    2.5443806665
 C   -0.2111863180   -0.7136282078    3.0835414406
 C    0.2624275240   -1.8216476782    2.0835831549
 O   -0.4129278456   -2.9428543205    1.6449411524
 C    1.6795631107   -1.7165581136    2.7403809207
 H    0.8340437519    1.9707651122    0.3793990254
 H   -0.1531050035    1.8593945634   -1.0833249931
 H   -0.9278418457    1.9114810459    0.5065333873
 H   -0.8715425745   -0.5068533662   -0.3764587709
 H    1.3237139856   -1.6370543982   -0.7658781183
 H    2.2063459482   -0.0883118235   -0.3726680807
 H    1.7101327680    0.6567713228    2.8100332031
 H   -0.2492500405   -0.9911439042    4.1415698478
 H   -1.0779160593   -0.1221091678    2.7814314550
 H   -0.5778498477   -3.5186458981    2.3990196678
 H    2.5258674294   -2.0314091071    2.1265187826
 H    1.7680005736   -2.0603313381    3.7756899748