17

 C    0.0068665899   -1.1602072373    0.0273135622
 C    0.0086665037    0.0428059387    0.0020611644
 C   -0.0139636342    1.4765748897   -0.0135412597
 C    0.4734278038    2.2006183473   -1.2656058435
 C    1.3185048568    2.2290861268   -0.0277733790
 O    1.4317730885    3.4372847679    0.6683587298
 C    0.4202064925    3.6379585973    1.6265284913
 O   -0.8612226975    3.4834282002    1.0819843169
 C   -1.1303535436    2.1157611439    0.8136186512
 H    0.0100779704   -2.2218299512    0.0441388981
 H    0.7896808270    1.5918450788   -2.1039654851
 H   -0.0334091849    3.1271090808   -1.5111065702
 H    2.2302608622    1.6402651435    0.0011474614
 H    0.5519108857    2.9425081543    2.4746713787
 H    0.5158741592    4.6721046527    1.9612425143
 H   -2.0851919827    2.0810494832    0.2824738654
 H   -1.2353970669    1.5588558336    1.7569232737