19

 C   -0.1991243381    1.6123910623    0.0271709064
 C   -0.0054318664    0.0893417111    0.0249544254
 C    1.1254713519   -0.5188784672   -0.8975597267
 C    1.7331508907   -1.2355084800    0.3136576079
 C    2.1522595004   -0.2427338026    1.3511585486
 O    2.6531050938    1.0304727696    1.0464217344
 C    0.6972602687   -0.5607991374    1.2465390184
 C   -1.2783147536   -0.5791768823   -0.2246694780
 C   -2.3354070187   -1.1174829045   -0.4241294672
 H    0.7523475477    2.1155312936    0.1977425847
 H   -0.6191158172    1.9414159558   -0.9287287285
 H   -0.8990543403    1.9048223109    0.8161998390
 H    0.7245972962   -1.1926983715   -1.6539235995
 H    1.7721069179    0.2228489674   -1.3748419663
 H    2.0905233243   -2.2584074877    0.3141186996
 H    2.6112449145   -0.6945368681    2.2322719067
 H    3.5359173173    0.9190032900    0.6773492870
 H    0.1505891681   -0.9779231463    2.0840864612
 H   -3.2681716970   -1.5913369031   -0.6045241733