14

 O   -0.0722832691    1.3391071839    0.0096296099
 C    0.0114363130    0.0051827913    0.0026058375
 C    1.2235189408   -0.6294690393   -0.0077693202
 C    1.5404027877   -2.0170552176   -0.0163167296
 N    0.8029934332   -3.0886615521   -0.0181702261
 C   -0.5595323620   -3.0715580483   -0.0113347745
 C   -1.4767342991   -2.0629441507   -0.0002969695
 C   -1.3502790284   -0.6151087495    0.0081481989
 O   -2.3299834849    0.1141418022    0.0192711366
 H    0.8132078240    1.7246437089    0.0058581357
 H    2.0996447118    0.0196551363   -0.0096032679
 H    2.6142114697   -2.2158599095   -0.0226856067
 H   -0.9784475644   -4.0772394868   -0.0154084817
 H   -2.5206478223   -2.3655033387    0.0034571877