15

 C    0.0669886425    1.3957482332   -0.1273288792
 N    0.1211425274   -0.0525453048   -0.0999500116
 C    0.5659933354   -0.6185621338    0.9519095887
 N    1.0841839417   -0.0097847983    2.0877032452
 C    0.6422963750   -2.0902830338    0.9924087415
 C    1.3914548603   -2.9504801082    1.7417361867
 N    1.0548184217   -4.2213300636    1.3480704645
 N    0.1796051668   -4.1821064855    0.4437532752
 O   -0.1218423507   -2.8146700987    0.1779026788
 H    1.0726016460    1.8421024010   -0.1414432522
 H   -0.4522007109    1.7199831839   -1.0316816037
 H   -0.4716156876    1.8217712787    0.7361216352
 H    0.9097956449    0.9791198769    2.1789280860
 H    0.9871884040   -0.5143037672    2.9558962125
 H    2.1454063732   -2.7626556097    2.4863743124