15

 N   -0.2579624471   -1.2025748579   -0.0004990618
 C   -0.1490631702   -0.0521414183    0.0162909702
 C   -0.0207651515    1.3977234374    0.0560241848
 C   -0.2855630403    2.0973890670    1.4008164905
 C    0.7391530356    1.6887987213    2.4176000609
 C    1.1108962650    2.7167680998    1.3899995691
 C    1.4343149673    2.0430949957    0.0447302045
 C    2.5945372803    1.1647088759   -0.0048771935
 N    3.5201255232    0.4731158618   -0.0298629806
 H   -0.6087757950    1.8280038158   -0.7571223223
 H   -1.2345367222    2.5439920798    1.6649513683
 H    0.5723680409    2.0820741124    3.4142904237
 H    1.1794917472    0.6957451969    2.3956112138
 H    1.4202091256    3.7214546348    1.6443678544
 H    1.4995716912    2.7630154375   -0.7735419920