16

 O   -0.1264533141    1.3394769844   -0.0354457844
 N    0.0337217640   -0.0585214264    0.0604322944
 C   -1.0844119277   -0.6478967474   -0.0183619209
 C   -2.5508699061   -0.2194985054   -0.0683365682
 C   -2.9242567239   -1.6977726341    0.0846049511
 O   -4.0011798295   -2.0376545681    0.8674569566
 C   -2.3512853624   -2.5018727594   -1.0372661968
 C   -1.4184205157   -2.0904801697    0.1180572965
 O   -0.7641667372   -3.0228863901    0.8877999656
 H    0.7768971849    1.6534797330    0.0775007853
 H   -2.8139860993    0.3667143034    0.8167417246
 H   -2.9028870525    0.2950603365   -0.9670075620
 H   -4.1479801716   -2.9873268675    0.8075770984
 H   -2.5811779879   -3.5643589791   -0.9843187365
 H   -2.2449389279   -2.1129836219   -2.0484065021
 H    0.0142392770   -3.3276750383    0.4068437885