13

 N   -0.1477921627    1.4134401488    0.1957702969
 C   -0.0477081667    0.1981779158   -0.1181527519
 O    1.1624304771   -0.3061366372   -0.5554270480
 C    1.4608779951   -1.5635359654   -0.9528889962
 C    0.6631456914   -2.5610844995   -1.3719677787
 N   -0.7068881938   -2.5999976010   -1.5418651651
 C   -1.5332303297   -1.7895008947   -1.0008263015
 C   -1.2947382730   -0.6783424527   -0.0286974487
 O   -2.1504891927   -0.4039354588    0.7779954864
 H    0.7387143705    1.9017798495    0.0540445203
 H    2.5370479991   -1.6951432236   -0.9599830294
 H    1.1760691360   -3.4646194769   -1.6854797406
 H   -2.5962113608   -1.9393645242   -1.1956691035