16

 O    0.0566326198    1.4526763766   -0.1479789274
 C    0.0896335302    0.0738689299   -0.0592315426
 C    0.0781866209   -0.5919710976    1.3593994481
 N   -1.3527945151   -0.0831593519    1.4615241461
 C   -1.2625752652   -0.7066885968    0.0758624859
 C   -0.4731194310   -1.8778543800    0.7030244372
 O    0.3913231923   -2.6321297996   -0.1324643714
 C    0.3919290602   -3.9765972405   -0.0135020939
 O    1.0873505281   -4.6823142623   -0.6767115624
 H   -0.5958305915    1.7400169941    0.5078469757
 H    0.8093163367   -0.3143381282   -0.7763122137
 H    0.7882062412   -0.4892541973    2.1802030567
 H   -1.9057780238   -0.6719398000    2.0917819552
 H   -2.1167424066   -0.7378323513   -0.6007684153
 H   -1.0522036552   -2.5300643670    1.3662468279
 H   -0.3159605010   -4.3379646281    0.7576713538