19

 C   -0.0173748938    1.4788149004   -0.0733020094
 C   -0.0227388039    0.0270945326    0.0254083499
 C   -0.0372718188   -1.1733232348    0.1038443218
 C   -0.0259677411   -2.6248486364    0.2075925658
 O   -1.3376371312   -3.1300302160    0.0008346404
 C   -1.4061301583   -4.5543184577   -0.0041962514
 C   -1.4433516976   -5.1338995704    1.4194279811
 C   -2.5966586724   -4.9409349756   -0.7612872191
 C   -3.5746644198   -5.2923166226   -1.3632952197
 H    0.5925783550    1.8203594535   -0.9167294519
 H   -1.0326100456    1.8626288850   -0.2217945620
 H    0.3815168205    1.9403061854    0.8366531584
 H    0.6635782768   -3.0510609632   -0.5416218461
 H    0.3616654931   -2.9191472551    1.1962581030
 H   -0.5211181916   -4.9546574847   -0.5280378489
 H   -0.5337726935   -4.8754810430    1.9686901564
 H   -2.3070493812   -4.7359763345    1.9572600632
 H   -1.5225609408   -6.2237986970    1.3822655180
 H   -4.4375825257   -5.5911793060   -1.9053724095