19

 C   -0.0021806344    1.5727011906    0.0433464286
 C    0.0212123239    0.0395560850    0.0548982730
 C    0.8075682068   -0.4904821776    1.2564632299
 O    2.1395872604   -0.0119257364    1.1432814640
 C   -1.4216715888   -0.5490489162    0.0436994531
 C   -2.1615816714   -0.0780698683   -1.2155274839
 O   -3.0974047659    0.6730602533   -1.2121087930
 C   -1.4484232347   -2.0087054288    0.0440755181
 C   -1.4990801776   -3.2084344074   -0.0242985934
 H    1.0188970329    1.9542401756    0.0955360631
 H   -0.4768577089    1.9700143268   -0.8580485240
 H   -0.5562714297    1.9599223643    0.9065789646
 H    0.5367798968   -0.3198421063   -0.8453886369
 H    0.3331799492   -0.1360315262    2.1873813901
 H    0.7783356685   -1.5882838858    1.2630547170
 H    2.6421865836   -0.3408627316    1.8938087000
 H   -1.9792952876   -0.1576173568    0.9031858793
 H   -1.7455742358   -0.5000065374   -2.1572900318
 H   -1.5418360674   -4.2691896870   -0.0593960777