17

 N    0.0408880020   -1.0242716266   -0.8653538827
 C    0.0104084282    0.0182030574   -0.3685678801
 C   -0.0108145336    1.3385024216    0.2646742034
 C    1.3644398548    1.9922317761    0.2545758052
 C    1.8350793014    2.7936356039   -0.9328304053
 C    1.5581009829    3.4866104114    0.3774207544
 C    0.3933059658    4.4568724101    0.5210324122
 C    0.7613239921    5.8127263743    0.1076847855
 N    1.0650786855    6.8792665381   -0.2158946601
 H   -0.7488752393    1.9515882313   -0.2629504546
 H   -0.3765908561    1.2198060418    1.2918938981
 H    2.1181299109    1.3920492146    0.7548659068
 H    2.8609935488    2.6879491411   -1.2645252705
 H    1.1243528573    2.9519667807   -1.7385368517
 H    2.4286315477    3.7879667533    0.9518065751
 H   -0.4648364669    4.1435958471   -0.0826640100
 H    0.0482685285    4.4977914035    1.5613857843