17

 O   -0.2117590890   -0.0806663572   -0.3700183049
 C   -0.0133754416    1.0798714233   -0.1199096532
 C    1.3262160830    1.7731736361   -0.2124539471
 C    1.2735689379    2.9964224177   -1.1574474650
 C    2.5623276534    3.7616402522   -1.1940292883
 C    2.7867330081    5.0191385855   -0.7253909918
 O    4.0813999602    5.3887109564   -0.9165307802
 C    4.7007529335    4.3423441966   -1.5218682096
 C    3.8295104918    3.3208530650   -1.7174622480
 H   -0.8495421503    1.7451058911    0.2045374757
 H    1.5974293339    2.1197838608    0.7942283666
 H    2.0767789947    1.0474336311   -0.5364635288
 H    1.0144936277    2.6513584375   -2.1660468730
 H    0.4630994920    3.6635346282   -0.8407448104
 H    2.1534133223    5.7532374658   -0.2542231908
 H    5.7452782115    4.4828562874   -1.7458757876
 H    4.0483669712    2.3705525025   -2.1799506833