16

 O   -0.8456895207    1.0833275997    0.4296659552
 C    0.2844876440    0.8628382778    0.0671492465
 C    1.3534314784    1.8994119479    0.0223757084
 C    1.3062723789    3.2309936143    0.7843262960
 C    2.3694868505    3.6704942555   -0.2477203165
 C    3.5254367778    2.6538638864   -0.1143244629
 C    3.1068850882    1.8426385384   -1.2795896718
 C    1.7865476549    2.6461480698   -1.3023479750
 N    2.7828111401    1.3635527750    0.1007467190
 H    0.5965590359   -0.1424071186   -0.2920085604
 H    0.3446045399    3.7259561585    0.6286450473
 H    1.5678463310    3.2244078372    1.8451892353
 H    2.5981614281    4.7084014272   -0.4800046519
 H    4.4899525640    2.7603597127    0.3649500180
 H    3.6525368933    1.2493472431   -2.0023875566
 H    1.1299809857    2.9049283850   -2.1279859707