18

 O    0.2423403162    1.2395249331    0.5879790296
 C    0.0830478233   -0.0871845574    0.1718963978
 C   -1.3804461238   -0.5820121117    0.1178530324
 C   -1.3204186973   -1.6722911030   -0.9741252616
 C   -2.1918916011   -1.6033490007   -2.2651528615
 C   -0.8748250468   -1.3972152784   -3.0739182166
 N   -0.1280598942   -1.3386143166   -1.7959013885
 C    0.5119892846   -0.2387444935   -1.3023361060
 O    1.2087030149    0.5619204838   -1.8926436774
 H    0.8065741942    1.6495754483   -0.0875789783
 H    0.6853531604   -0.7664353602    0.7975555428
 H   -1.7529339622   -0.9469707634    1.0767633544
 H   -2.0092716295    0.2567446064   -0.1999966130
 H   -1.2598935479   -2.6782770595   -0.5458471381
 H   -2.7610652258   -2.5027200312   -2.5040883254
 H   -2.8588564588   -0.7388569745   -2.2905594812
 H   -0.5800454276   -2.2475241104   -3.6941343562
 H   -0.7839944986   -0.4774491612   -3.6572602031