23

 C   -0.0148469125    1.3904370744   -0.3695385643
 C    1.3429471301    0.8376250049   -0.0084933988
 C    0.1263764196   -0.0556115143    0.0435190574
 C   -0.4187962006   -0.6001454675    1.3297182430
 C   -0.3775344274   -2.0998293962    1.5415472122
 C   -1.7073756694   -1.4049829536    1.3631612833
 C   -2.4830028997   -1.0352411124    2.6170374384
 C   -1.4278971352   -0.3982203018    3.5510202021
 C   -0.3822811962    0.2395994515    2.6063562799
 H   -0.4758279684    2.0880571621    0.3206156902
 H   -0.2270260275    1.6010902247   -1.4121279153
 H    2.0682902512    0.6797389634   -0.7992479774
 H    1.7779498293    1.1565945371    0.9325413854
 H    0.0488785620   -0.7659945153   -0.7762758919
 H   -0.0200989921   -2.6983916085    0.7099460321
 H   -0.1084544191   -2.5018384676    2.5135747701
 H   -2.2593864074   -1.5925490597    0.4477345021
 H   -3.2584896614   -0.3036187318    2.3587273859
 H   -2.9882769020   -1.8875800361    3.0852458703
 H   -1.8626384992    0.3296811627    4.2410477180
 H   -0.9571445759   -1.1693123439    4.1686944459
 H    0.6120357278    0.2815835020    3.0646953803
 H   -0.6715305059    1.2711385160    2.3722112811