17

 C    0.0230885671    1.5522329939    0.0655297294
 C   -0.0055876050    0.0189598585    0.0043441115
 O    0.6350721121   -0.5453580193    1.1379395839
 C   -1.4529082238   -0.5000834298   -0.0468138951
 O   -2.0440171044   -0.1522639241    1.1993326627
 C    0.7552955034   -0.5243015203   -1.2238015159
 C    2.1375224574   -0.0572901253   -1.2998936184
 N    3.2277655115    0.3159324995   -1.3810747807
 H    1.0509229869    1.9019678986    0.1828598568
 H   -0.3975682279    1.9962923215   -0.8432354329
 H   -0.5676858141    1.8983133958    0.9168996130
 H    0.0191257982   -0.4289425001    1.8728030666
 H   -1.9984642755   -0.0472288649   -0.8882199075
 H   -1.4391303151   -1.5905762699   -0.1841528636
 H   -2.8537177965   -0.6570595360    1.3123657845
 H    0.7622891136   -1.6182250300   -1.1777709887
 H    0.2387506321   -0.2305856981   -2.1444011556