17

 C    0.0857822931    1.5250916193    0.0244973209
 C    0.0042744487    0.0342302261   -0.0088294698
 C   -1.0846272742   -0.7513674103    0.0399091126
 C   -2.5353669388   -0.4193194994    0.1401926000
 N   -0.7111819152   -2.1140330899   -0.0189671757
 C    0.6553303076   -2.2810438360   -0.1096334584
 O    1.2455201513   -3.3351288837   -0.1739230332
 C    1.2232688992   -0.8538117222   -0.1090612443
 H    0.6820913419    1.8764651315    0.8769955680
 H    0.5703073900    1.9218081524   -0.8775336609
 H   -0.9006187694    1.9905640980    0.0993423204
 H   -3.0917593046   -0.8106894038   -0.7206386562
 H   -2.9812313975   -0.8601411461    1.0405371880
 H   -2.6916128338    0.6595191806    0.1802734225
 H   -1.3499666609   -2.8918487409    0.0017513394
 H    1.8090634772   -0.6923078693   -1.0224877840
 H    1.9208548953   -0.7370978763    0.7295466309