16

 O    0.0026131053    0.0603673590   -0.2760913239
 C   -0.0677876877    1.2451379851   -0.1340566402
 C   -1.1996817137    2.0684931868    0.4754238078
 C   -0.8916621983    3.4996481616    0.0195340593
 C    0.6120246948    3.4376397680   -0.2011402379
 C    1.4342452158    4.4875678396   -0.8636273851
 C    1.6215529778    4.1886237663    0.6166655627
 O    0.9341039645    2.0864481862   -0.5211323830
 H   -2.1664890838    1.6776441993    0.1570461502
 H   -1.1402467382    1.9598864038    1.5642481184
 H   -1.4037332934    3.7197091722   -0.9234363280
 H   -1.1731777140    4.2657182243    0.7443779902
 H    2.2112672863    4.1527744101   -1.5411089169
 H    0.9444823106    5.4120547200   -1.1513923512
 H    1.2631858737    4.9106203299    1.3428992277
 H    2.5203143102    3.6548791779    0.9034258399