18

 C    0.0521585904    1.4926479741   -0.0081097710
 O    1.2197541019    0.6676597090   -0.0081293593
 C   -0.0685473973    0.0320105493    0.0165908884
 C   -0.4034948571   -0.7202672222    1.2902982759
 C    0.1187878659   -2.1631127991    1.1895065919
 C   -0.3453972071   -2.7953557641   -0.1242223567
 O    0.0852262872   -2.0400535125   -1.2452970254
 C   -0.4379634027   -0.7243180985   -1.2451748804
 H   -0.1235512922    2.0607660856    0.9051643000
 H   -0.1335776009    2.0404417289   -0.9321324036
 H    0.0242440894   -0.1971550480    2.1505180287
 H   -1.4946528234   -0.7324018540    1.4185308467
 H    1.2142131937   -2.1576270027    1.2103433912
 H   -0.2275211309   -2.7634148612    2.0380198735
 H    0.0754377741   -3.7962588197   -0.2543925467
 H   -1.4466392934   -2.8873349434   -0.1303918981
 H   -1.5385423973   -0.7502090831   -1.3434711927
 H   -0.0205432802   -0.2208856084   -2.1207738525