21

 C   -0.0390990218    1.5052511364    0.1526399536
 C    0.1152767913   -0.0055727537    0.1023229715
 O    1.2045665063   -0.5333481973    0.1013580059
 C   -1.1774807885   -0.8123462076    0.0451773131
 C   -0.9812121871   -2.3246383431    0.1155594278
 C   -0.4508225151   -2.8533362349    1.4777438072
 C   -1.1314731210   -4.1934469685    1.6174190602
 C   -2.1157320149   -4.3512588407    0.7343253207
 C   -2.2754896559   -3.1411229936   -0.1550310431
 H    0.9407006833    1.9809087655    0.0966622273
 H   -0.6738131378    1.8598499665   -0.6667592321
 H   -0.5334822280    1.7994532319    1.0858134526
 H   -1.8422290580   -0.4628999455    0.8484378230
 H   -1.6897243108   -0.5306844614   -0.8872234811
 H   -0.2427041154   -2.6001773521   -0.6439281575
 H    0.6411629184   -2.9087427526    1.4934401510
 H   -0.7349218626   -2.1895084708    2.3096137091
 H   -0.8541735956   -4.9129142196    2.3803747247
 H   -2.7657660368   -5.2166822420    0.6654025303
 H   -3.1792677952   -2.5758441974    0.1218523527
 H   -2.3898439649   -3.3946318092   -1.2156172768