18

 C    0.4299267252    1.4386495232   -0.4499149769
 C    0.2061653768   -0.0442967479   -0.1007655062
 C    0.7133074689   -1.0056936261   -1.1950997719
 O   -0.0621936187   -0.8263752161   -2.3857801038
 C    0.5580558191   -0.2739730077   -3.4642406446
 C   -0.3921263978   -0.2176195679   -4.6337961619
 O    1.7003180549    0.1014995790   -3.4659796189
 C    0.8566047464   -0.3910501311    1.1664628021
 N    1.3802429567   -0.6699400377    2.1581722692
 H    1.4909886913    1.6458034870   -0.6086048908
 H   -0.1126303311    1.6874182221   -1.3644489957
 H    0.0645651974    2.0824804623    0.3532647164
 H   -0.8688236748   -0.2235620732    0.0263797200
 H    1.7677696375   -0.8264203165   -1.4117975564
 H    0.5709211742   -2.0425686283   -0.8813963832
 H   -1.3188101351    0.2863518220   -4.3471617065
 H    0.0829214264    0.3058460437   -5.4622631221
 H   -0.6572777772   -1.2335441169   -4.9413409089