17

 C    0.0827895514    1.5865928761    0.0491714821
 O    1.5349443401    1.4108368498   -0.1159798893
 C    1.4139712479    0.0842019602    0.2103517715
 N    2.2823272293   -0.7111421119    0.6367720263
 C    1.6987713964   -1.9558222076    1.1546901900
 C    0.2946107117   -1.8097320838    1.7575490095
 N    0.0325312982   -0.5953121836    2.5500616467
 C   -0.6513266958   -0.7679842902    1.2578205386
 C   -0.0887669037    0.0488685890    0.1242592802
 H   -0.1241434154    2.1201440710    0.9796826871
 H   -0.3551822647    2.0999301930   -0.8087278915
 H    1.6629317331   -2.7257880659    0.3700826025
 H    2.3758374281   -2.3373380659    1.9274655219
 H   -0.1357302876   -2.7442582981    2.1118342883
 H   -0.6053981424   -0.8019389974    3.3131913440
 H   -1.7166878085   -0.9836685098    1.2572223345
 H   -0.4348293181   -0.3550169948   -0.8328804926