21

 C   -0.0417804189    1.4991384392    0.0361435672
 C    0.0061072271    0.0043620242   -0.0237112426
 C   -0.0132265151   -0.7533922571   -1.1250448900
 C    0.0170130157   -2.2336805445   -0.8400033621
 C    1.3136404346   -2.5745004361   -0.0746416468
 C    1.3377263876   -1.7021041139    1.2112406386
 C    0.0529886156   -0.8310208034    1.2394648245
 C   -1.1506055387   -1.7977975460    1.1902413522
 O   -1.0943153028   -2.5942705049    0.0109552579
 H    0.8303895259    1.9036462059    0.5660209202
 H   -0.0680462664    1.9412444515   -0.9639004234
 H   -0.9261845997    1.8474283689    0.5853089990
 H   -0.0586391717   -0.3635039144   -2.1365935725
 H   -0.0979035345   -2.8443642849   -1.7369390716
 H    1.3066288985   -3.6404613042    0.1714371253
 H    2.1856304385   -2.3849954748   -0.7077383139
 H    1.3670778545   -2.3311619439    2.1072211725
 H    2.2219416209   -1.0593459691    1.2401669390
 H    0.0083063297   -0.2219620671    2.1467120516
 H   -1.1353696092   -2.4639638019    2.0651008218
 H   -2.0970799813   -1.2392104536    1.2054721033