19

 C    0.0265101449    1.5524078891   -0.1841828102
 C    1.3144387176    0.7741406214   -0.0414866641
 O    2.1496040562    0.8531059481    1.0795394824
 C    1.6522709995    0.3848212802    2.3239897560
 C    0.4581064380    1.1672827258    2.9727525437
 C   -0.4301982993   -0.0511972046    2.7312508266
 C   -0.3269333879   -0.6304491936    1.3355268280
 C   -0.0001652742    0.0473791931    0.0296284935
 C    0.7861764335   -0.8874608350    2.3135274213
 H   -0.3039133889    2.1992056550    0.6160615419
 H   -0.2189639459    1.9165797281   -1.1765855670
 H    1.9257414294    0.6575470584   -0.9301992747
 H    2.5306178072    0.3323403294    2.9675316260
 H    0.6464659172    1.3025576797    4.0419150587
 H    0.1823289233    2.1349478679    2.5508596168
 H   -1.2472232562   -0.3565671862    3.3745458687
 H   -0.9978187412   -1.4769481523    1.2190486966
 H   -0.2664724325   -0.5530041995   -0.8348496578
 H    1.1052937292   -1.8750535250    2.6216960337