27

 C   -0.0407604400    1.4956180093   -0.3234810515
 C    0.0542920677    0.0118087979    0.0579653113
 C    0.7752440691   -0.1518353630    1.4038775947
 C   -1.3427905010   -0.6345853714    0.0527819018
 C   -1.3608093488   -2.1612504119    0.2208863755
 C   -2.7616545820   -2.7321461601    0.1182482371
 C   -3.3722737040   -3.0707646214   -1.2234422016
 C   -3.0542867376   -4.1726453729   -0.2393882877
 C   -1.9727928111   -5.1924809381   -0.5244517440
 H    0.9497878282    1.9609713561   -0.3646941448
 H   -0.5152863194    1.6271504342   -1.3017597750
 H   -0.6365938982    2.0507853754    0.4112206907
 H    0.6575288681   -0.4936629359   -0.7110569446
 H    0.9254117738   -1.2029880207    1.6665444599
 H    1.7605674825    0.3258790493    1.3816245468
 H    0.1998927074    0.3154352699    2.2127567012
 H   -1.9517661887   -0.1743903709    0.8448774430
 H   -1.8427394473   -0.3866586978   -0.8926665858
 H   -0.7137939462   -2.6105729527   -0.5424859955
 H   -0.9274030812   -2.4375453943    1.1905002212
 H   -3.4506962888   -2.2984079156    0.8407164194
 H   -4.4086128730   -2.8150163212   -1.4166363344
 H   -2.7281296458   -2.9866455726   -2.0946840366
 H   -3.9166374903   -4.5943561922    0.2720076753
 H   -1.1364701815   -4.7606906183   -1.0815302314
 H   -1.5691097381   -5.6190413476    0.4010621300
 H   -2.3697188435   -6.0193993335   -1.1240270350