13

 O   -0.1399100788    0.0395392453   -0.1986572391
 C    0.0156509820    1.1567626372    0.2263044598
 C    1.2907466165    1.9075546145    0.0651724191
 O    1.4499284776    3.0990895750    0.8744065554
 C    2.5487489483    3.4775528478    0.0103877211
 C    3.4888444672    2.2981051143    0.0956869794
 C    2.6445842967    1.2494222376    0.1145771400
 C    1.6216824780    2.9435650621   -1.1773500853
 O    1.2714812399    3.2028704025   -2.2666847130
 H   -0.7873896795    1.7226258525    0.7426200399
 H    2.8864757834    4.5050346826    0.1153236399
 H    4.5667982185    2.3266423708    0.0471070704
 H    2.8242972202    0.1858751179    0.0873641924