15

 C   -0.0517405420    1.5540213975    0.0282001124
 C   -0.0296393651    0.0519263631    0.0262614868
 C    1.0997002671   -0.7917006130   -0.6780416661
 O    2.0413674159   -0.5419521033    0.4161659944
 C    0.7651253109   -0.7988904661    1.0881658999
 C    0.4659061512   -1.9642748793    0.1119399733
 O   -0.9316503617   -2.0495836558   -0.1531200691
 C   -1.3106561280   -0.7246154391   -0.2196300880
 O   -2.4256957617   -0.3579922022   -0.4291552291
 H    0.9520032273    1.9417367984    0.2200969770
 H   -0.4020404235    1.9377289922   -0.9344000201
 H   -0.7306696581    1.9306599002    0.7987438555
 H    1.4640035939   -0.7322537968   -1.7033854950
 H    0.7290957383   -0.7480431846    2.1761444018
 H    0.9381790454   -2.9379685113    0.1974527263