18

 C   -0.2581571737    1.4569446602   -0.0785181694
 N    0.0051394337    0.0250298020    0.0417144921
 C    1.3721889616   -0.4342160325   -0.1849156778
 C    0.7776334570   -0.4669938118    1.1793956198
 C    1.3044575867    0.4362737354    2.2679610793
 C    2.7269694527    0.3393786405    2.6687711486
 O    2.2677380877    1.4361451622    1.8865644264
 C    0.3301885347    0.8572640889    3.2492958928
 C   -0.5037816481    1.1765816345    4.0536114766
 H    0.5834260595    2.0993173668    0.2130636082
 H   -0.5130891250    1.6708735960   -1.1210576625
 H   -1.1215779567    1.7127624779    0.5426297651
 H    1.4809835719   -1.3510238222   -0.7586574780
 H    2.1376277322    0.3195426576   -0.3575807839
 H    0.4073283201   -1.4102428011    1.5794108633
 H    3.0077873492    0.5813695002    3.6914858500
 H    3.3648705627   -0.3743184461    2.1500852533
 H   -1.2369537561    1.4675512515    4.7650706763