17

 C    0.0386684013    1.5763226803    0.0452913543
 C   -0.0166437509    0.0490177214   -0.0395932311
 N    0.6643831673   -0.4870591115   -1.2083510612
 C    0.0914094368   -0.8180886151   -2.4176623614
 C    0.9794718257   -1.2427523425   -3.3564159617
 C    2.2956916742   -1.1983823237   -2.7415773126
 O    3.4039713949   -1.4776013137   -3.1491859358
 C    2.0393639152   -0.6783872694   -1.3079477322
 N    2.8727361077   -0.4545996681   -0.3802535200
 H    1.0758503909    1.9159935894    0.0953848004
 H   -0.4393305474    2.0389620278   -0.8238372376
 H   -0.4800756949    1.9207099136    0.9452249243
 H    0.4580780559   -0.3921161351    0.8414662997
 H   -1.0532065172   -0.3024877045   -0.0701856176
 H   -0.9830275583   -0.7236412423   -2.5173911783
 H    0.7507548025   -1.5626878301   -4.3597155624
 H    3.8046107661   -0.6927388068   -0.7345245669