16

 O   -0.4739516313    1.2692829971   -0.9667781333
 C   -1.1083268651    0.0551904511   -0.7057060875
 C   -0.6158339406   -0.5496979232    0.5950470942
 O    0.2401094349    0.0083635570    1.2474197580
 C   -1.2200770443   -1.8510639224    1.0771668747
 C   -2.4182708049   -1.7318223149    2.0556671684
 C   -3.1810243170   -2.4283676235    0.9477535458
 N   -4.3552785488   -2.8269465642    0.7971139510
 O   -2.0857014073   -2.4946852658    0.0942535827
 H    0.1493219769    1.4007268468   -0.2348160143
 H   -2.2029254773    0.1742419907   -0.6455294779
 H   -0.9363777569   -0.6816219367   -1.5074316559
 H   -0.4244659990   -2.5246389463    1.4049137345
 H   -2.3254260288   -2.2964355475    2.9834431660
 H   -2.7520330628   -0.7169543054    2.2778441506
 H   -4.4950165177   -3.2685202328   -0.1128413671