16

 N   -0.2675681185   -1.1515928510    0.0508197544
 C   -0.1468662624   -0.0055549635    0.1317287704
 C    0.0224870155    1.4414575602    0.2266124283
 C    1.4069605644    1.8967538054   -0.2673277855
 N    1.4689217176    3.3530149565   -0.1760405253
 C    2.0170778503    3.9295776008    1.0396033171
 C    2.7842872693    3.9998204516   -0.2482464563
 C    3.9891703993    3.2166024798   -0.3856145310
 N    4.9531575639    2.5926262264   -0.5239524392
 H   -0.7556383064    1.9379449176   -0.3619514812
 H   -0.1224944576    1.7460078147    1.2693531196
 H    2.1961826428    1.3935825019    0.3102257140
 H    1.5364454291    1.6135870588   -1.3157789513
 H    1.5293180386    4.8254791534    1.4111915443
 H    2.4075913753    3.2565343084    1.8009063912
 H    2.7981780589    4.9285290791   -0.8113397195