16

 N   -0.0917363041   -1.1434839945   -0.0667157030
 C   -0.0391441391    0.0107897850   -0.0359274138
 C    0.0318401760    1.4560283594   -0.0347030635
 O    0.5468158987    2.0778541211    1.1470725304
 C    1.3381662287    2.1467480841   -0.0363860193
 C    2.7013992235    1.4614964989   -0.0470246701
 C    3.5335066944    2.4191301172   -0.9164401405
 O    2.9451377590    3.7029577795   -0.7249517880
 C    1.5445876144    3.5058507978   -0.7096547539
 H   -0.8350869073    1.9461619922   -0.4760042223
 H    3.0791535696    1.4305606098    0.9786158650
 H    2.6649258308    0.4399018292   -0.4310271406
 H    4.5819527496    2.4841101795   -0.6202895513
 H    3.4860163262    2.1271291289   -1.9776899398
 H    1.1362614690    3.4909680327   -1.7340121609
 H    1.0725281107    4.3159702292   -0.1487020785