18

 C   -0.2278195999    1.3046178062    0.2499616745
 N   -0.1430048862   -0.1500847088    0.3019364884
 C    1.1678994052   -0.6782781299    0.6344528884
 C   -1.2732015063   -0.8792583389    0.1085151408
 O   -2.3699468429   -0.3742779535   -0.0891149569
 C   -1.2144738826   -2.4335903970    0.0807549097
 O   -2.4983450114   -2.9325397859    0.2361505733
 C   -0.5823495628   -2.8683781218   -1.2548549578
 O   -1.2084881898   -3.3374701017   -2.1626079522
 H    0.4949589478    1.6974671703   -0.4741835205
 H   -1.2364583431    1.5841555161   -0.0467750150
 H   -0.0032246638    1.7378968159    1.2322188612
 H    1.5274430001   -0.2264251357    1.5672554293
 H    1.1441531352   -1.7570997807    0.7719833003
 H    1.8940706974   -0.4465339428   -0.1544924034
 H   -0.5766551911   -2.8154320866    0.8900354492
 H   -3.0838529845   -2.1981814320   -0.0165342347
 H    0.5195258588   -2.7125911234   -1.3233414644