23

 C    0.4555156921    1.3519090247   -0.0124357881
 C    0.0806364599   -0.0991155831    0.0204353329
 C   -0.1859010336   -0.8745751436   -1.0347437928
 C   -0.5422086414   -2.2967615768   -0.6684988332
 C   -0.2232169273   -2.3419090948    0.8362629472
 C    1.2585007167   -2.6166792811    1.2278428154
 C    1.3237368395   -1.2518081255    1.9651727103
 C   -0.0497272830   -0.8610350757    1.3295188087
 C   -1.0887954818   -0.2678784990    2.2768993434
 H    1.4110822601    1.5292387529    0.4973206307
 H    0.5470705222    1.7185440224   -1.0384150553
 H   -0.2894704926    1.9722632864    0.5011189073
 H   -0.1642296289   -0.5275723749   -2.0638930864
 H   -1.5976298114   -2.5145157796   -0.8858506554
 H    0.0430785116   -3.0362731353   -1.2315794480
 H   -0.9342233466   -2.9360760247    1.4150663882
 H    1.4392059394   -3.5031747882    1.8403488854
 H    1.9164203152   -2.6646693321    0.3556337424
 H    1.2580160286   -1.3529035439    3.0529561721
 H    2.1756430861   -0.6057334628    1.7340839675
 H   -0.7871734133    0.7239889675    2.6336911600
 H   -2.0625187917   -0.1632059115    1.7848903081
 H   -1.2215619597   -0.9057719515    3.1574695493