17

 O    0.0207007399    1.4031226432   -0.0567104584
 C   -0.0047131108   -0.0117537337   -0.0019439796
 C   -1.4169663126   -0.4758047830    0.1187833235
 C   -2.5454156714    0.2464527024    0.0418084831
 C   -3.7208126047   -0.6572544163    0.0687664130
 C   -3.6194278475   -1.9426478187   -0.8397892788
 O   -2.3093075358   -2.1601783213   -1.3090440918
 C   -1.8106596311   -1.9324845527    0.0819660811
 C   -3.2753435244   -1.9997303058    0.6036501369
 H    0.9337740404    1.6812897368   -0.1695918847
 H    0.4476467645   -0.4577004725   -0.9055428497
 H    0.5834412144   -0.3892352163    0.8547002411
 H   -2.5956044325    1.3141097788   -0.1222923264
 H   -4.7235183219   -0.3033440245    0.2763332894
 H   -4.4429988543   -2.3061026680   -1.4423521972
 H   -1.0794151752   -2.6940086983    0.3529818742
 H   -3.6764148570   -2.5366362503    1.4536882443