16

 O   -0.0222393780    0.0336088627    0.0041144355
 C   -0.0316110131    1.2284687181    0.0009509130
 C   -1.1179110766    2.3173493531    0.0958747371
 C   -0.0347950334    3.1496111876    0.8580687052
 C    1.0338816833    2.3551334245    0.0473109302
 O    1.1978791904    2.8542605317   -1.2799399644
 C    0.0442958611    3.5214556222   -1.7950144112
 C   -1.2858648723    2.8880724057   -1.3357728182
 H   -2.0687226622    2.0751815377    0.5728029378
 H   -0.0488331993    4.2345334437    0.7453028097
 H    0.0111498268    2.8920637145    1.9186238492
 H    2.0276104110    2.1717038230    0.4574849081
 H    0.0705488478    4.5775654725   -1.4938459359
 H    0.1434339253    3.4942587871   -2.8833358531
 H   -1.5967101515    2.0845043906   -2.0114134969
 H   -2.0728745394    3.6504786553   -1.3542617661