18

 C    0.1445391045    1.5966211497   -0.2002257736
 C    0.1002007544    0.1500778016   -0.0496441367
 C    0.0641027229   -1.0460587772    0.0832669436
 C    0.0357794897   -2.4923489166    0.2150759740
 O    0.3467670224   -2.8757195915    1.5927992161
 C   -0.6682655837   -3.6803103511    1.9828032019
 N   -1.6195154636   -3.9440273120    1.1920956622
 C   -1.3461056754   -3.2080817962   -0.0566612144
 C   -2.5133318475   -2.2923328075   -0.4143141204
 H    0.9110329868    1.8985586230   -0.9220976424
 H   -0.8167145375    1.9913560391   -0.5466456848
 H    0.3780489739    2.0808503981    0.7541991316
 H    0.8212392673   -2.9331361959   -0.4076985553
 H   -0.5731038422   -4.0504509830    2.9981451014
 H   -1.2122778204   -3.9393473621   -0.8614814389
 H   -2.6764921015   -1.5449789893    0.3665795863
 H   -2.3266199128   -1.7690741988   -1.3561966941
 H   -3.4225052274   -2.8901031106   -0.5171253464