14

 O    0.0451330195    0.0739627121    0.2694803586
 C    0.0334646777    1.2287486438   -0.0020549443
 O   -1.0214616244    1.9684999371   -0.4846602446
 C   -0.2279455545    3.1966827984   -0.4947412482
 C    1.0004163174    2.4229359751    0.0198338795
 C    1.5790434505    2.8239993120    1.3858462789
 C    2.6253548831    1.9203889003    1.8455569672
 C    3.4970448257    1.1773723719    2.2064556624
 H   -0.1602891859    3.6085152372   -1.5032935092
 H   -0.6493655618    3.9339167662    0.1934162225
 H    1.8009492022    2.3146238434   -0.7154320917
 H    1.9813245655    3.8423404937    1.3079213983
 H    0.7706738166    2.8683929744    2.1269096289
 H    4.2568072784    0.5113927644    2.5334690117