19

 O    0.0828641990    1.4242428891   -0.0757231342
 C    0.0098844123    0.0187197303    0.0576856594
 C   -1.4241785650   -0.4316765849    0.0749838686
 C   -2.4594514582    0.4038710369    0.1501989175
 C   -3.8845773589   -0.0773185983    0.1096615552
 O   -4.7086433382    0.7553853077   -0.7023133016
 C   -3.9249243382   -1.5311832945   -0.3794270469
 O   -2.9630263116   -2.3214868308    0.2944407058
 C   -1.6397497269   -1.9252404646    0.0021348766
 H    0.9977828850    1.6899197913    0.0504434999
 H    0.5356334854   -0.4901552207   -0.7708409899
 H    0.5017089547   -0.3224765650    0.9859405102
 H   -2.2986565848    1.4749360534    0.2188512563
 H   -4.3339438524   -0.0180844655    1.1090398340
 H   -4.2577094103    0.8686876081   -1.5468907218
 H   -4.8999805440   -1.9854690118   -0.1880729609
 H   -3.7493986352   -1.5429610284   -1.4699139750
 H   -1.3410492618   -2.2897844881   -0.9993987334
 H   -0.9987333807   -2.4419819242    0.7277851802