20

 C    0.0853369336    1.3384194689   -0.1741367028
 C    0.1112698524   -0.1854660192   -0.0739115192
 O    0.7948800256   -0.7545050896   -1.2093473107
 C    0.7102504882   -0.6648918409    1.2323049908
 C   -0.1641643806   -1.0500849714    2.4037918710
 C    0.6146839958   -2.1117513968    1.6698092816
 C   -0.0849568024   -3.1448146981    0.8074930233
 O    0.6783440262   -3.5226232917   -0.3192993467
 H    1.0994953441    1.7493482904   -0.0953730931
 H   -0.3392179936    1.6535948504   -1.1307641435
 H   -0.5108441532    1.7686170714    0.6363804515
 H   -0.9104300075   -0.5655876836   -0.1718061586
 H    1.7154299780   -0.4698594346   -1.1688798825
 H    1.6429071372   -0.1625374295    1.4862849336
 H    0.1443186316   -0.7609297091    3.4021674893
 H   -1.2394454066   -1.0270221928    2.2501426733
 H    1.4999929968   -2.4935721515    2.1710579071
 H   -0.2492043617   -4.0570208324    1.3925803368
 H   -1.0834648014   -2.7767337971    0.5175088777
 H    0.8122606675   -2.7115568828   -0.8343718290