16

 O   -0.0774820460    0.0731752382   -0.3866811355
 C    0.0200577124    1.1530267233    0.1322289033
 C    1.3032648604    1.9942270068    0.0867991346
 C    1.3073120979    2.8364022111   -1.2230140451
 C    1.4854670049    1.9607985925   -2.4791931472
 C    1.4327945050    2.7561616955   -3.7031809752
 N    1.3884096391    3.4021227032   -4.6601199398
 C    1.3998567603    2.8446516128    1.2648681651
 C    1.4342912181    3.5469422715    2.2392511919
 H   -0.8329401166    1.6379538936    0.6530412662
 H    2.1441338105    1.2905815330    0.0523280574
 H    0.3769619489    3.4096187487   -1.2926210409
 H    2.1200720098    3.5642807244   -1.1604142185
 H    2.4490587993    1.4396159606   -2.4417696945
 H    0.7155719484    1.1840195590   -2.5251517722
 H    1.4844561974    4.1645589057    3.1023255904