21

 O    0.3323785209    0.5495453833    0.8817769224
 C   -0.1233708239    0.2234982137   -0.4317754442
 C   -1.4756729821   -0.4400562223   -0.3561743445
 O   -2.4342103109    0.3777942660    0.2591323983
 C   -1.9905990439   -1.3191943717   -1.4503970550
 C   -1.5933141806   -1.9371702192   -0.1182647390
 C   -0.4134099501   -2.8504541973    0.0038265197
 C    0.0597315570   -3.3116319963    1.3676043691
 C   -0.6013758306   -4.2866432249    0.4236407441
 H    0.4873370422   -0.2855638289    1.3384210135
 H   -0.2089982602    1.1785132985   -0.9599613662
 H    0.6026933011   -0.3995563007   -0.9700723053
 H   -1.9953402526    0.7430603118    1.0388506963
 H   -3.0468954182   -1.2426828388   -1.6818225536
 H   -1.3494290933   -1.5016654929   -2.3078189342
 H   -2.4305559282   -2.1954697479    0.5257498237
 H    0.3689969316   -2.6849348801   -0.7318170192
 H    1.1254011001   -3.4098260579    1.5453636470
 H   -0.5090122392   -2.9902696978    2.2346282787
 H   -1.6087488402   -4.6130624963    0.6599552564
 H    0.0139328211   -5.0472838002   -0.0439298680