18

 C    0.4941209670    0.7236130054    0.4662434009
 O   -0.5719844790    0.5776612674   -0.4632058212
 C   -1.5396349096   -0.3608310115   -0.2076569877
 C   -2.6064336745   -0.3872377174   -1.3007745913
 O   -3.4867509279   -1.4178215134   -0.8272233642
 C   -2.8569355834   -1.8059558671    0.3686501691
 C   -1.3062103517   -1.8585131181    0.2291292727
 N   -1.1298644886   -1.4131385218    1.6609826976
 C   -2.2915944191   -0.5890162224    1.1601197284
 H    1.1319860840    1.5140492384    0.0634985080
 H    0.1314075077    1.0120928435    1.4581105921
 H    1.0724316919   -0.2002671445    0.5691087855
 H   -3.1396862636    0.5663754438   -1.3858543567
 H   -2.1930493948   -0.6532031226   -2.2802390754
 H   -3.3925139343   -2.6012182045    0.8861997708
 H   -0.6790726780   -2.6202663596   -0.2356517039
 H   -1.4821633800   -2.1453560508    2.2865514155
 H   -2.8172732363    0.1344334052    1.7845182500