21

 C    0.1826115565    1.4750975581   -0.2282883341
 C   -0.0396449197   -0.0166996066    0.0608842290
 C    0.6724618941   -0.4847802017    1.3016551547
 C    2.0968492384   -0.9863794489    1.3308687254
 C    3.3205984608   -0.4914795480    2.0844565274
 C    0.9851639877   -1.9183964561    1.7678814087
 C    0.3325063504   -1.5802569097    3.1398837360
 O    1.0028707366   -0.4744134458    3.7614141783
 C    0.0554394212   -0.2132634034    2.7188777575
 H    1.2438800570    1.6875989553   -0.3915012700
 H   -0.3687248134    1.7916445534   -1.1191884001
 H   -0.1527539231    2.0963878683    0.6091686299
 H   -1.1166608833   -0.2136048003    0.1582155783
 H    0.3015978355   -0.6133255046   -0.7940371253
 H    2.3680502822   -1.2594080172    0.3079819695
 H    4.0822001062   -1.2798165728    2.1064311130
 H    3.7558827150    0.3646153194    1.5555729152
 H    3.0974818730   -0.1954866264    3.1042763427
 H    0.7657977042   -2.8415882866    1.2440895527
 H   -0.2140748890   -2.2596060267    3.7827630833
 H   -0.7655312902    0.4593286705    2.9404284779