23

 C   -0.1233669822    1.6009999571    0.0971290676
 C    0.1348480100    0.1143674989    0.0357116502
 C    0.5890297018   -0.4716832082   -1.2987404531
 C    1.1795876592   -1.8604706371   -0.9678490383
 C    1.6966469846   -1.7397406112    0.4825843934
 C    0.8263074710   -0.6771195686    1.1499513942
 C    1.3402898907   -0.0618561356    2.4303372060
 C   -0.6592064690   -0.8287321513    0.9269172919
 O   -1.4849668571   -0.2900685037    1.9243052695
 H    0.7878902036    2.1699678224   -0.1210777540
 H   -0.8752779988    1.8990124488   -0.6448466770
 H   -0.4871606881    1.9084001688    1.0799836799
 H   -0.2195802361   -0.5281028506   -2.0378663237
 H    1.3612173390    0.1827905580   -1.7243687072
 H    0.4013536867   -2.6275966357   -1.0300301433
 H    1.9646889637   -2.1579091796   -1.6681070235
 H    1.6773734758   -2.6986659396    1.0138727892
 H    2.7378520184   -1.3919355874    0.4914176464
 H    2.2873110987    0.4635213678    2.2597124732
 H    0.6241714815    0.6410089213    2.8583158844
 H    1.5259849076   -0.8376017264    3.1826996472
 H   -1.0362045816   -1.7625905734    0.5059921057
 H   -2.2731551392    0.0628340452    1.4983373912