18

 C    0.4180110942    1.5515897950   -0.0704307746
 C    0.1815786443    0.0562118876   -0.0038615895
 O    0.8540229226   -0.5831526943   -1.1073766270
 C    1.0643042264   -1.9297285127   -0.7035994168
 C    1.6287280954   -1.7751591479    0.7020821289
 O    2.9771643215   -1.3092691937    0.6567107223
 C    0.7157229427   -0.6571358478    1.2892552049
 O    1.4118629410    0.1737524450    2.1840527601
 H    1.4801851274    1.7839396727    0.0382399486
 H    0.0655516535    1.9464203816   -1.0271376304
 H   -0.1166542593    2.0543651964    0.7392793706
 H   -0.8948539132   -0.1571187350   -0.0999278693
 H    0.1214387344   -2.5014080486   -0.6936531104
 H    1.7613992387   -2.4011325492   -1.4006836882
 H    1.6329358579   -2.6892689902    1.2984643050
 H    3.0287125417   -0.7083663390   -0.0992757429
 H   -0.1251086948   -1.1011070961    1.8337368175
 H    2.3509081055    0.0213189262    1.9976813112