18

 C   -0.0467845138    1.5376997061    0.0645339857
 C   -0.0411637720    0.0429446452   -0.0255753488
 C    1.0865834601   -0.8321210857   -0.5788059167
 C    0.5985119382   -1.0165069660    0.8295979925
 N   -0.6273462811   -1.9192658116    0.7646245806
 C   -0.7693168425   -2.1733809344   -0.6933769685
 C   -1.2668014034   -0.8927423098   -0.1207289253
 C    0.5299471381   -1.9454595166   -1.4466364750
 O    0.3523266718   -1.6238342662   -2.8133450430
 H    0.9544699200    1.9183522517    0.2895418401
 H   -0.3710052155    1.9985046305   -0.8765005065
 H   -0.7205829428    1.8872480700    0.8549049270
 H    2.0580210942   -0.3918456891   -0.7654018980
 H    1.1900310800   -0.9738773785    1.7346108673
 H   -1.4437770016   -2.9778601280   -0.9639717376
 H   -2.3070167158   -0.6101763737   -0.0020559690
 H    1.1699033719   -2.8333326114   -1.4349035877
 H   -0.2138408856   -0.8442622924   -2.8521958672