11

 O   -0.0151555654    0.1165839939   -0.6005219563
 C   -0.0037544031    1.2669325722   -0.2239751746
 C    1.2525879886    1.9058941957    0.2081984302
 N    2.2301109444    2.4231863614    0.5454241012
 C   -1.2095932914    2.1313452629   -0.1647118427
 C   -2.0381488105    2.1740565178   -1.4230464823
 N   -2.5141854518    1.4658079729   -0.2497927068
 H   -1.1507423688    3.0106635694    0.4681557440
 H   -2.5540146556    3.0999809038   -1.6576891517
 H   -1.6724518570    1.6032951041   -2.2718812916
 H   -2.3442918294    0.4662441560   -0.3662187594