14

 O    0.0879607301    1.3221555647    0.2312845881
 C    0.0745925660   -0.0134262985   -0.0023418118
 C    0.0841414791   -0.7667229329   -1.1454314839
 C    0.0638983415   -2.1430023544   -0.7050516444
 C    0.0444890779   -2.1137332167    0.6837699774
 N    0.0179593417   -3.3824660240    1.1488183224
 N    0.0252200845   -4.2706063282    0.1070681205
 C    0.0501364472   -3.5291057356   -0.9992096323
 N    0.0442957705   -0.8182707640    1.1340121354
 H    0.1119433955    1.7772729268   -0.6159984088
 H    0.1004983420   -0.3829071013   -2.1531776191
 H    0.0121036686   -3.7341250344    2.0885929908
 H    0.0573277730   -4.0262294925   -1.9580339854
 H    0.0639075625   -0.4684566891    2.0748917710