23

 C    0.0595378021    1.5589269021    0.0186880796
 C    0.0150177440    0.0298629688   -0.0538101548
 C   -1.4004882076   -0.5615505065    0.0182244500
 C   -2.2761546942   -0.1833462990   -1.1963076346
 C   -1.3601929455   -2.0863298656    0.1332996851
 O   -0.3761911468   -2.7309173763   -0.1710823138
 C   -2.6021627137   -2.7557419646    0.6261984704
 C   -2.9418924367   -4.1217760998    0.0454975045
 C   -2.4237612676   -4.0314297886    1.4382195464
 H    1.0944407177    1.9146653224    0.0297978928
 H   -0.4360601553    2.0290346751   -0.8366159211
 H   -0.4264659847    1.9303382601    0.9285596316
 H    0.4976337070   -0.3212323914   -0.9723142726
 H    0.6071544854   -0.3907575473    0.7663328291
 H   -1.9039655951   -0.1846933754    0.9210832320
 H   -3.2680905045   -0.6413572172   -1.1390326491
 H   -2.4148193247    0.8991700992   -1.2553799139
 H   -1.8043041325   -0.5182286275   -2.1261638271
 H   -3.4296462264   -2.1087883364    0.8943392121
 H   -3.9906460168   -4.3447857554   -0.1134178549
 H   -2.2619717236   -4.4856789650   -0.7161753108
 H   -1.3964953389   -4.3328847835    1.6077191194
 H   -3.1055308813   -4.1903536781    2.2657146798