16

 O    0.0180568259    0.0258891894    0.0947978726
 C   -0.0056385480    1.2255643929    0.0418278115
 C   -1.2532679467    2.1375597813    0.0199288878
 C   -0.6070362279    3.5527461197    0.0309019566
 C    0.6078187286    3.3140668464   -0.9037852860
 C    1.2067684657    2.1890596549   -0.0252102813
 C    1.1737723859    2.8660478317    1.3440443689
 C    0.1113098522    3.6768939685    1.3731647857
 H   -1.8136867224    1.9421100017   -0.9012680092
 H   -1.9148095033    1.9357426612    0.8645212059
 H   -1.2807543932    4.3662784256   -0.2372357670
 H    0.3219499400    2.9835553276   -1.9084003668
 H    1.2700814489    4.1802466120   -0.9726609162
 H    2.1358592964    1.7096731457   -0.3256330791
 H    1.8435010635    2.6175428001    2.1565482418
 H   -0.2572457055    4.2449266612    2.2178353349