17

 C   -0.4359237338    1.0242942920    0.1951977816
 O    0.6303831452    0.1291407141   -0.0719261111
 C    1.0260364449   -0.5933959503    1.0376766531
 C    0.1670285887   -1.6412424703    1.6795308244
 O   -0.7004267100   -2.2494109940    0.7245990015
 C    0.4487493253   -2.7840377956   -0.0051973888
 C    0.4363221001   -2.5580154025   -1.4388127353
 C    0.4349149569   -2.4560939432   -2.6360332001
 C    1.4285852825   -2.0341956253    0.9094597988
 H   -0.1563245802    1.7734557772    0.9510041681
 H   -0.6607965389    1.5356594758   -0.7431161493
 H   -1.3280236290    0.4854750506    0.5376060336
 H    1.6407379057   -0.0439003983    1.7567671090
 H   -0.1111422164   -1.7021632874    2.7256637075
 H    0.5030175318   -3.8620001957    0.1926149666
 H    0.4374156458   -2.3308433108   -3.6906654655
 H    2.3863829514   -2.4231315864    1.2268831858