11

 C   -0.0258493340    1.4877125725    0.0310671738
 C   -0.0045921868   -0.0018086279   -0.0412433820
 N   -0.0833216676   -0.7402281129   -1.1362920233
 C   -0.0200903265   -2.0145884592   -0.6573896938
 N    0.0926935280   -2.1212912358    0.6543956107
 N    0.1007633097   -0.8179078245    1.0323137291
 H    0.8909959432    1.8827214812    0.4814489506
 H   -0.1147752419    1.8851607916   -0.9802646469
 H   -0.8723821681    1.8505910368    0.6237074224
 H   -0.0578392324   -2.8855417012   -1.2944839946
 H    0.1788392163   -0.5832928105    2.0082288039