17

 C    0.0210649955    1.3507111654   -0.2464685181
 O   -0.0038453757   -0.0162661145    0.1220755112
 C   -1.2817102721   -0.6168340517    0.0530213161
 C   -1.7903177244   -0.7276387082   -1.3184937090
 C   -2.2266954083   -0.7814706850   -2.4363710440
 C   -1.1291133626   -2.0068215018    0.7170637574
 N   -0.1157773796   -2.7802515982    0.0135378052
 C   -0.8537441491   -1.8306429421    2.1625339869
 N   -0.6250622120   -1.7458892653    3.2925256079
 H    1.0519307305    1.6885438290   -0.1260647565
 H   -0.2898019494    1.4920548176   -1.2892670346
 H   -0.6318931133    1.9494705460    0.4050162848
 H   -2.0021021421   -0.0335132792    0.6496465690
 H   -2.6056505657   -0.8441298550   -3.4269496770
 H   -2.0918862834   -2.5214323996    0.6262075741
 H    0.7604169354   -2.2675629486    0.0331839807
 H    0.0347412563   -3.6699470788    0.4770335758