24

 C    0.0624319372    1.6212285842    0.0168660861
 C   -0.0099375434    0.0866542359    0.0091788511
 C    0.6385353218   -0.4716374466   -1.2766356275
 C    0.1206712096   -1.8319863686   -1.7822255131
 C   -0.1520401386   -2.9150744564   -0.7189778956
 C    0.8204702546   -2.9539182089    0.4720167543
 C    0.4607237798   -1.9584737962    1.5876012647
 C    0.6686983699   -0.4691681577    1.2777413160
 H    1.1044933063    1.9627686305   -0.0152315870
 H   -0.4513685050    2.0480184122   -0.8508732062
 H   -0.3950143597    2.0402771945    0.9193516843
 H   -1.0727013797   -0.1970869441    0.0244454403
 H    0.5094150044    0.2528644986   -2.0899778013
 H    1.7224453159   -0.5296362254   -1.1093368154
 H   -0.8042339982   -1.6741700874   -2.3511430540
 H    0.8498174195   -2.2160760774   -2.5066817338
 H   -1.1673350564   -2.7904806023   -0.3205916793
 H   -0.1541122178   -3.8885449171   -1.2231577145
 H    0.8040570255   -3.9616800602    0.9040668314
 H    1.8518638820   -2.7900758348    0.1311488418
 H   -0.5908135939   -2.1235157728    1.8623527260
 H    1.0449515975   -2.2000610414    2.4844351720
 H    1.7464087814   -0.2638982097    1.1985266938
 H    0.3195451473    0.1046970210    2.1459719461