19

 O    0.4744189906    0.9550681215   -0.8425361224
 C    0.1249856464   -0.2179928220   -0.1164936660
 C    0.6588714612   -0.2727745254    1.2970073414
 C   -0.2668629222   -0.6446400742    2.1830644109
 C   -1.6089346354   -0.8994326842    1.5531106670
 C   -2.6670274727    0.2282706234    1.7499513701
 C   -2.2838929852    0.8056421954    0.3570266898
 C   -1.3977325905   -0.4529049420    0.0763224278
 O   -1.9502390021   -1.3555917290   -0.8552655721
 H    0.3086479887    1.7134038023   -0.2722723606
 H    0.5232146655   -1.0398773790   -0.7262341259
 H    1.6961644596   -0.0450135540    1.5195780234
 H   -0.0982728833   -0.7526810924    3.2502463398
 H   -1.9693642220   -1.9215960631    1.6972596387
 H   -3.6902927346   -0.1510855019    1.7891840443
 H   -2.5054141260    0.8878551559    2.6061516612
 H   -3.1087396666    0.9153064082   -0.3496858564
 H   -1.7383772539    1.7517118710    0.3969175320
 H   -1.8257907776   -0.9779715206   -1.7338288329