20

 O   -0.1068030516    1.4366430175    0.0280838146
 C    0.0594276965    0.0292299866    0.0314165424
 C    0.1652996777   -0.5917207515    1.4511966143
 C   -1.3870187934   -0.4759215042    1.5252960160
 C   -1.3408998625   -0.6276459982   -0.0308738202
 C   -1.2729204530   -2.1178575169   -0.3100491563
 C   -0.1208385050   -2.7804428890   -0.9752804924
 N   -0.2913283185   -2.8841476254    0.4780914537
 C    0.5801472747   -2.0706828028    1.3528101559
 H    0.7193653487    1.8314941612    0.3254240600
 H    0.8126738243   -0.2644299170   -0.7102590214
 H    0.7714432726   -0.0663909321    2.1963284289
 H   -1.9293249163   -1.2392542806    2.0889985402
 H   -1.7029697353    0.5211452465    1.8286458593
 H   -2.0913087735   -0.1212579271   -0.6414425045
 H   -2.2506989457   -2.5947018985   -0.3759369266
 H   -0.2720408959   -3.7111792802   -1.5170436679
 H    0.6856143414   -2.1677340097   -1.3680374043
 H    1.6216020945   -2.1567725778    1.0160887056
 H    0.5319967704   -2.5143576410    2.3548126128