16

 C    0.1009830498    1.5717550260   -0.0541122277
 C   -0.0486742011    0.0443807433    0.0591273752
 C    0.5946339197   -0.5150274036    1.2875917203
 C   -0.0275904823   -1.1503899689    2.3078717678
 N    0.6569993288   -1.6256567866    3.4027745448
 C    1.9351321528   -1.4474516196    3.4405852255
 C    2.7095202858   -0.7714835294    2.3965393802
 O    3.8922196152   -0.5753378822    2.3791473384
 O    1.9343865420   -0.3263458302    1.3223982843
 H    1.1554625014    1.8581240071   -0.0569458731
 H   -0.3546453202    1.9283649187   -0.9815651356
 H   -0.3887322781    2.0765408837    0.7838988700
 H   -1.1050444353   -0.2393881626    0.0654377633
 H    0.4099326340   -0.4311705215   -0.8169461088
 H   -1.0984399167   -1.3071752570    2.2907760797
 H    2.5047047540   -1.8113880372    4.2916664756