19

 C   -0.0390436378    1.5534951179    0.0527177007
 C    0.0862522488    0.0442716930    0.0427003703
 O   -1.0835845948   -0.5882325645   -0.4218318668
 C    1.3388292355   -0.7195522070   -0.2501550329
 C    2.5816058734   -0.0068987274    0.2932965585
 C    1.9238898482   -0.0923558271    1.6960338044
 O    2.3373785108    0.1098196935    2.8039468960
 C    0.6888920884   -0.7770543091    1.1831703293
 C   -0.0767024786   -1.8280929277    1.9346097438
 H    0.8372068830    2.0464659009    0.4783760186
 H   -0.1749675011    1.9335745524   -0.9678059228
 H   -0.9143170382    1.8444178472    0.6406747985
 H   -1.1918607725   -0.3535711409   -1.3501443792
 H    1.3407647565   -1.5195543714   -0.9799069853
 H    3.4793150293   -0.6329108972    0.2764475238
 H    2.8321991891    0.9788143488   -0.1080900176
 H   -0.5315087806   -1.3936033010    2.8313696707
 H   -0.8721010577   -2.2459363400    1.3161448373
 H    0.5844822485   -2.6370554501    2.2611728228