16

 N   -0.0226658075    1.2670345343    0.1291961554
 C    0.0376249898    0.0469795910   -0.2004846624
 O    1.1075166450   -0.4688632979   -0.8618233021
 C    1.5523458233   -1.8215881048   -0.7262956711
 C    0.4385751668   -2.8741115343   -0.7174561905
 O   -0.5694195081   -2.5307085987   -1.6451384628
 C   -1.6314140722   -1.8215027272   -1.0447622608
 C   -1.2262412422   -0.7938776433    0.0202785488
 O   -1.9314100524   -0.5957347220    0.9753098535
 H    0.8560423642    1.7346049865   -0.1092412040
 H    2.1916656416   -1.9702732440   -1.5995026776
 H    2.1719677475   -1.9197920023    0.1751507638
 H    0.8704032541   -3.8361432281   -1.0142121915
 H    0.0172598468   -3.0065613848    0.2895399939
 H   -2.1523718596   -1.2847798200   -1.8475850019
 H   -2.3512752072   -2.4985960442   -0.5642419108