25

 C   -0.0048746085    1.3822780648   -0.0348543223
 O    0.0319358752   -0.0227541039   -0.0437104004
 C    0.6488939257   -0.5639396662    1.1076139569
 C    0.6492354169   -2.0934558242    1.0015851319
 C    1.3951591741   -2.5179133306   -0.2752019466
 C    1.2188433992   -2.7423914879    2.2885539964
 C    0.4629693058   -2.3267822618    3.5623393577
 C    1.2351960423   -4.2720757129    2.1813090279
 O    1.8501960577   -4.7956171188    3.3526708892
 H    1.0063546234    1.8194326430   -0.0068558022
 H   -0.5024271441    1.7043681765   -0.9531716703
 H   -0.5673559856    1.7724312363    0.8288619832
 H    1.6862330104   -0.1914760138    1.1954442608
 H    0.1063576997   -0.2289361131    2.0034900847
 H   -0.4030678823   -2.3981328737    0.9039969297
 H    2.4766088970   -2.3719997174   -0.1624823733
 H    1.2228933378   -3.5673781871   -0.5263497415
 H    1.0583987829   -1.9119338705   -1.1184192692
 H    2.2683081857   -2.4294236385    2.3924718675
 H    0.7996110019   -2.9326121789    4.4055427382
 H    0.6254311474   -1.2767341707    3.8172685987
 H   -0.6167315455   -2.4806907657    3.4428541844
 H    0.2004083681   -4.6417932225    2.0778735564
 H    1.7904087395   -4.5877748696    1.2887972004
 H    1.8453180454   -5.7546192826    3.2889046118