22

 C    0.0229846696    1.5581627651    0.1685143021
 C   -0.0026037786    0.0340885444    0.0591655033
 C   -1.4312450742   -0.5008250855   -0.0645885229
 O   -2.3848901838    0.2620092716   -0.1475054595
 N   -1.6090899176   -1.8592252341   -0.0753800725
 C   -0.5485805636   -2.8535686666   -0.0228597426
 C   -2.9790184167   -2.3606377416   -0.1326521985
 C   -3.5020924075   -2.5427646509   -1.5525602752
 O   -2.7565246282   -3.5794946533   -2.1817355587
 H    1.0538448752    1.9182239378    0.2363958052
 H   -0.4542076680    2.0178236568   -0.6994954657
 H   -0.5231185344    1.8954167952    1.0526807130
 H    0.5780307370   -0.2910563837   -0.8137100846
 H    0.4853720107   -0.4211238104    0.9294246040
 H    0.4260878898   -2.3920449509   -0.1698140608
 H   -0.5380186964   -3.3748425637    0.9448751893
 H   -0.7042586483   -3.5918941877   -0.8130486215
 H   -3.0156763839   -3.3214836640    0.3925592857
 H   -3.6240584322   -1.6474697428    0.3842991194
 H   -4.5730914579   -2.7973996294   -1.5045077420
 H   -3.4037636444   -1.5903788195   -2.0898527801
 H   -2.9751109967   -3.5838357969   -3.1177340276