18

 C   -0.1330885462    1.5649304158    0.0207083167
 C    0.0391192991    0.0628444298   -0.0461662807
 C    0.7023857311   -0.6880383054   -1.1896627394
 C    1.6498332107    0.0963809622   -2.0971935029
 N    2.6837110201    0.5781856359   -1.1855833778
 C    2.6237768407    0.0474479430    0.0690965565
 O    3.4692784356    0.0978094538    0.9422518645
 C    1.3222120855   -0.7000656609    0.1906337733
 O    1.3647822783   -1.7872614529    1.0465876805
 H    0.7384748752    2.1001306724   -0.3642874166
 H   -1.0059724763    1.8818207219   -0.5611795867
 H   -0.2890962819    1.8880288637    1.0550877204
 H   -0.8013026261   -0.4964888454    0.3604364622
 H    0.2058886752   -1.5582750520   -1.6003552327
 H    2.0793164565   -0.5540498185   -2.8695901735
 H    1.1490595450    0.9318989729   -2.6019057961
 H    3.5006235939    1.0813474938   -1.4933294959
 H    2.1241811535   -1.6182167899    1.6247947283