16

 N    0.0308113353    1.2422415839    0.5893074432
 C   -0.0723254741   -0.0581016829    0.1070218995
 C   -1.0567141772   -0.6718053192   -0.5978174981
 O   -0.6826974545   -2.0025978494   -0.7519789697
 C    0.5006733207   -2.0876085260   -0.1254405301
 N    0.9239056019   -0.9797794532    0.4090434841
 N    1.1530968108   -3.3030742958   -0.1925593822
 C    1.9820212689   -3.6978112095    0.9374978407
 C    0.7027321376   -4.4103496097    0.6611199850
 H    0.9963207133    1.5036247797    0.7385937525
 H   -0.4457248402    1.9297484253    0.0225932898
 H   -1.9995611943   -0.3830257016   -1.0240719607
 H    2.9286868879   -4.1565103590    0.6704116883
 H    2.0122653350   -3.0184482891    1.7837467010
 H   -0.1343633016   -4.2192135700    1.3266405148
 H    0.7046500407   -5.3843487335    0.1829772919