23

 C   -1.4599565400    0.5058577496   -2.3834058626
 O   -0.7306569536   -0.6481604924   -2.0230342417
 C   -1.2434094211   -1.8376370394   -2.6218682840
 C   -0.4638804736   -3.0163797783   -2.1026831032
 C   -0.0816879853   -4.2001975611   -2.9734953770
 C   -0.4977666698   -4.3591614670   -4.4228483563
 C    0.9868831926   -3.2405756132   -2.5006669684
 C    1.7087942698   -2.2564718125   -3.3992486154
 O    2.0825772042   -1.0835488328   -2.7006581748
 H   -1.4441144619    0.6757267528   -3.4708534781
 H   -2.5091878683    0.4331048112   -2.0601412038
 H   -0.9925269891    1.3573731839   -1.8841188355
 H   -2.3091109121   -1.9420001356   -2.3625273159
 H   -1.1881192009   -1.7488775019   -3.7160765283
 H   -0.7016727855   -3.2510285296   -1.0689387859
 H   -0.0923188274   -5.1479591273   -2.4402310893
 H   -0.4747766095   -3.4232862331   -4.9847371832
 H    0.1705846307   -5.0596556891   -4.9353409687
 H   -1.5141519219   -4.7625763442   -4.4934849012
 H    1.6220597435   -3.6022316521   -1.6962476264
 H    2.6384555786   -2.7054421691   -3.7676460759
 H    1.1050267239   -2.0155043856   -4.2876170599
 H    1.2642978068   -0.7309423932   -2.3198893643