23

 C    0.0024791168    1.6193128427    0.0474372034
 C   -0.0658807933    0.0889788714    0.0738100914
 C    0.7539464311   -0.5452384749    1.2214123376
 C    0.0812856785   -0.2012232739    2.5408596625
 O    0.3988563742    0.7036237991    3.2672019499
 C    0.8675648190   -2.0738342536    1.1184792598
 C    1.7189944881   -2.5519312427   -0.0585351970
 O    1.4223554255   -2.4815713581    2.3669876198
 C    1.2468395932   -3.8423698444    2.6902157779
 H    1.0293604355    1.9623816030   -0.1162217364
 H   -0.6178327233    2.0194608999   -0.7601380619
 H   -0.3413127668    2.0560173008    0.9891197629
 H   -1.1119099447   -0.2370125994    0.1597664242
 H    0.2945978048   -0.3049642486   -0.8822319477
 H    1.7589804003   -0.1085301884    1.2414839005
 H   -0.8061220734   -0.8381963086    2.7717932628
 H   -0.1489628578   -2.4977600596    1.0266393524
 H    1.7960986930   -3.6426761244   -0.0702859613
 H    1.2839504238   -2.2496398098   -1.0148836912
 H    2.7294911462   -2.1379137404    0.0133766645
 H    1.6098285570   -3.9766684724    3.7119970908
 H    0.1861444612   -4.1354456876    2.6489544215
 H    1.8155383610   -4.5114821800    2.0292129235