17

 O   -0.0100245081    1.3934971933   -0.1076871781
 C    0.0195702397   -0.0067149332    0.0842981983
 C   -1.3508460529   -0.6122095814   -0.0513231477
 C   -2.2540747997   -0.5304509377   -1.3053911348
 C   -3.0915762783   -1.5556313462   -0.4637419396
 C   -1.7132461390   -2.1146049186    0.0363006649
 C   -3.4318696134   -0.6622702572    0.7206131104
 O   -4.4351781421   -0.4765057621    1.3370106916
 O   -2.2315519595   -0.0355883764    0.9810441164
 H   -0.6343490930    1.7492518399    0.5353836375
 H    0.6761931447   -0.4208131446   -0.6875911672
 H    0.4397865613   -0.2798907826    1.0650944078
 H   -2.6986959342    0.4375976526   -1.5407185293
 H   -1.8024989470   -0.9835919399   -2.1896900892
 H   -3.8923144451   -2.1709207394   -0.8633078901
 H   -1.2123045281   -2.7243566360   -0.7178032042
 H   -1.6694509851   -2.5861431905    1.0202165532