16

 C   -0.0405142178    1.5709480132    0.0690806954
 C    1.4886476284    1.3794553502    0.0106051392
 O    1.7681236393    0.7764880497    1.2618491040
 C    0.9048892991   -0.4218542381    1.1669783749
 C    1.8030671423   -1.4729972839    0.5569606962
 C    2.0342951121   -1.0945723476   -0.7089153944
 C    1.2158497000    0.1214343322   -0.9760663744
 C   -0.0085507730    0.0281562300   -0.0061406951
 H   -0.4381952051    2.0527999491    0.9645595562
 H   -0.4618069155    2.0114652147   -0.8376579605
 H    2.2108304059    2.1626997965   -0.2121100562
 H    0.4573120040   -0.6173650398    2.1403249144
 H    2.2929332023   -2.2628850756    1.1113884902
 H    2.7477884843   -1.5291088618   -1.3982143796
 H    1.0108936440    0.4131962965   -2.0046552290
 H   -0.8706186301   -0.5977849653   -0.2346977714