13

 C   -0.0371405158    1.5321592003    0.0133230995
 C    0.0134433485    0.0211701950    0.0192200525
 O   -1.1747610411   -0.5973528431   -0.4093125960
 C    1.3074479830   -0.6990210626   -0.2738964978
 C    0.7084474854   -0.7137350438    1.1222631768
 H    0.8902686083    1.9624027946    0.4027613524
 H   -0.1784615063    1.9156126230   -1.0051852237
 H   -0.8701123164    1.8895520142    0.6273095332
 H   -1.2835226470   -0.4022539112   -1.3469064090
 H    1.2397381299   -1.6164211506   -0.8478377397
 H    2.2054399256   -0.1152381975   -0.4474447411
 H    1.1953915927   -0.1388983426    1.9024028418
 H    0.2473543934   -1.6367024057    1.4537848011