22

 C   -0.1307280024    1.5729479760    0.0401554557
 C   -0.0600276614    0.0464967079   -0.0535420933
 C   -1.4362599353   -0.6197019202    0.0531745604
 C   -1.3519603534   -2.1345773976   -0.0414796192
 O   -2.6861632003   -2.6538579792    0.0687880785
 C   -2.7856500822   -4.0070945637    0.0064375729
 O   -1.8451979066   -4.7590066281   -0.1323942081
 N   -4.0902456576   -4.3745655950    0.1230270671
 C   -4.5108710487   -5.7576067326    0.0918828154
 H    0.8634454929    2.0233408859   -0.0385099554
 H   -0.7504670593    1.9899540513   -0.7612752934
 H   -0.5666553304    1.8907462044    0.9936942587
 H    0.4113870581   -0.2412921815   -1.0023185504
 H    0.5940805670   -0.3397252608    0.7390506842
 H   -1.9112666451   -0.3468547663    1.0038359111
 H   -2.0945040758   -0.2479374669   -0.7420257082
 H   -0.9159137146   -2.4557548578   -0.9937597660
 H   -0.7324086104   -2.5551625851    0.7580988266
 H   -4.7674723987   -3.6392969205    0.2338788384
 H   -5.1930027963   -5.9531253252   -0.7437615154
 H   -3.6157835807   -6.3678353720   -0.0341677672
 H   -5.0092355889   -6.0487295231    1.0239131976