18

 N   -0.0168191547   -1.1880447841    0.0057751126
 C   -0.0088359764   -0.0323300394    0.0182415092
 C   -0.0014499839    1.4340494591    0.0431721017
 C   -0.8362049253    1.9869756648    1.2240834667
 C   -0.5609976491    3.4807557383    1.3754317817
 O    0.7851616426    3.7138200455    1.7579746891
 C    1.7417233074    3.2025024030    0.8746244122
 C    2.3573633623    1.8696007998    1.2091785533
 C    1.4214996488    1.9927140735    0.0281590661
 H   -0.4896014055    1.7694293073   -0.8815466744
 H   -1.8986102355    1.8020206402    1.0394323021
 H   -0.5703398911    1.4778398543    2.1556435797
 H   -0.7998665488    4.0094234327    0.4378836240
 H   -1.1740833294    3.9108839163    2.1715433162
 H    2.3698101879    3.9783103629    0.4426715159
 H    3.4088866369    1.7018914010    1.0062115410
 H    1.9866097311    1.3904147154    2.1085068299
 H    1.8894195427    1.9551840294   -0.9502260268