27

 C    0.5035108468    1.2788798520   -0.0550291259
 C    0.1241490672   -0.1843686660    0.1901047131
 C   -1.3537461488   -0.5415792245   -0.1101063965
 C   -2.3114996808    0.2501039911    0.7839688718
 O   -1.6762902423   -0.1337057757   -1.4497924537
 C   -1.5218900470   -2.0708381646    0.0666066047
 C   -2.9238696287   -2.6971579828   -0.0785031729
 C   -3.4765038009   -2.6286848652   -1.5101913107
 C   -2.8883914838   -4.1539100355    0.4096497606
 H    1.5864840904    1.4141397668    0.0249178427
 H    0.1894196304    1.5949572827   -1.0533218900
 H    0.0365671148    1.9504433007    0.6715119657
 H    0.7545611058   -0.8280269818   -0.4401617611
 H    0.3536068782   -0.4636622258    1.2258615847
 H   -2.1603039542    1.3235343224    0.6510487858
 H   -3.3505421949    0.0308805920    0.5290626335
 H   -2.1521935302    0.0040065906    1.8382370658
 H   -1.1305758348   -0.6512669059   -2.0521845410
 H   -0.8431518869   -2.5674952557   -0.6450576315
 H   -1.1350751765   -2.3249666581    1.0624137416
 H   -3.6138322639   -2.1516834749    0.5783161379
 H   -2.8248359643   -3.1801534787   -2.2007794996
 H   -4.4697408880   -3.0876381827   -1.5641377391
 H   -3.5445167459   -1.5998270815   -1.8657683513
 H   -3.8782908678   -4.6167994126    0.3388198155
 H   -2.1992330992   -4.7543927288   -0.1968405125
 H   -2.5586551448   -4.2224771874    1.4519511226