19

 C    0.0313116286    1.4473089787    0.0314619873
 N    0.0509192362    0.0051358371   -0.0277922914
 C    0.0928621056   -0.7942546882   -1.1694479387
 C    0.0999478687   -2.0884322778   -0.7815743886
 C    0.1383824139   -3.3380986459   -1.5887847282
 N    0.0617155648   -2.0919857681    0.6172132508
 C    0.0532485175   -3.2378108167    1.4968916410
 C    0.0308414827   -0.7898832632    1.1073412822
 O   -0.0058274795   -0.4329617824    2.2751748418
 H    0.9298812125    1.8775766539   -0.4247276411
 H   -0.8508680523    1.8553320353   -0.4743956938
 H   -0.0015298069    1.7231209413    1.0868951703
 H    0.1151501083   -0.3702320834   -2.1590054594
 H    0.1620358074   -3.0910352935   -2.6527780288
 H    1.0239543170   -3.9460449529   -1.3660455888
 H   -0.7398986108   -3.9709025562   -1.4110555169
 H    0.9551385303   -3.8473587878    1.3737096700
 H    0.0208968592   -2.8498581491    2.5165722871
 H   -0.8244487432   -3.8707683110    1.3261651451