19

 C    0.0257674168    1.5009686464    0.0986926289
 C    1.4470289082    2.1267276042   -0.0010879482
 N    2.3528818095    1.5263546217   -1.0189950156
 C    1.5747662057    0.7649610440   -2.0643197006
 C    2.5854512783   -0.4134321791   -2.1363204278
 N    1.5746330796   -1.5015374478   -1.8243665072
 C    1.1127274181   -0.3200010970   -1.0253993493
 C   -0.0016149990   -0.0482477776   -0.0643957093
 C    2.5725369347    0.0831744873   -0.6756054132
 H   -0.4420895486    1.8028846328    1.0408632675
 H   -0.5891452373    1.9281555576   -0.7013884114
 H    1.3432170540    3.1949498151   -0.2203491654
 H    1.9669714327    2.0553499527    0.9627059623
 H    1.0136550904    1.2409145330   -2.8718806997
 H    3.4318055654   -0.5619685525   -2.8060390426
 H    0.9596415977   -1.6476110638   -2.6305447082
 H    0.1717753091   -0.5671149221    0.8851928492
 H   -0.9800674917   -0.3701949687   -0.4386305269
 H    3.1792422763   -0.2513692163    0.1670803876