14

 N    0.0149915363    1.4674570893    0.0712599891
 C   -0.0461167031    0.0060154934   -0.0219091578
 C   -1.4533005674   -0.4283139196    0.0667866977
 N   -2.5498655908   -0.7836331636    0.1315370231
 C    0.6105239422   -0.5904400268   -1.2428504835
 C    1.6070120890   -1.4983946019   -1.4169159426
 C    1.7574967354   -1.5492852206   -2.8296435131
 N    0.9310195694   -0.7424065007   -3.4462743723
 O    0.1950841743   -0.1296140961   -2.4349545609
 H    0.9888584987    1.7573816225    0.0653330494
 H   -0.4184178571    1.8769469452   -0.7517817702
 H    0.4695253191   -0.4082608170    0.8521123982
 H    2.1451616732   -2.0484980558   -0.6633080307
 H    2.4420364607   -2.1453616682   -3.4163609465