15

 O    1.8898555234    4.0987368371    0.0553052404
 C    1.0204005265    3.2562953996    0.0431264041
 N    1.2426328495    1.9100633506   -0.0496913018
 C    2.4774160245    1.2984834561   -0.1439619643
 C    3.7365544238    1.7545670436   -0.1732991162
 C    4.6772959364    0.5812115748   -0.2890034804
 N    3.7759642337   -0.5550304087   -0.3185021663
 C    2.4630548994   -0.1926910895   -0.2353126467
 O    1.4729676357   -0.9012002186   -0.2337723848
 H   -0.0587554116    3.4895379745    0.1069531598
 H    0.4621760161    1.2631734281   -0.0539491628
 H    4.0607968996    2.7809953689   -0.1247464139
 H    5.2891721695    0.6362450671   -1.2007406813
 H    5.3695507261    0.5267156801    0.5633502915
 H    4.0664436075   -1.5148419136   -0.3900871775