17

 O    0.0018822155    0.0674445226    0.0534654131
 C   -0.0148270680    1.2665100626    0.0310035791
 C   -1.2911830149    2.1501336995    0.0323211423
 C   -0.7127336932    3.5275485344   -0.0018506360
 C    0.6198202364    3.5457699099   -0.0204288877
 C    1.1146223873    4.9564067558   -0.0540881286
 O   -0.0773241475    5.7514028975   -0.0529565417
 C   -1.2466601337    4.9241184782   -0.0211642669
 C    1.2364364580    2.1846965929   -0.0029115198
 H   -1.9181870621    1.8965198924   -0.8322934997
 H   -1.8932573224    1.9297868768    0.9233898025
 H    1.7343573626    5.2163998169    0.8186256047
 H    1.7101432533    5.1826076921   -0.9526895778
 H   -1.8729624134    5.1336147110   -0.9027270576
 H   -1.8486997406    5.1674027665    0.8685875494
 H    1.8688953214    1.9812361280    0.8709597796
 H    1.8458136448    1.9479843929   -0.8847491148