14

 O   -0.0298114705    1.4666109653    0.1100191453
 C   -0.0971883010    0.1144851459   -0.1199831442
 C   -0.3305720979   -0.8730880983    0.9512237714
 C   -1.4735485041   -0.6395007646   -0.0484714319
 C   -2.5979362285    0.1826536714    0.3747338658
 O   -2.5260443019    1.1018019325    1.1825562771
 C   -3.9609284596   -0.0832593672   -0.2715103409
 O   -4.1620111360   -0.9494615363   -1.0808092239
 H   -0.7065141372    1.6907893666    0.7712385611
 H    0.5199342711   -0.1670108339   -0.9665475471
 H    0.1538471199   -1.8416453733    0.8991182461
 H   -0.5041736344   -0.4888451996    1.9515932567
 H   -1.6888159999   -1.4003047935   -0.7870279065
 H   -4.7461384201    0.6112105650    0.0934757509