21

 C    0.1208262345    1.6030986784    0.1068461578
 C    0.0435332777    0.0852749788   -0.0433314352
 O    0.8490161222   -0.5698166750    0.9365130961
 C   -1.3952858437   -0.4720340492    0.0039038362
 C   -2.2249500687   -0.1067610441   -1.2429027944
 C   -3.6998729133   -0.4769267437   -1.1213339256
 O   -4.3357916755   -0.0650814624   -2.3210763442
 C   -1.3165702521   -1.9852228712    0.1340689005
 O   -1.8993737745   -2.6379497539    0.9606972592
 H    1.1677430732    1.9176791905    0.1113618120
 H   -0.3906140618    2.1240597558   -0.7072140715
 H   -0.3371379334    1.9223909975    1.0511050547
 H    0.4983514795   -0.2059085458   -0.9987025798
 H    0.4953588579   -0.3525925239    1.8069814321
 H   -1.8982103894   -0.0982369232    0.9063920927
 H   -2.1601859990    0.9688784053   -1.4348023823
 H   -1.8087477246   -0.6055765379   -2.1277477424
 H   -3.8103728343   -1.5596094386   -0.9590232625
 H   -4.1348919100    0.0269890423   -0.2428846581
 H   -5.2594352207   -0.3289310653   -2.2778308761
 H   -0.6816866138   -2.4719566745   -0.6425460492