20

 C    0.0410277939    1.5642550707    0.0023823750
 C    0.0373750112    0.0222752397    0.0226393272
 C    0.8113228396   -0.5011068563    1.2495737105
 C   -1.4244965382   -0.5050125175    0.0523134200
 C   -2.1798091939   -0.0796528120    1.2239961626
 C   -2.7991436470    0.2740177187    2.1926395594
 C    0.6786928022   -0.5227583017   -1.2744495672
 N    1.9775844230   -0.1636446954   -1.4865739964
 O    0.0781692605   -1.2280290324   -2.0640983561
 H    1.0563628705    1.9722719860    0.0234637883
 H   -0.4557178235    1.9487685381   -0.8941683682
 H   -0.4917305468    1.9483083577    0.8767199814
 H    0.3067625961   -0.1885447992    2.1680021323
 H    0.8641908143   -1.5945473599    1.2461542848
 H    1.8354876322   -0.1166627062    1.2826709882
 H   -1.9349119949   -0.1785302384   -0.8595169340
 H   -1.4053331860   -1.5981936941   -0.0029355266
 H   -3.3610350446    0.5765994924    3.0411440482
 H    2.4978859841    0.4160573467   -0.8539373665
 H    2.4286075173   -0.5005821472   -2.3208362629