22

 C   -0.1120362980    1.4289322026    0.0107221783
 O   -0.0093866171    0.0244644209    0.0022533751
 C   -1.2560737651   -0.6207746055    0.0107452593
 C   -1.0395827872   -2.1449479894    0.0004817896
 C   -0.2905121801   -2.5638106375   -1.2757967535
 C   -0.2662497925   -2.5774139549    1.2576088495
 N   -2.3974995240   -2.7235385670    0.0103802766
 C   -2.6946852087   -4.0477284918    0.0060931014
 O   -1.8956909626   -4.9621377898   -0.0065306868
 H    0.9041706790    1.8292738846    0.0031324394
 H   -0.6499103667    1.8033785214   -0.8742940888
 H   -0.6328377839    1.7938695618    0.9098100506
 H   -1.8334743101   -0.3358354201    0.9092981880
 H   -1.8505693201   -0.3262563946   -0.8734579472
 H    0.6865039486   -2.0768933306   -1.3065386389
 H   -0.1593993396   -3.6463855015   -1.2947890648
 H   -0.8533845714   -2.2652920487   -2.1663173892
 H   -0.8119408344   -2.2885425450    2.1618983827
 H   -0.1348965075   -3.6601142242    1.2624586945
 H    0.7112177468   -2.0907382486    1.2748619915
 H   -3.1813344400   -2.0889117555    0.0211718578
 H   -3.7922569355   -4.2136529063    0.0155713550