18

 C   -0.0315718134    1.5305366009   -0.3109546657
 C   -0.1099850461    0.0156207556   -0.1946379139
 C   -0.1438690242   -0.6433092645    1.1593606466
 C   -1.3777715401   -0.6384880344    0.2903464811
 C    1.3602064946    2.0546010704   -0.1936617919
 N    2.1318440226    2.5147252805   -1.1286240976
 C    3.3194982635    2.8336038653   -0.4800837543
 C    3.1973524368    2.5431004448    0.8341874205
 O    1.9418591815    2.0407230471    1.0366055431
 H   -0.4186216265    1.8597273433   -1.2793347212
 H   -0.6548102468    1.9866870949    0.4676737820
 H    0.4375556509   -0.5107108536   -0.9713201239
 H    0.3918895059   -1.5765248922    1.2922742103
 H   -0.1343868570   -0.0005449154    2.0331347412
 H   -2.2006646455    0.0064730996    0.5816147013
 H   -1.6881264108   -1.5671442650   -0.1752692090
 H    4.1634822503    3.2474730529   -1.0084944854
 H    3.8313090641    2.6213178399    1.7003344368