19

 C   -0.0812927569    1.2807535843    0.0104746496
 O    0.1731479665   -0.1163652064   -0.0440380514
 C    0.8154297795   -0.6008372422   -1.2213123016
 C    2.2047761873   -0.0381039610   -1.4429985114
 C    0.6059007459   -2.1619041068   -1.1811025355
 O    0.4124800401   -2.7281917720    0.0783415713
 C   -0.6216836378   -2.0310760137   -2.1430733398
 C   -0.2035343519   -0.5804918136   -2.3978748261
 O   -0.4986235034    0.2561992526   -3.2042070582
 H    0.8457202370    1.8573292297    0.1166244715
 H   -0.6179465227    1.6295131263   -0.8795129643
 H   -0.7014839178    1.4462970630    0.8941441372
 H    2.8187980012   -0.1798055599   -0.5477789670
 H    2.6895814955   -0.5503787376   -2.2794279326
 H    2.1724857205    1.0277408016   -1.6871431022
 H    1.4373926167   -2.6837648701   -1.6635123196
 H    0.0267104459   -2.0304842730    0.6258519070
 H   -0.6729521933   -2.6861988501   -3.0155136620
 H   -1.5706053424   -2.0901701512   -1.5990844949