17

 C   -0.0090233363    1.5171430884   -0.0118982389
 C    1.4320775385    2.0409898377    0.0605936240
 O    2.1064045561    1.6665872752    1.2656219559
 C    1.9261185323    0.3540093417    1.5496642938
 C    0.9779131842   -0.4588096117    0.9828173396
 C   -0.0499956314   -0.0287991666   -0.0065395109
 N    1.1857698226   -1.6855205979    1.5931324952
 C    2.2185319375   -1.5297930954    2.4684137409
 N    2.6928253793   -0.2998372119    2.4664212661
 H   -0.5636194001    1.9011682981    0.8511592235
 H   -0.4861435164    1.9151655469   -0.9129597064
 H    2.0082803959    1.6674886410   -0.7995090317
 H    1.4516153331    3.1329573782    0.0402265178
 H   -1.0566010878   -0.3745213861    0.2614615266
 H    0.1537904931   -0.4207895763   -1.0134659240
 H    0.6728597985   -2.5335183556    1.4208603569
 H    2.5857029108   -2.3424098456    3.0765189216