15

 O    0.1850621510    1.3443114352    0.0530435650
 C   -0.0035985921   -0.0476490768    0.2221515435
 C   -1.3112961215   -0.5396491303   -0.4148928912
 C   -1.4567030340   -2.0348559809   -0.3104991546
 O   -1.7773895632   -2.5750525212    0.9754550683
 C   -2.7470035274   -2.7178621198   -0.0622625011
 C   -3.9752635457   -1.9664611074    0.0873639934
 N   -4.9658177492   -1.3796276645    0.1891795406
 H   -0.4845159534    1.8014992768    0.5720204517
 H    0.8532285440   -0.5255368074   -0.2660942547
 H    0.0206633188   -0.3394009185    1.2822982290
 H   -2.1656903612   -0.0542160844    0.0699219854
 H   -1.3240524939   -0.2483746578   -1.4716882599
 H   -0.7145629195   -2.6242448662   -0.8524536785
 H   -2.8891462626   -3.7330981566   -0.4282069469