17

 C    0.1069133883    1.4531680087   -0.2481924219
 C    0.0398866657   -0.0290188453   -0.0803545778
 O    0.5756572299   -0.8863184454   -1.1441352320
 C    0.0897894991   -1.8186223942   -0.1420518158
 C    0.5531581381   -0.9634448706    1.0723215927
 C   -0.8492171358   -1.0475585839    1.7383562423
 C   -1.2863974512    0.0347275114    2.5980203905
 C   -1.6525787004    0.9263650524    3.3183448134
 C   -1.1714848965   -0.9821084916    0.2187537258
 H    1.1469212031    1.7765533136   -0.3547811831
 H   -0.4438015990    1.7591825897   -1.1429688927
 H   -0.3301479708    1.9475108586    0.6230079400
 H    0.1901157751   -2.8881390292   -0.3213770816
 H    1.5362934496   -0.9529427355    1.5422881422
 H   -1.0665184621   -2.0174603090    2.1986207413
 H   -1.9767868161    1.7111852611    3.9559666967
 H   -2.1414125568   -0.9927493909   -0.2778956999