19

 C    0.0550934331    1.5434171426    0.3581280900
 C    1.3527451434    2.0746580655   -0.2676439560
 C    2.6453014786    1.6006851305    0.3724058830
 O    2.8219719270    1.8151857669    1.7738011974
 C    2.8317707884    0.4613342133    1.2978415682
 C    1.7283539963   -0.4583209016    1.8182732046
 C    0.7381132315   -0.9157563020    0.7614396325
 O   -0.6555303599   -0.7830406724    1.0773408726
 C   -0.1036839751    0.0662063662    0.0681345703
 H    0.0665944993    1.7125001313    1.4373962916
 H   -0.7998637539    2.0982477077   -0.0425754708
 H    1.3909254563    1.8022876941   -1.3312751816
 H    1.3566703076    3.1715138773   -0.2385863103
 H    3.5253491991    1.8792561878   -0.2141251010
 H    3.8301365742    0.0201478177    1.3040468520
 H    2.1868723062   -1.3297776868    2.2962516830
 H    1.1790626631    0.0730476614    2.5989684141
 H    0.9832369095   -1.8416314878    0.2408029659
 H   -0.4388423150   -0.1747113017   -0.9427020656