17

 C   -0.2920320941    1.4633511036    0.0646396713
 C    0.1172601752    0.0058688750   -0.0120274515
 O    1.3394421158   -0.1857096863   -0.7734031706
 C    1.9877508804   -0.8696650831    0.3202479690
 C    0.7702705300   -0.6497072761    1.2090496463
 C    0.7279415095   -0.2164952246    2.6418290888
 C    0.1691066131   -1.5616141309    2.2299784944
 H    0.4974447339    2.0664492813    0.5220878252
 H   -0.4876271765    1.8508495437   -0.9401768652
 H   -1.2084445046    1.5776831576    0.6547445219
 H   -0.6973030254   -0.5948363478   -0.4441138989
 H    2.2127682919   -1.9167342052    0.0745263187
 H    2.9146792738   -0.3676289299    0.6275868100
 H    1.6611097582   -0.1963296856    3.1964886811
 H    0.0277834948    0.5636764072    2.9231299604
 H   -0.9093581014   -1.6879622920    2.2304967575
 H    0.7214267953   -2.4542758370    2.5069503716