23

 C    0.5022421374    1.5422947363   -0.3109152199
 C   -0.0340653340    0.1623006937    0.0956049375
 C    0.1834445807   -0.8641790246   -1.0354966849
 C    1.5000178776   -1.5754170656   -0.7030509076
 O    2.0925046831   -2.3327640643   -1.4275299053
 C    1.9279188253   -1.1556134487    0.7043166393
 C    0.6893177264   -0.4827614893    1.3351189799
 C    1.0639970151    0.5241482503    2.4283685576
 C   -0.2279969526   -1.5601122602    1.9476817915
 H    1.5729139948    1.5151274222   -0.5454438736
 H   -0.0160643412    1.8957187299   -1.2082195544
 H    0.3510834085    2.2887718186    0.4730696454
 H   -1.1006611189    0.2698756938    0.3224481899
 H   -0.6056022145   -1.6244484057   -1.0661824099
 H    0.2288126374   -0.4248352339   -2.0360236704
 H    2.3186536356   -2.0078255625    1.2671342455
 H    2.7559789183   -0.4423507238    0.5955644660
 H    1.7661302019    1.2803768409    2.0667231908
 H    0.1772960359    1.0421426115    2.8118790124
 H    1.5363161830    0.0130037448    3.2743268513
 H    0.2748144204   -2.0740592731    2.7739264812
 H   -1.1460436054   -1.1109758829    2.3417054387
 H   -0.5180832748   -2.3220850174    1.2171661389