21

 C   -0.1443226477    1.5378218930   -0.0130737890
 C    0.0849277286    0.0310539642   -0.0472357023
 O    1.2089703313   -0.4372173863   -0.1347577195
 N   -1.0452644626   -0.7262770392    0.0266352491
 C   -1.0975164744   -2.2033935114    0.0135291362
 C   -0.3229201986   -2.7680568742    1.2183775860
 C   -2.5805956942   -2.5858721748    0.1174929448
 C   -0.5071702509   -2.7391546641   -1.3036478575
 H    0.4052132884    1.9552219102    0.8348131165
 H    0.2781034385    1.9756827843   -0.9213365638
 H   -1.1950216609    1.8292361759    0.0663926093
 H   -1.9254657663   -0.2434966804    0.0965293330
 H   -0.7533629997   -2.4053468595    2.1574415977
 H   -0.3724756668   -3.8616906178    1.2192441616
 H    0.7229370327   -2.4620651504    1.1724989464
 H   -3.1523542976   -2.1872026000   -0.7281134198
 H   -2.6907756790   -3.6734426336    0.1130756735
 H   -3.0227394429   -2.2075414625    1.0460784947
 H    0.5347602702   -2.4325481120   -1.4032751348
 H   -0.5581499489   -3.8325654737   -1.3222326556
 H   -1.0689013892   -2.3558474979   -2.1616769562