11

 O    0.0412770787   -0.0152647030    0.0024425547
 C   -0.0090927535    1.1879621964    0.0093809649
 N   -1.2103201218    1.9072608080    0.0295022156
 C   -1.1238432294    3.1794811842    0.0353681957
 O   -0.0177819673    3.9393919586    0.0248459940
 N    1.2365906622    3.3318592397    0.0048038365
 C    1.2345748291    2.0347663937   -0.0025030468
 C    2.5004042221    1.3930102850   -0.0219425406
 C    3.5553140941    0.8168445231   -0.0384571611
 H   -2.0046544524    3.8185782945    0.0506964540
 H    4.4878055782    0.3068572398   -0.0534011769