17

 O    0.0736840740    1.3943892453    0.0638015913
 C    0.0229285147   -0.0044103324    0.0180620899
 C    0.1383959054   -0.6528717621   -1.4388954472
 C   -1.2932469458   -1.2957954610   -1.3190172766
 N   -1.2861699001   -2.7282428514   -0.7584232799
 C   -0.8527890911   -2.0372043139    0.4547515418
 N    0.2903662769   -2.1511744595    0.9944273690
 C    0.7729263153   -0.7527633551    1.1597578795
 C   -1.3710244986   -0.6502507853    0.0832872794
 H    0.9885921739    1.6689936427   -0.0633189455
 H    0.1313422555    0.1507964036   -2.1785361363
 H    0.9622583409   -1.3397336415   -1.6382182689
 H   -2.0041886307   -1.1459274080   -2.1316781984
 H   -2.2677064210   -3.0071663104   -0.7036296508
 H    1.8627688482   -0.7516745140    1.0440719050
 H    0.5356913344   -0.3095945162    2.1365593417
 H   -2.2496324617   -0.2096499109    0.5511994859