14

 O   -0.0064254414    1.3733485072   -0.0394765922
 C    0.0323514833   -0.0181815825    0.0055706212
 C    1.0086219980   -0.5464748780   -0.9572375201
 N    1.8213281059   -0.8788949284   -1.7093482850
 C   -0.0400400277   -0.6733959437    1.4610246131
 O   -1.4307968788   -0.2443877547    1.4841458509
 C   -1.4175931463   -0.6348609374    0.0810232653
 C   -1.0991976772   -2.1301700095    0.1564682749
 C   -0.1546717441   -2.1543069988    1.1041174149
 H    0.8878959896    1.7126284370   -0.1555705687
 H    0.5689151894   -0.3228360681    2.2918160890
 H   -2.2369550085   -0.2451547992   -0.5188444746
 H   -1.5181754406   -2.9186381858   -0.4496365878
 H    0.4320219885   -2.9699123881    1.4986099392