19

 C    0.9518531876    1.1115242484   -0.0479634103
 C   -0.0108034487   -0.0197227939    0.1755808113
 N   -0.6053251016   -0.3070481373    1.2699818754
 O   -0.2861439097    0.5774040770    2.3091594767
 C   -0.3607558241   -0.8734235437   -1.0046588467
 N    0.7513257734   -1.5788538597   -1.6723450532
 C   -0.3234208196   -2.3570969959   -1.0184192480
 C    0.1307449378   -3.2127841769    0.1396409668
 O    0.7878622338   -4.3804163649   -0.3316225684
 H    1.8038109399    0.7473105694   -0.6288505967
 H    0.4746506512    1.9089573794   -0.6317441241
 H    1.2944507655    1.5344541012    0.8951246781
 H   -0.7703222363    0.1981088781    3.0500007837
 H   -1.1006793282   -0.4125210969   -1.6607523866
 H    0.6220245327   -1.5611360703   -2.6801366025
 H   -1.0390805412   -2.8503501039   -1.6744861861
 H    0.7741842869   -2.6269164523    0.8060371532
 H   -0.7318614405   -3.5535967437    0.7201993812
 H    1.5480102110   -4.0741746941   -0.8392558639