17

 O    0.0334436317    1.3138789282   -0.4000177575
 C   -0.0634171600    0.0262189245    0.1834447201
 C   -1.4457804628   -0.5424202726    0.0788372918
 O   -2.4119581727    0.2039486378    0.7810428830
 C   -3.5777960869   -0.5169065521    0.5012519384
 C   -3.5431661415   -1.1444933126   -0.8782083584
 C   -3.3043235238   -2.0020854777    0.3639725837
 C   -1.7921820233   -2.0197477883    0.0614603694
 C   -2.0324548105   -1.1579122338   -1.1782859197
 H   -0.6792620660    1.8401490232   -0.0207898354
 H    0.6397475575   -0.6187813490   -0.3523926121
 H    0.2387021134    0.0427825938    1.2423009047
 H   -4.4762641523   -0.1171199862    0.9509408495
 H   -4.3575791572   -1.1389887669   -1.5885500415
 H   -3.8962355572   -2.7910091541    0.8057435519
 H   -1.0944338489   -2.8262857021    0.2399000594
 H   -1.5485066795   -1.1544966021   -2.1446245174