23

 C   -0.1960302165    1.2847770937   -0.3293208627
 C    0.1701772181   -0.1484009300   -0.0052913642
 C    1.6097581744   -0.6037150505    0.0669114420
 C    0.7637418003   -0.5807470947    1.3203374415
 C    1.0757745518    0.4508218527    2.4117119607
 O    1.8945643921    1.5435634827    2.0215588034
 C    0.2644579249   -1.8646981937    1.9314197288
 C    0.3108495913   -3.1994852046    1.2363866628
 C    1.2150694038   -2.9352446874    2.4153064440
 H    0.5075234921    1.9865810474    0.1220749516
 H   -0.1990635913    1.4468720884   -1.4133304204
 H   -1.1993376754    1.5278583574    0.0399318941
 H   -0.5079177018   -0.8841643599   -0.4327318975
 H    1.8898523776   -1.5527531857   -0.3773805116
 H    2.3660003514    0.1678724250   -0.0346415217
 H    0.1422509111    0.9007441365    2.7700852607
 H    1.5242577554   -0.0791868758    3.2653909817
 H    2.7801936445    1.2015858272    1.8657904938
 H   -0.6123039557   -1.7157351830    2.5601742023
 H   -0.5314482968   -3.8690064667    1.3721622009
 H    0.7664446629   -3.2660936130    0.2545709610
 H    2.2708051945   -2.7948249662    2.2069572498
 H    1.0079009311   -3.4368672598    3.3541522889