17

 C    0.3967795761    0.9434526674    0.8494231744
 C   -0.2682460277   -0.0170391008   -0.1346857609
 O   -1.5180514670    0.4870112701   -0.6181124447
 C    0.6191188583   -0.3844776919   -1.2826603646
 C    1.9317363437   -0.1764962902   -1.5303167019
 N    2.2264761332   -0.7677999109   -2.7558313558
 C    1.0936786735   -1.3439077186   -3.3256923195
 O    0.9917237355   -1.9065573970   -4.3968343948
 N    0.1171322620   -1.1089211792   -2.3660060562
 H    1.2849764216    0.4923068095    1.3023943320
 H    0.7013666948    1.8675148281    0.3459966800
 H   -0.3081329014    1.1963074267    1.6444655524
 H   -0.5578113161   -0.9297804953    0.4033331274
 H   -1.3298180387    1.2874389252   -1.1227410734
 H    2.6827953332    0.3119537705   -0.9344988950
 H    3.1130593390   -0.7672250574   -3.2273885773
 H   -0.8562403501   -1.3096141262   -2.5172924622