15

 O    0.0370458404    1.3304097015    0.0948452478
 N    0.0221340496   -0.0455217046    0.0079816306
 C   -1.1367842414   -0.5887742710    0.0236484920
 C   -1.1653135823   -2.0992623528   -0.0757412084
 N   -2.1476232995   -2.6220739099   -1.0241572364
 C   -3.1837413016   -1.9102276864   -1.1920820726
 N   -3.4393447393   -0.6825229708   -0.5931248960
 C   -2.4665754865    0.0847239652    0.0637777217
 N   -2.6731831759    1.2116455771    0.6205789784
 H    0.9785571820    1.5257848263    0.0182777945
 H   -0.1672634196   -2.4524023549   -0.3431705184
 H   -1.3990383233   -2.5288089338    0.9119583650
 H   -3.9838879607   -2.2553474769   -1.8461074981
 H   -4.3402196936   -0.2531110253   -0.7432536634
 H   -3.6540419483    1.4922785061    0.5366087832