21

 C    0.3356304109    1.4580373072    0.3200591793
 C   -0.1935421448    0.0857315796   -0.1191822532
 C    0.5126365461   -0.4643197081   -1.3433668790
 C    0.2928079207    0.2845535697   -2.6511080026
 O    0.8679223595   -0.3501775610   -3.7720653209
 C    0.4490027990   -1.6957139861   -3.9021504663
 C    1.0197259075   -2.5729941260   -2.7828802422
 C    0.8790604109   -1.8910375372   -1.4336258477
 O    1.8629753792   -0.8911651577   -1.1289572881
 H    1.4160929802    1.4137025101    0.4856051211
 H    0.1390218045    2.2324139869   -0.4280370613
 H   -0.1392315339    1.7749162547    1.2531109447
 H   -0.0628953479   -0.6310669537    0.6987162034
 H   -1.2710798574    0.1426639855   -0.3200715843
 H   -0.7947739436    0.4168562331   -2.7959396107
 H    0.7489557014    1.2778924762   -2.5994849353
 H   -0.6535542433   -1.7481792931   -3.8938458719
 H    0.7923648964   -2.0332232456   -4.8839489498
 H    0.5012904879   -3.5383831464   -2.7708337395
 H    2.0818970263   -2.7728595104   -2.9607403147
 H    0.6391784504   -2.5355340278   -0.5869837809