21

 C   -0.1378551233    1.3015986366    0.0893807933
 O    0.1778752286   -0.0746177170   -0.0282256495
 C    0.7550219656   -0.5329411608   -1.2702100481
 C    0.0512719895    0.0323376077   -2.5067013963
 C    2.2483569663   -0.1479737616   -1.2619481857
 O    2.8898077720   -0.5837013172   -0.0831421506
 C    0.6172806941   -2.0685060963   -1.2039307957
 C   -0.8099758822   -2.5466864686   -1.0634680014
 O   -1.3255521660   -3.3641230119   -1.7848772252
 H    0.7214761001    1.9552248560   -0.1127704065
 H   -0.9628703273    1.5952566771   -0.5709144001
 H   -0.4514656361    1.4544863381    1.1249246035
 H    0.2012686780    1.1109275879   -2.6056635738
 H    0.4518740249   -0.4431312818   -3.4066333667
 H   -1.0241375746   -0.1662816776   -2.4763753582
 H    2.7604906521   -0.6184165584   -2.1075416273
 H    2.3423062292    0.9429773089   -1.3901640060
 H    2.2865533957   -0.3607171096    0.6377847472
 H    1.0554979789   -2.5294974142   -2.0930636942
 H    1.1829775631   -2.4087536893   -0.3277418237
 H   -1.3689976087   -2.0886119279   -0.2207494648