17

 C   -0.5622034147    1.4103237437    0.0058233034
 C    0.2197739108    0.1001987275   -0.0102194938
 N    1.0506242366   -0.0015619953   -1.2084900902
 C    1.9492293371   -0.9005189144   -1.2145172776
 N    2.7345981807   -1.1706486152   -2.3065650966
 O    2.2842994310   -1.7161939453   -0.1678860124
 C    2.1952338308   -1.0924592321    1.1128898541
 C    1.0486302255   -0.0932566608    1.2536969761
 O    0.8702735335    0.4813765047    2.2994812699
 H    0.1248902788    2.2608777023    0.0038652491
 H   -1.1900298189    1.4741239352   -0.8857985776
 H   -1.1879696327    1.4750769545    0.8982615567
 H   -0.5018209351   -0.7381890384   -0.0058742611
 H    2.3377471054   -0.9047719362   -3.1934773376
 H    3.2244676261   -2.0501694254   -2.2858937593
 H    2.0688742545   -1.8920087286    1.8475778640
 H    3.1337001605   -0.5697726462    1.3389188128