19

 C   -0.0011461929    1.5204260950   -0.0209172608
 C    0.0662300464   -0.0171553657   -0.0129638345
 C   -1.3417873750   -0.5971283366   -0.0112883254
 O   -1.7860329375   -1.3061196464    0.8540210550
 C    0.8217552089   -0.5401202183   -1.2122733909
 C    2.2370373725   -0.1749841284   -1.7416983220
 C    1.4983763848   -1.0278853226   -2.7987393413
 C    1.0360233674   -2.0022878287   -1.6945174831
 O    0.2791794262   -0.2179912553   -2.5664034911
 H    1.0056186703    1.9461372059    0.0098105977
 H   -0.4903698461    1.8796943926   -0.9307149203
 H   -0.5548776225    1.8915523552    0.8459486238
 H    0.5648156787   -0.3795678389    0.8928237712
 H   -1.9535291320   -0.3026220952   -0.8921030003
 H    2.3792289496    0.8719735452   -2.0111600887
 H    3.1025608680   -0.6116560235   -1.2370759309
 H    1.7712493265   -1.2318667923   -3.8332934706
 H    1.7916784657   -2.6045190827   -1.1842081130
 H    0.1244886212   -2.5585199293   -1.9163630649