17

 C   -0.2461299680    1.0984476909    1.2218511693
 C   -0.1355546216    0.3581544085   -0.1330446127
 C    1.1345920953   -0.4987817976   -0.1218339375
 O    2.1343653917   -0.2316229037   -0.7306566476
 C   -1.2935253233   -0.4927543845   -0.3860740437
 C   -2.2234339392   -1.2324210188   -0.5778501147
 C   -3.3655509821   -2.1151433311   -0.8250461690
 C   -4.1030229913   -2.4740139555    0.3879072164
 C   -4.7149224525   -2.7755003272    1.3756093995
 H    0.6155780296    1.7564371734    1.3637000679
 H   -1.1585315736    1.6985209637    1.2465372788
 H   -0.2871163189    0.3859550221    2.0509595160
 H   -0.0138160526    1.0909121087   -0.9384017815
 H    1.0619280024   -1.3986964095    0.5291408751
 H   -4.0500345593   -1.6341541821   -1.5374243762
 H   -3.0189921383   -3.0310841019   -1.3233493465
 H   -5.2544428581   -3.0403863654    2.2509869365