16

 C    0.0016124542    1.5143246274   -0.0273008426
 C    0.1564989048    0.0050414063    0.0383646237
 O    0.6031141879   -0.5677331257    1.0144529733
 N   -0.2650171078   -0.6675706312   -1.0785382179
 C   -0.2232771799   -2.1252985664   -1.1466704262
 C   -1.5698564986   -2.7016592044   -1.2626130608
 C   -2.6751696197   -3.1604111916   -1.3584817597
 C    0.6495469515   -2.5911703622   -2.2325775242
 C    1.3637805144   -2.9607882048   -3.1239386954
 H   -0.1177956979    1.8943599203   -1.0451035365
 H   -0.8756917740    1.8053868041    0.5589393167
 H    0.8769899796    1.9745323704    0.4339661268
 H   -0.6383030069   -0.1685424491   -1.8690818537
 H    0.2124693437   -2.4210532237   -0.1820418564
 H   -3.6498430271   -3.5750940381   -1.4374355052
 H    1.9988332960   -3.2961726013   -3.9064976517