19

 O    0.0442882138    1.3494706230    0.4260868731
 C    0.0571018465   -0.0025776239   -0.0037868015
 C   -1.3535240300   -0.5543421169    0.1508578575
 C   -1.4638801442   -2.0155794118   -0.2975162451
 C   -2.8643633846   -2.5783652117   -0.1218521120
 C   -3.0572370724   -3.9707862100    0.3349068831
 O   -3.2277356334   -2.8855311674    1.2397126588
 C   -3.9055007304   -1.9593848846   -0.9118825222
 C   -4.7458570728   -1.4328037609   -1.5911401759
 H    0.9355029853    1.7005324839    0.3428199624
 H    0.3757942244   -0.0834575881   -1.0568523246
 H    0.7613650206   -0.6049140927    0.5942078478
 H   -1.6549211907   -0.4691174415    1.2004833944
 H   -2.0408576509    0.0695676991   -0.4305424391
 H   -1.1782595891   -2.1126342749   -1.3526637425
 H   -0.7770565030   -2.6409351768    0.2842110038
 H   -3.9668234031   -4.5015489734    0.0601176531
 H   -2.1793899445   -4.5941473110    0.5030307905
 H   -5.4971195217   -0.9684035005   -2.1811706115