13

 C   -0.0253907602    1.5445545190   -0.0133728532
 C   -0.0048470883    0.0348217942   -0.0172992348
 C    0.7280849882   -0.7082033445   -1.0939174215
 N    1.2438728033   -0.7147012300    0.2711167197
 C   -1.2067937421   -0.6460589203    0.5530394053
 O   -2.2281225286   -0.0806630977    0.8526378330
 H    0.8592177225    1.9502169480   -0.5135591477
 H   -0.9168683899    1.9161177898   -0.5256384197
 H   -0.0551280799    1.9294975103    1.0107556770
 H    0.3589461314   -1.6661724768   -1.4510717335
 H    1.2159551801   -0.0990464132   -1.8505302342
 H    2.0099949338   -0.0519330266    0.3646218266
 H   -1.0766248403   -1.7436149522    0.6796973829