19

 C   -0.1121191826    1.3956928189    0.0446233915
 O    0.0407871080   -0.0083391196   -0.0017742482
 C    0.6937117481   -0.5495852494   -1.1536656430
 C    2.2341900183   -0.2638659269   -1.1128767950
 C    2.8134646617   -1.5141539349   -0.5036943029
 C    1.9236221120   -2.5002285602   -0.4333543294
 C    0.5795093266   -2.0963678938   -0.9778250192
 C    0.0668886353   -0.0804599047   -2.3948594596
 C   -0.4441188434    0.3022045077   -3.4140265107
 H    0.8501174065    1.9273794871    0.0577929547
 H   -0.7041064334    1.7692305486   -0.8003315264
 H   -0.6384325221    1.6133655834    0.9769530192
 H    2.6289073182   -0.0856467912   -2.1204734366
 H    2.4451245255    0.6385139924   -0.5304094366
 H    3.8490244682   -1.5769769605   -0.1888140946
 H    2.1178165983   -3.4974691100   -0.0551618913
 H   -0.2551026479   -2.3105211548   -0.3035694279
 H    0.3641987206   -2.5892061568   -1.9329481602
 H   -0.8956487178    0.6349411646   -4.3159972838