17

 O    0.1237845023    1.2322647836   -0.5216936239
 C    0.0889412429   -0.0993753438   -0.0737368579
 C    0.1817998883   -0.3140277524    1.4670457043
 N   -1.2627369622   -0.6965985523    1.5474336632
 C   -2.1664977556    0.4987492776    1.6312248071
 C   -2.5571320721    0.3334620594    0.1310845327
 C   -2.6970217813    1.5002993878   -0.7223896539
 N   -2.8831471846    2.4267238256   -1.3880810843
 C   -1.3591521148   -0.6456631153    0.0338664284
 H    1.0357345373    1.5400225534   -0.5190800098
 H    0.7540644354   -0.7410851633   -0.6669034215
 H    0.8251426967   -1.1467838466    1.7677896177
 H    0.4493488247    0.5761634564    2.0454840652
 H   -2.9837741449    0.3804126675    2.3462498078
 H   -1.6390157857    1.4356659053    1.8331133675
 H   -3.4797797238   -0.2482899207    0.0478806904
 H   -1.5463071325   -1.5820024623   -0.4966638732