21

 C   -0.1227403305    1.6258462484    0.2266282877
 C    0.0160039032    0.1066423380    0.0564127679
 C    0.7732484162   -0.5138172367    1.2379109318
 C   -1.3450322124   -0.5945370296   -0.1198744191
 C   -2.1381868912   -0.1780252938   -1.3528623110
 C   -3.6279577292   -0.3117584936   -1.3526878621
 N   -3.0124729202    1.0164707279   -1.3298198550
 C   -1.4425425560   -0.3706908673   -2.6121549719
 N   -0.8694840365   -0.5608007296   -3.5981146201
 H    0.8603029163    2.0916052693    0.3467705744
 H   -0.6055544302    2.0926319690   -0.6364714276
 H   -0.7107402951    1.8689166450    1.1212310668
 H    0.6000787306   -0.0796589682   -0.8545992044
 H    0.2280075888   -0.3650670727    2.1780170155
 H    0.9164192343   -1.5909041217    1.1020079690
 H    1.7607355610   -0.0564301688    1.3529203186
 H   -1.1845836540   -1.6788433685   -0.1657155348
 H   -1.9754783668   -0.4100118169    0.7609347057
 H   -4.1466961737   -0.5605031630   -2.2728377042
 H   -4.0783346000   -0.7065003308   -0.4455571954
 H   -3.0200456548    1.3974931235   -0.3866059117