19

 O   -0.3077372629    1.4771281412    0.6799098334
 C   -0.0612574180    0.1829706541    0.1361403079
 C    0.7491085141   -0.6909250662    1.1059373611
 C   -0.2739253543   -1.0295732443    2.2001265127
 C   -1.6123118351   -1.2317604908    1.4448783002
 O   -2.7263871063   -0.6438041960    2.1041670580
 C   -1.4173099682   -0.5541987473    0.0506708724
 C   -2.5652851014    0.3496219551   -0.3730136901
 O   -3.1522726744    0.2144309555   -1.4175503705
 H    0.5359253309    1.9322598305    0.7631398260
 H    0.4066473659    0.2674824369   -0.8537036329
 H    1.0877562878   -1.5958101697    0.5867118890
 H    1.6405264195   -0.1783750480    1.4832917391
 H    0.0091105214   -1.8941851648    2.8067824745
 H   -0.4017621726   -0.1684581641    2.8622989754
 H   -1.8052521252   -2.3017589718    1.2856772487
 H   -2.8762808853   -1.1224278917    2.9248387533
 H   -1.3333055535   -1.3274108567   -0.7171169896
 H   -2.8186687722    1.1543848981    0.3372105114