18

 C   -0.3460256109    1.5126632348   -0.0018201705
 C    0.0000700180    0.0403351563    0.0799789949
 O    0.7076704987   -0.3440765721   -1.1355476048
 C    1.6861106054   -1.2227959357   -0.8620034402
 O    2.4717875341   -1.6307573258   -1.6718478514
 C    1.6424428777   -1.5985523154    0.6230607155
 N    2.9908219728   -1.8012346998    1.1250716914
 C    0.9397376672   -0.3676483106    1.2322274365
 O    1.8887922892    0.6333403731    1.4884819782
 H    0.5663449649    2.1102266533   -0.0182733398
 H   -0.9326791237    1.7151325222   -0.9012530152
 H   -0.9371187577    1.8036042281    0.8720073094
 H   -0.9106001960   -0.5710621212    0.1264610924
 H    0.9923640054   -2.4822393576    0.7130756132
 H    3.0273341771   -2.5252975971    1.8322057749
 H    3.5871106074   -2.0802796613    0.3498422275
 H    0.3573766451   -0.6072183708    2.1340639646
 H    2.7275991553    0.1514001995    1.6078854932