18

 C    0.0949343826    1.2644337259   -0.1392561115
 N   -0.1700128441   -0.1393619293    0.0976494145
 C    0.5754823582   -0.7409589941    0.9062543001
 O    0.3510005954   -2.0520097104    1.1847682352
 C    1.2615640579   -2.7091951696    2.0451404399
 C    0.6530884551   -4.0846461303    2.3302777551
 O    0.5376698106   -4.8401359624    1.1461554469
 C    2.6467204939   -2.8589060117    1.4192776747
 O    2.9974479928   -2.3101486290    0.4112620344
 H    0.9401972627    1.6661389630    0.4426151913
 H    0.3050201114    1.4216824460   -1.2029675000
 H   -0.7989131196    1.8515404783    0.0998143660
 H    1.4138166690   -0.2960050717    1.4591095573
 H    1.3841620099   -2.1619673242    2.9962562489
 H    1.3069580974   -4.6438830892    3.0074063581
 H   -0.3144597509   -3.9413778156    2.8320488736
 H    0.0286347872   -4.3076133957    0.5227336689
 H    3.3284945705   -3.5188244101    2.0014601564