18

 C   -0.0268117879    1.5730209669    0.0071042644
 C   -0.0048517340    0.0487655127    0.0027332883
 O   -1.3583570043   -0.3853946280    0.0639021632
 C    0.6818583668   -0.4944675380   -1.2616982067
 N    1.0728099990   -1.8856348813   -1.0698354458
 C    0.9914436075   -2.6316230393    0.0726460545
 O    1.1787175827   -3.8202166610    0.1190533437
 O    0.6491915843   -1.9456757803    1.2088061273
 C    0.7642288917   -0.5165547557    1.1960983363
 H    0.9850655580    1.9882796810    0.0080305154
 H   -0.5537320305    1.9437398184   -0.8769128890
 H   -0.5593069664    1.9328085349    0.8910893541
 H   -1.3656151233   -1.2848602806    0.4129325936
 H   -0.0212913645   -0.4152081341   -2.0974359424
 H    1.5638265377    0.1152558452   -1.4992983438
 H    1.3010056755   -2.4393621464   -1.8799961819
 H    1.8213026946   -0.2245031777    1.1626607118
 H    0.3299356031   -0.1801913166    2.1400274671