19

 C   -0.2394916722    1.4365920683   -0.0161941501
 N    0.0317513898    0.0124349942    0.0355818408
 C    0.5971475827   -0.5719852180   -1.1808605636
 C    1.2210554827   -1.9233254716   -0.7388584934
 O    2.6198304830   -1.9828079329   -0.9707003870
 C    1.0125279610   -1.9570964371    0.7860943237
 C    0.8172342322   -0.4764515010    1.1613992301
 C    2.1054552770    0.2423934258    1.3424825615
 N    3.0684840716    0.8697414806    1.4691579813
 H    0.6682252202    2.0482233467   -0.1548591132
 H   -0.9226733185    1.6418583667   -0.8460541022
 H   -0.7295542760    1.7543952502    0.9096072803
 H   -0.1892960417   -0.6843790581   -1.9357454578
 H    1.3973726822    0.0533512820   -1.6146925424
 H    0.7187541730   -2.7704512390   -1.2245043963
 H    2.7849451813   -1.8091695323   -1.9029248394
 H    0.0957630954   -2.4942613293    1.0375737845
 H    1.8584058658   -2.4321543577    1.2835191941
 H    0.2514325303   -0.3565167075    2.0918711391