20

 O   -0.2612879759    1.1778706240   -1.0347256562
 C   -0.1234402011    0.1767102238   -0.0375539692
 C   -1.4013040729   -0.6586108763   -0.1483669061
 C   -1.4832267467   -1.8960487088    0.7533962156
 C   -0.2810389772   -2.8501299561    0.6275359237
 O    0.2780659281   -2.8920432832   -0.6888982966
 C    1.0407881066   -1.8455690042   -1.1351859030
 N    1.6040579366   -1.8865134148   -2.2690957546
 C    1.1825321701   -0.6448906668   -0.2322406830
 H    0.5327476486    1.7212572540   -1.0346055915
 H   -0.0753991075    0.6430949817    0.9605509389
 H   -2.2542248483   -0.0032335003    0.0515917969
 H   -1.4894121163   -0.9661543623   -1.1957757303
 H   -1.5766428832   -1.6063626312    1.8073998850
 H   -2.4025447174   -2.4332498495    0.4981492535
 H    0.4983919138   -2.5988984486    1.3544669553
 H   -0.5854878679   -3.8794481380    0.8313548671
 H    1.3937124352   -2.7751667739   -2.7297869234
 H    1.9478684713   -0.0054495233   -0.6765664863
 H    1.5613078541   -0.9590259063    0.7461112644