20

 C    1.8597685401   -3.8885557367    1.5991058491
 C    1.0368309432   -2.8044532006    0.9352838047
 N    0.0850301557   -1.9486039457    1.6552745553
 C   -0.0951662886   -2.0829603211    3.0914246663
 C    1.2933180476   -1.3329055833    1.0857614985
 C    2.4140117923   -0.8182618927    1.9719353584
 C    1.0062491997   -0.4234500334   -0.0960510655
 H    2.3128398671   -3.5812637847    2.5428587206
 H    1.2413998919   -4.7709757172    1.7994130603
 H    2.6691103391   -4.2022323375    0.9308227722
 H    0.6453517593   -3.1249408504   -0.0321423944
 H    0.8034275512   -2.3320817396    3.6736738250
 H   -0.4963225980   -1.1432354053    3.4855481589
 H   -0.8392861324   -2.8643671982    3.2797699302
 H    3.3318609049   -0.7011157447    1.3852802533
 H    2.1583375298    0.1689061112    2.3748963226
 H    2.6443488866   -1.4699836121    2.8153191228
 H    0.7372422519    0.5836400835    0.2443008455
 H    1.8840403906   -0.3326781724   -0.7466336780
 H    0.1722698983   -0.8119983291   -0.6852348560