20

 C    0.2359247050    1.3979704153    0.3116426532
 C   -0.0249866720   -0.0910130828    0.1303885532
 C   -1.5282133639   -0.3771194638    0.0771291720
 C    0.6705003131   -0.8642889794   -1.0926086022
 C    0.9086035027   -2.0627143543   -0.2728562063
 N    2.0497862599   -1.5203364761   -0.9803736660
 C    3.0000831190   -1.1295316670    0.1011566403
 C    2.0860855752   -0.7010474815    1.2443581098
 C    0.8365994665   -1.1006139480    0.9367330688
 H    1.2978304367    1.6411515797    0.2253437019
 H   -0.3083503067    1.9695853806   -0.4484899056
 H   -0.1127161332    1.7434887044    1.2913814871
 H   -1.9974424153    0.1466916995   -0.7636734561
 H   -1.7336390487   -1.4455382757   -0.0281130225
 H   -2.0103094141   -0.0284042815    0.9963935906
 H    0.3012185145   -0.8103517685   -2.1128777668
 H    0.5707011020   -3.0878075790   -0.3661265631
 H    3.6624542401   -1.9897567384    0.2639336187
 H    3.6279365492   -0.2790508187   -0.1903354012
 H    2.3022587901    0.2039143953    1.8033395941