18

 C   -0.2938410277    1.5695962896    0.2781588405
 C    0.0016911789    0.1255289705   -0.0006411193
 C   -1.0421407448   -0.9803015070   -0.1810244293
 O   -0.2014546756   -1.9580854845    0.4942758609
 C    0.7824052869   -0.9630710152    0.7403595142
 C    1.3018722522   -0.3943832335   -0.5506588400
 O    1.3172271099   -1.1186045674   -1.7504192408
 C    1.9208099440   -2.3321884677   -1.7262990835
 N    2.0310322333   -2.9896850466   -2.7959617130
 H    0.6096019457    2.1074288878    0.5815543029
 H   -0.6895617196    2.0682822783   -0.6143543845
 H   -1.0327792671    1.6772794159    1.0793525887
 H   -1.9564154511   -0.8067879775    0.3960120475
 H   -1.2830807378   -1.2772405227   -1.2059508642
 H    1.3222278987   -0.9980198239    1.6810303758
 H    2.1377598714    0.2959731520   -0.4458053011
 H    2.2635357925   -2.6252364891   -0.7277382467
 H    2.4905313801   -3.8783302990   -2.6079269981