16

 N   -0.0573027760    1.3551981216    0.0094021758
 C    0.0761966487   -0.0018088249    0.0011001057
 O    1.1597313329   -0.5531038488   -0.0120972781
 C   -1.2454857362   -0.7701562969    0.0096851034
 C   -1.0086641007   -2.2901324018   -0.0010405315
 C   -2.2517985694   -3.0439508876    0.0070341552
 C   -3.2961085540   -3.6561607207    0.0137191341
 C   -4.4691181122   -4.3459524864    0.0214879623
 C   -5.5110323085   -4.9567075833    0.0284086939
 H    0.7766155698    1.9188299854    0.0045051221
 H   -0.9523486424    1.8111596648    0.0203713317
 H   -1.8267325391   -0.4838767538    0.8938490699
 H   -1.8438619630   -0.4741386624   -0.8597193700
 H   -0.4101573634   -2.5544863140   -0.8799808535
 H   -0.3930007169   -2.5640957186    0.8629766522
 H   -6.4257311994   -5.4952688028    0.0344444768