18

 C    0.0864005976    1.5599395515    0.0116691293
 C    0.0236413844    0.0294776288    0.0018407188
 C    0.6948841251   -0.6177047260   -1.2195499515
 N    2.1301597973   -0.3161853555   -1.3785628988
 C    1.7189420038   -1.5976683440   -0.7675820002
 C    1.7197628173   -1.6074364812    0.7483964256
 N    2.1316505193   -0.3339292045    1.3753946849
 C    0.6962006793   -0.6333865135    1.2140627698
 H    1.1295931525    1.8821478265    0.0131822682
 H   -0.4080731556    1.9807012547   -0.8701967731
 H   -0.4071174182    1.9692978404    0.8994180040
 H   -1.0257052325   -0.2947745175    0.0003184492
 H    0.0981573178   -0.7776475070   -2.1134337393
 H    2.3966581779   -0.4849681524   -2.3462003076
 H    1.9109407488   -2.5251623334   -1.2964815153
 H    1.9123296761   -2.5416677776    1.2650909038
 H    2.3991925015   -0.5151673330    2.3404882960
 H    0.1004411377   -0.8048381863    2.1064570462