16

 C   -0.0331220279    1.5530833390    0.0404980370
 C   -0.0389138099    0.0412088266    0.0726490578
 C   -1.3549972408   -0.6968479237   -0.1140432507
 C   -1.2414159905   -1.9430843751    0.3512410221
 C    0.1177719700   -2.1163695663    0.9503659658
 C    0.7046336698   -0.7910208903    1.1622881832
 N    1.3431361945   -1.7246827094    0.1097760585
 C    0.9437098117   -0.7252989421   -0.8550293871
 O    1.4228315150   -0.4917467440   -1.9213202017
 H    0.9776471692    1.9483229311    0.1770862673
 H   -0.3985476388    1.9106109338   -0.9267111237
 H   -0.6757552323    1.9688057672    0.8229392380
 H   -2.1774525682   -0.2807547929   -0.6819839346
 H   -1.9673041270   -2.7414957189    0.2813766951
 H    0.3628516248   -2.9619718863    1.5816681951
 H    1.2949997604   -0.4275502589    1.9942582380