16

 O    0.0129140024   -0.0350899488    0.0032393210
 C   -0.0316230045    1.1735849822    0.0098300692
 C   -1.2792844664    2.0598259893    0.0322360269
 C   -0.7527945179    3.4894513976    0.0320093329
 O   -1.3910574985    4.5111754465    0.0459010305
 C    0.7497304701    3.4141093591    0.0100561122
 C    1.5380884506    4.4580452081   -0.7484040711
 C    1.5596174172    4.4505702357    0.7559706958
 N    1.0544528058    2.0136309404   -0.0012542243
 H   -1.9123094544    1.8678225211   -0.8392630448
 H   -1.8871273114    1.8589159674    0.9195147478
 H    2.4223185849    4.1182678470   -1.2769301078
 H    0.9613054318    5.2291389481   -1.2473479644
 H    0.9974611723    5.2165908428    1.2788499125
 H    2.4585554426    4.1056712393    1.2555752697
 H    1.9893303655    1.6370626042   -0.0166571661