18

 C    0.0821853244    1.3613177848   -0.3064585953
 C    1.4508780469    2.0603413871   -0.2102985646
 C    2.5970606800    1.1410764751   -0.5477197144
 O    3.8503574450    1.3572634534    0.1140381488
 C    3.1060116758    0.1809143846    0.4375528818
 C    2.5122998716    0.1303640234    1.8241150697
 O    1.4270643853   -0.7888949448    1.9077414757
 C    0.2170961135   -0.5926135333    1.2966166735
 N   -0.2895655132    0.2200381788    0.4886180876
 H   -0.6903497526    2.1208235802   -0.1308906526
 H   -0.0690383958    1.0511181150   -1.3509458284
 H    1.4357530145    2.9009895695   -0.9149024949
 H    1.6009102542    2.4955047274    0.7807747438
 H    2.6964776088    0.8761008730   -1.6011991483
 H    3.5467791747   -0.7531175990    0.0887249308
 H    3.2475581701   -0.2469505978    2.5402026479
 H    2.2059306000    1.1273661829    2.1517247927
 H   -0.4138777134   -1.4059261505    1.6637948265