20

 C    0.0828807594    1.4369802097   -0.0611145657
 O   -0.2277431563    0.0684061448   -0.1694753109
 C    0.5283740231   -0.6127570739   -1.1380085463
 C    2.0178006453   -0.8470908973   -0.7965193115
 C    2.4203697826   -2.0996131331   -1.6233611015
 C    1.0959145163   -2.6566390430   -2.2194693166
 C   -0.0121780513   -2.0300822106   -1.3621612045
 O   -0.1082208291   -2.6542793847   -0.0883027098
 H    1.1068667406    1.6077277028    0.3027762271
 H   -0.0293937248    1.9587300414   -1.0259481386
 H   -0.6180788240    1.8716449457    0.6559325272
 H    0.4562944940   -0.0804736409   -2.1038961264
 H    2.6421801288    0.0211151310   -1.0208341909
 H    2.0891371300   -1.0464306445    0.2758529121
 H    3.1337533459   -1.8561653111   -2.4151080476
 H    2.9027619487   -2.8412624541   -0.9826535193
 H    0.9736969221   -2.3435242744   -3.2628466899
 H    1.0470501817   -3.7502409507   -2.2089387564
 H   -0.9897023392   -2.0166420029   -1.8643532996
 H   -0.3478191536   -3.5746395343   -0.2330655208