19

 C   -0.0257753713    1.5521799221    0.0132946974
 C   -0.0239244416    0.0074487931    0.0360686341
 C    0.7444601846   -0.5218931243    1.2673412350
 C   -1.4706895664   -0.5340416246    0.0289803332
 O   -2.1107310198   -0.0585695230    1.2080505341
 C   -3.3939155457   -0.4372209843    1.3915456852
 N   -4.0192945234   -0.0476932089    2.4141368877
 C    0.6171943444   -0.4956221029   -1.1897291754
 N    1.1127104164   -0.8949937962   -2.1544891427
 H    0.9974017822    1.9352583508    0.0090202233
 H   -0.5373484087    1.9320521357   -0.8753737415
 H   -0.5414640752    1.9251928383    0.9002470127
 H    0.2426857462   -0.1864803073    2.1769999540
 H    0.7799581617   -1.6148205735    1.2691522923
 H    1.7704136586   -0.1462951991    1.2677017090
 H   -1.9994297620   -0.1781730608   -0.8642995825
 H   -1.4598716304   -1.6312314376    0.0142696073
 H   -3.7812109269   -1.0796665505    0.5890842806
 H   -4.9675727427   -0.4174252268    2.4049159760