19

 C   -0.3429519064    1.4579705648    0.0697983225
 C    0.0543134579   -0.0063539438    0.0038748810
 C    0.8060526666   -0.5149337693   -1.2654746762
 O    1.1448849697    0.5381432010   -2.1346211330
 C    1.9457170745   -1.0079678288   -0.3229451401
 N    1.2368602343   -0.3818998925    0.8016353941
 C    1.1703068825   -0.7853166748    2.1127422889
 N    2.2917753135   -1.4784362006    2.5540584611
 O    0.1981168212   -0.5751910254    2.8170288268
 H    0.4933819980    2.1043791979   -0.2031901048
 H   -1.1729861393    1.6592539787   -0.6145011144
 H   -0.6641047740    1.6938812812    1.0874928302
 H   -0.8049919792   -0.6388195973    0.2564172094
 H    0.2879062695   -1.3209009086   -1.7972680347
 H    1.5959136739    0.1681594076   -2.8994826986
 H    2.0437338831   -2.0968027705   -0.2348282717
 H    2.9250446665   -0.5673233458   -0.5462421944
 H    3.1770115293   -1.2548872621    2.1243047358
 H    2.3280602386   -1.5535396015    3.5595330882