23

 C   -0.0856190155    1.7290189162   -0.3855991242
 C   -0.2768457879    0.2082060660   -0.3913114378
 C    0.8614038330   -0.5391364728   -1.0875480641
 C    2.2552835706   -0.4231493989   -0.4208479388
 C    2.9400285501   -1.7001544442   -0.8446922421
 C    2.0765888095   -2.5826380731   -1.3397029878
 C    0.6484538629   -2.0667753499   -1.3121846673
 C   -0.1619079741   -2.7791663282   -0.2192410515
 O   -0.0244106823   -2.2027384566   -2.5695760308
 H    0.8186382385    2.0197964539    0.1595423721
 H    0.0037720441    2.1186369889   -1.4058443686
 H   -0.9334499691    2.2320163556    0.0898919851
 H   -0.3825963656   -0.1465828140    0.6420344553
 H   -1.2168709198   -0.0338551611   -0.9022376272
 H    0.9559956619   -0.1391029083   -2.1046652163
 H    2.7993602913    0.4756754277   -0.7313399662
 H    2.1733413933   -0.3672877703    0.6756022093
 H    4.0061030774   -1.8623655322   -0.7249179338
 H    2.3137597199   -3.5837488405   -1.6866758880
 H    0.2754008508   -2.6222662971    0.7712694915
 H   -1.1968824634   -2.4256861000   -0.2074206126
 H   -0.1724912117   -3.8611094456   -0.4017276917
 H   -0.2909639739   -3.1229542257   -2.6678692644