16

 N   -0.2435677071    1.4824749790    0.3877941640
 C    0.0753995971    0.2368992470   -0.0311782664
 O    1.2043248137   -0.1294360987   -0.3084040900
 C   -1.0979039972   -0.7355040963   -0.1465102281
 O   -2.2927368254   -0.0752969780    0.2276836846
 C   -1.1682395574   -1.4848451990   -1.5204882071
 C   -1.2827196494   -2.7998826349   -0.7339316347
 O   -1.6482079265   -3.9041055009   -1.0084910288
 C   -0.8576813455   -2.1076125668    0.5704377503
 H    0.4900310935    2.1644433925    0.4818453689
 H   -1.1972165491    1.7191408051    0.5999426016
 H   -3.0336040194   -0.6852702226    0.1553892616
 H   -1.9845033693   -1.2128954202   -2.1944763487
 H   -0.2117356242   -1.4283042622   -2.0491158622
 H    0.2064811263   -2.2676468209    0.7689778160
 H   -1.4403974402   -2.3054241831    1.4736768689