19

 C   -0.1037156571    1.5064342314   -0.0472799861
 C    0.1023136713    0.0122347438   -0.0540025566
 C    1.2741354315   -0.6463658394   -0.8274467896
 C    1.1572695428   -1.8013633347    0.2081139140
 C    0.5916611155   -0.7495983755    1.2050775270
 C    0.0135446318   -2.7183798045   -0.2224912243
 C   -1.2393413815   -1.9258367316   -0.6029946816
 O   -2.2625162072   -2.4316136695   -0.9721017078
 O   -1.1489643304   -0.5738137577   -0.5039246879
 H    0.8071692911    2.0125835246    0.2841944747
 H   -0.3579069971    1.8634554846   -1.0498475311
 H   -0.9209823926    1.7782707169    0.6275532692
 H    1.1124109269   -0.8707224684   -1.8853119246
 H    2.1971830868   -0.0744447920   -0.7060640102
 H    2.0565698493   -2.3555621217    0.4819324992
 H    1.3836868293   -0.1974965395    1.7166667210
 H   -0.1674624084   -1.0643166876    1.9263633720
 H    0.2837312453   -3.3306183303   -1.0898886162
 H   -0.2744869972   -3.4149921690    0.5724839189