25

 C   -0.0474631005    1.5605556055    0.0909119486
 C   -0.0245209275    0.0333048585   -0.0527302028
 C    0.7335568275   -0.5120518082   -1.2840934557
 C    0.0826575111    0.0371404819   -2.5638158393
 C    2.2895900571   -0.2587005946   -1.2295936595
 C    2.8066513530   -1.7134008495   -1.2173568151
 C    1.9227974430   -2.3870539143   -2.3029354232
 C    0.7881412679   -2.0701309627   -1.2811339526
 C    1.8570966418   -2.3908943243   -0.1910560839
 H    0.9644369381    1.9799319833    0.1043466650
 H   -0.5953817641    2.0434268104   -0.7233160447
 H   -0.5345904496    1.8491963784    1.0277599411
 H    0.4065972469   -0.3911787533    0.8592576054
 H   -1.0589951946   -0.3348837897   -0.0955484489
 H    0.1968383983    1.1230046114   -2.6357014898
 H    0.5217137679   -0.3909373340   -3.4678403367
 H   -0.9913817944   -0.1842322227   -2.5802136249
 H    2.6503100041    0.3021866778   -2.0977253921
 H    2.5917898708    0.2899686216   -0.3319277932
 H    3.8878243726   -1.8559938910   -1.1836320856
 H    1.8877168962   -1.9398267584   -3.2990333174
 H    2.1116713316   -3.4599374542   -2.3881539680
 H   -0.1727232918   -2.5880616232   -1.3127303790
 H    2.0403536003   -3.4642846907   -0.0991058317
 H    1.7606160142   -1.9491912379    0.8034075341