17

 C    0.0274943295    1.5206340745   -0.0100181364
 C   -0.0556171498    0.0320808420    0.0113888398
 C   -1.1019156453   -0.7984077263   -0.0796987714
 C   -0.6266865336   -2.1878783405   -0.0028499195
 C   -1.3441573981   -3.3117168316    0.7039965092
 C   -1.1896145429   -3.3418270834   -0.7959037309
 O    0.7755878672   -2.1272812297    0.1404202861
 C    1.1639604800   -0.8052061832    0.1538634158
 O    2.3107201699   -0.4704508367    0.2653137996
 H    0.6666720645    1.8590434263   -0.8326051524
 H   -0.9585625324    1.9775905306   -0.1210047776
 H    0.4866553315    1.8941340264    0.9116010369
 H   -2.1467003156   -0.5378524105   -0.1925376360
 H   -0.7186905794   -3.9764291531    1.2881242852
 H   -2.3195091104   -3.1030356708    1.1291590876
 H   -2.0569700431   -3.1541902658   -1.4188874129
 H   -0.4609398118   -4.0266455981   -1.2134124532