20

 C    0.0646878198    1.5268921241    0.1226779562
 C   -0.0205250302    0.0315075670    0.0010988958
 C   -0.9097240819   -0.8008234822    0.8394830489
 N    0.5476928403   -0.9114941319    1.0472752987
 C    1.0331085538   -1.8000534222   -0.0665281844
 C    0.5598671247   -0.8162774732   -1.1666602748
 C   -0.4056714867   -1.2837802734   -2.2588237784
 C    1.7185711418   -0.0880049692   -1.8297638966
 O    2.8869001236   -0.2678941435   -1.6047470427
 H    1.0748657461    1.8932248092   -0.0886483675
 H   -0.6289038840    2.0201771444   -0.5684684623
 H   -0.1947453010    1.8360662840    1.1390317134
 H   -1.4203707898   -0.3016227963    1.6580857139
 H   -1.4495682831   -1.6503280726    0.4270476706
 H    2.1189238070   -1.8929994969   -0.0342359276
 H    0.5696432154   -2.7919706499   -0.0698939915
 H   -1.3051573358   -1.7309667611   -1.8297173850
 H   -0.7186797397   -0.4478306254   -2.8952531394
 H    0.0668405171   -2.0340473632   -2.9025549112
 H    1.3965955524    0.6656013821   -2.5863741162