21

 C   -0.0545691376    1.5220137290    0.0117154287
 C    0.1103288739   -0.0026379679    0.0976633509
 C    0.6753546305   -0.5789507164   -1.1621876188
 O    2.0123865516   -0.1756311040   -1.5240091887
 C    2.3285410254   -1.5195975004   -1.9781538608
 C    0.8900668203   -1.9585598014   -1.7373796704
 O    0.5089687687   -3.1903686653   -1.2398645838
 C   -0.0604554551   -0.9832398594   -2.4247871455
 C   -1.5400829637   -1.2996912764   -2.3545503601
 H    0.9029257849    1.9994888353   -0.2144117732
 H   -0.7619956170    1.7988807861   -0.7765761330
 H   -0.4241526838    1.9281170392    0.9579331006
 H    0.7770726315   -0.2564141733    0.9304050687
 H   -0.8532583795   -0.4779994570    0.3087866338
 H    2.7151585110   -1.5342235491   -3.0047556244
 H    3.0410616654   -2.0049823369   -1.3003858906
 H    0.2344660466   -3.7475344484   -1.9770144985
 H    0.2722145970   -0.5135442100   -3.3502626598
 H   -1.7964056519   -1.8272816296   -1.4322841810
 H   -2.1430635319   -0.3873058201   -2.4056737383
 H   -1.8422887363   -1.9401609238   -3.1912655058