18

 C   -0.0469273514    1.5032322530    0.0110581506
 C    0.0179101977    0.0164099314   -0.0398046572
 C   -0.0555535859   -0.8475841323   -1.0587017876
 C    0.0578373600   -2.1929687589   -0.3923250708
 N   -0.8135533060   -2.0857308451    0.8909907423
 C    0.1809093676   -3.0018003869    1.5986327314
 C    1.1063611664   -2.0857589232    0.7852422018
 O    2.4841640751   -2.0031798575    0.7516316132
 C    0.1679407508   -0.9040735934    1.1572464677
 H    0.8587116032    1.9264541701    0.4636628466
 H   -0.1576806734    1.9312211099   -0.9888714779
 H   -0.8916872676    1.8442681069    0.6227086691
 H   -0.1806024048   -0.6568332604   -2.1151222449
 H   -0.0642259996   -3.1167219846   -0.9597119312
 H    0.1765402128   -2.8962059545    2.6869896476
 H    0.0937180203   -4.0510920294    1.3006165954
 H    2.8449942497   -2.8829150150    0.5948122710
 H    0.1506595248   -0.5028317702    2.1719419032