21

 N   -0.1451459687    1.5335821863   -0.0150675930
 C   -0.0353113396    0.0702257587   -0.0219521530
 C   -1.3831499966   -0.4985136208    0.1552996888
 N   -2.4368833855   -0.9614213586    0.2568256053
 C    0.6495050527   -0.5613729048   -1.2550112074
 C    2.1028522828   -0.0651055790   -1.4594123740
 C    2.8620179557   -1.2342778323   -2.1537291702
 C    1.8333879159   -2.3824423887   -2.2936747482
 C    0.7870483161   -2.0938149920   -1.2080059934
 H    0.7857750049    1.9348240470   -0.0728935299
 H   -0.6520503121    1.8446882221   -0.8394485156
 H    0.5463387024   -0.2109902960    0.8672644094
 H    0.0505763308   -0.2950752883   -2.1367668998
 H    2.1417739134    0.8592918679   -2.0415247899
 H    2.5602615302    0.1567258825   -0.4868842237
 H    3.2741949896   -0.9378606546   -3.1217156151
 H    3.7091368201   -1.5507241686   -1.5380197714
 H    1.3548493333   -2.3431157088   -3.2791420231
 H    2.2878725581   -3.3721196885   -2.1982448336
 H    1.1685889935   -2.3992296841   -0.2236245992
 H   -0.1617332270   -2.6124505293   -1.3649530830