17

 C    0.4000477275    1.3879856970    0.0184784300
 C   -0.0085644754   -0.0682390325    0.1592093563
 O   -0.2430530056   -0.5638975770    1.2403140635
 C   -0.0706522053   -0.8416677100   -1.1210683792
 C    0.8324278181   -2.0539840654   -1.4300817688
 O    1.0773165648   -2.8402403766   -0.2805306078
 C   -0.3446202544   -3.1349182246   -0.1398362503
 C   -0.6645996642   -2.2115575898   -1.3220931483
 O   -1.6842750230   -2.3738287620   -2.2312430523
 H    1.3546950422    1.4692900775   -0.5132738478
 H   -0.3435395266    1.9322724442   -0.5757146197
 H    0.4844363561    1.8447538019    1.0050142607
 H   -0.1819865856   -0.2392867371   -2.0203393352
 H    1.5631005227   -2.0546137033   -2.2305171897
 H   -0.5321135483   -4.1894894563   -0.3780356276
 H   -0.7318764502   -2.8693590071    0.8422027658
 H   -1.6284475430   -3.2637078488   -2.5990156195