23

 C   -0.0552196678    1.5189307641   -0.0052184029
 C    0.0271832208   -0.0022064748    0.0484289551
 C    1.1089298717   -0.6224634587   -0.9011324413
 C    1.8535382902   -1.1575882201    0.3280324442
 O    3.2353588737   -1.0852311303    0.4509958592
 C    0.8040893085   -0.5479653080    1.2569348006
 C    1.0011221989   -2.0566384956    1.1965421181
 C   -0.0444491451   -3.0121269059    0.6477249325
 C    1.7317652660   -2.6156976690    2.4095187628
 H    0.9347296119    1.9699370033    0.1260623382
 H   -0.4553801778    1.8578018187   -0.9671594374
 H   -0.7062871097    1.9077068090    0.7859596524
 H   -0.9754609839   -0.4271550330   -0.0730687185
 H    0.7790958434   -1.3490277925   -1.6515109538
 H    1.6919384332    0.1567844188   -1.3990897024
 H    3.6099176865   -1.9306617796    0.1797763485
 H    0.9421496584   -0.0128506213    2.1909178662
 H   -0.5531084408   -2.6303889347   -0.2397989762
 H    0.4138870561   -3.9710510954    0.3771846388
 H   -0.8111277705   -3.2201516621    1.4035480688
 H    1.0239116966   -2.8340477983    3.2169588653
 H    2.2432914541   -3.5545290537    2.1625645938
 H    2.4822746957   -1.9181130410    2.7870100681