19

 O    0.1525633108    1.4285725278   -0.1036535103
 C    0.0274659728    0.0109457702   -0.0209309521
 C    0.7818871112   -0.5210154110    1.1711635045
 C    0.1916780943   -0.9946431905    2.2695137424
 C   -1.3008525478   -1.0849302466    2.4447842999
 C   -2.0591488562   -0.2531322925    1.4037040082
 C   -1.4526457046   -0.4645090248   -0.0000800078
 C   -2.2445743351    0.1708213478   -1.0460806634
 C   -2.9193080096    0.6846670354   -1.8976886641
 H    0.0149190689    1.7832034376    0.7810435225
 H    0.4851342873   -0.3560963043   -0.9462682000
 H    1.8654361382   -0.4595324264    1.1119278345
 H    0.8041194345   -1.3508844693    3.0951200177
 H   -1.6084937711   -2.1397014685    2.3795742774
 H   -1.5749013798   -0.7662536568    3.4580976837
 H   -3.1210084379   -0.5124840350    1.3966765106
 H   -2.0002619368    0.8132773342    1.6545145426
 H   -1.4314085723   -1.5473197661   -0.1937810301
 H   -3.5030175268    1.1442114289   -2.6560930362