12

 C   -0.0361934728    1.4510268846   -0.1028528083
 C   -0.0108935445   -0.0011284680   -0.0716195005
 C    0.0288727984   -1.2072740491   -0.0480496371
 C    0.0747684802   -2.6569377540   -0.0193741241
 C   -1.2652503967   -3.3468910966    0.1437126947
 O    1.1192733816   -3.2653646782   -0.1198277786
 H    0.5660400875    1.8661093755    0.7126486394
 H    0.3826555563    1.8245897694   -1.0436581640
 H   -1.0547663028    1.8404573814   -0.0058839325
 H   -1.7439539519   -3.0230120579    1.0742052025
 H   -1.9357208571   -3.0639560027   -0.6750010829
 H   -1.1216952882   -4.4283433544    0.1532737314