14

 O    0.0014009358    0.0093735724    0.0340137304
 C    0.0135331874    1.1978411498    0.1197738784
 O   -1.1056211664    1.9286432449    0.3864360090
 C   -0.8783311762    3.3396803095    0.3016138038
 C    0.6373181435    3.5559334212    0.1851230525
 O    1.2182720104    3.9926547683    1.4365685790
 C    2.0403145954    2.9865259157    1.8274204961
 N    2.1485019527    1.9424951686    1.1167775382
 C    1.2218255393    2.1417475970   -0.0116111510
 H   -1.4064136483    3.7232413623   -0.5771745047
 H   -1.2807354144    3.8157551711    1.1984180745
 H    0.8963388498    4.2942950286   -0.5745094605
 H    2.5682639360    3.1728042610    2.7553955497
 H    1.7269323850    1.9602128994   -0.9620693054