21

 C    0.0732731831    1.5815749321   -0.0625223667
 C    0.0470200752    0.0461564335   -0.0245792337
 C    0.8296730963   -0.5380017325   -1.2073789573
 O    0.4576909350   -1.8725943630   -1.5074407868
 C    1.1145901876   -2.8730100925   -0.7705628578
 C    0.8153875920   -2.9436552379    0.7077050845
 C    0.5434996480   -1.9572407719    1.5631344200
 C    0.5516932940   -0.4612955044    1.3343560623
 O    1.8869909110    0.0491534067    1.4978937642
 H    1.0964616337    1.9590807989    0.0143124888
 H   -0.3637497796    1.9543984645   -0.9942254054
 H   -0.4992865741    2.0043958618    0.7693942055
 H   -0.9895652093   -0.2956700059   -0.1316529744
 H    0.6039061492    0.0389395869   -2.1105458595
 H    1.9104244910   -0.4638756613   -1.0185104799
 H    0.8118762405   -3.8188181976   -1.2335698222
 H    2.2107068590   -2.7965006144   -0.9036050997
 H    0.8584277598   -3.9554346500    1.1102491673
 H    0.3690140912   -2.2417048414    2.6005316014
 H   -0.0931176459   -0.0089848259    2.1053926687
 H    2.3166208223   -0.4663829958    2.1871650405