23

 C    0.1111656052    1.6008640701   -0.0780992047
 C    0.0400301359    0.0699022694    0.0284981445
 C    0.5907646664   -0.5663141447   -1.2669829514
 C    0.6755044207   -2.0875634153   -1.2131786269
 C    2.0126039439   -2.7587146520   -1.0038086646
 C    1.0019184024   -2.6979934064    0.1259801936
 C    1.1750679699   -1.7679641097    1.2666136346
 C    0.7418152916   -0.5014755430    1.2612339615
 C    0.8806222175    0.3677760659    2.4837686530
 H    1.1488289971    1.9470581080   -0.1470825505
 H   -0.4090024275    1.9391239201   -0.9804063902
 H   -0.3529573988    2.0995024195    0.7769452869
 H   -1.0253312594   -0.1995851102    0.1106513991
 H   -0.0339146583   -0.2570021053   -2.1127831870
 H    1.5854722646   -0.1420850623   -1.4527688075
 H   -0.0395797374   -2.6214220275   -1.8309144994
 H    2.1913724258   -3.7190599835   -1.4761894023
 H    2.8871255511   -2.1198019757   -0.9315193037
 H    0.5263706784   -3.6444828996    0.3730473369
 H    1.6554042000   -2.1635482387    2.1603094364
 H    1.3495769551   -0.1838442306    3.3030288614
 H    1.4823622190    1.2635953487    2.2910374037
 H   -0.0975649432    0.7222262428    2.8349912769