16

 C   -0.0276161080    1.3170475961   -0.2021825268
 O   -0.1025987768   -0.0541003538    0.1803740763
 C   -1.3579045467   -0.5722354588    0.1401809423
 C   -2.5513435691   -0.3470223595    1.0721991352
 N   -3.1379565390   -1.6280951178    0.4859679136
 C   -1.7365589296   -1.9830248900   -0.0211673721
 C   -1.9941574221   -1.0907200518   -1.2312677884
 C   -3.4371809619   -1.1584710517   -0.9068543968
 O   -4.4885359947   -0.9754611158   -1.4315643274
 H    1.0216251256    1.6054798046   -0.1256878602
 H   -0.3733808366    1.4577572223   -1.2339520360
 H   -0.6258061178    1.9512387397    0.4640576248
 H   -2.2940988121   -0.4934734789    2.1244395489
 H   -3.1919366117    0.5321168111    0.9507590820
 H   -1.2584596222   -2.9466974312    0.0639203829
 H   -1.4457435773   -1.0042991246   -2.1598710882