19

 O   -0.0141470144   -0.0766704855   -0.0310037224
 C   -0.0207409437    1.1394548649    0.0116274342
 C   -1.3287031340    1.9272246319    0.0551288732
 N   -1.1440243494    3.2938407391    0.5424063552
 C   -0.1016655353    3.9688395880   -0.1896000779
 C   -0.3463039681    4.5270154771   -1.5810585446
 C   -0.1727307717    5.4475971479   -0.3871037503
 C    1.2279258226    3.3250884803    0.1294677263
 N    1.1253008966    1.8801814389   -0.0365819920
 H   -1.7505925231    1.8758698850   -0.9648117061
 H   -2.0058967728    1.3816660432    0.7162380753
 H   -2.0164931986    3.8084220882    0.5000616413
 H    0.4481460525    4.4856189476   -2.3187254367
 H   -1.3445622221    4.4236488513   -1.9939136066
 H   -1.0482591945    5.9658349866   -0.0083786853
 H    0.7434522042    6.0236873373   -0.3077598307
 H    2.0071101065    3.7094267054   -0.5378117448
 H    1.5120469316    3.5757630903    1.1616099854
 H    1.9711261936    1.3286673122   -0.0191663236