20

 C   -0.2469072725    1.5032194819   -0.0162620877
 C   -0.0059411574   -0.0146905589    0.0024859514
 C    0.7968403841   -0.5012712222   -1.2108823264
 C    2.2851536946   -0.1379205429   -1.1487748157
 O    2.9266835723    0.0586108390   -2.1686579434
 C    2.8789470715   -0.1372245459    0.1848386261
 C    4.3706347311    0.0109098362    0.3062220295
 C    2.0677062021   -0.3032705485    1.2623879577
 N    0.7068634022   -0.4362896997    1.2138831185
 H    0.6991298477    2.0523278732   -0.0114785565
 H   -0.8040184822    1.7897155093   -0.9137406659
 H   -0.8301343746    1.8154799075    0.8563852005
 H   -0.9775777855   -0.5213865035    0.0067975116
 H    0.7430095183   -1.5971509722   -1.2615967743
 H    0.3771998658   -0.1108558621   -2.1407361950
 H    4.7082931175    0.9631256288   -0.1169463510
 H    4.6917583249   -0.0333522705    1.3514024851
 H    4.8950377409   -0.7739309915   -0.2499728829
 H    2.4895800448   -0.3623397723    2.2631394284
 H    0.2198238246   -0.2845799457    2.0835680301