19

 C   -0.1200794572    1.5586563739   -0.2448572530
 C    0.0300220800    0.0593628883   -0.0565343557
 O    0.9522974246   -0.4387236946   -1.0148948069
 C    1.4834725618   -1.6448319364   -0.5151341543
 O    1.1632993439   -1.7237182148    0.8661773090
 C    0.6441623760   -0.4713507263    1.2656358988
 C    1.7525273883    0.4371996776    1.8235549562
 C    1.3539013357    1.3985966344    2.9263081751
 O    2.8801608432    0.3637812016    1.3974872419
 H    0.8414298147    2.0663378047   -0.1325823406
 H   -0.4960488884    1.7639808656   -1.2504079947
 H   -0.8349328032    1.9721278183    0.4731529440
 H   -0.9492609678   -0.4315012073   -0.1799595070
 H    1.0351257346   -2.5190034826   -1.0111429278
 H    2.5685827203   -1.6285712384   -0.6667907661
 H   -0.1236321897   -0.6441832711    2.0271748633
 H    1.1475874890    0.8307715349    3.8419904392
 H    2.1632966856    2.1043770692    3.1165117246
 H    0.4347900285    1.9382182930    2.6748649638