18

 N   -0.1282578286    1.1072944708   -0.8757128472
 C   -0.0565084076    0.0568209084   -0.1549904658
 N   -1.2173076878   -0.6634232114    0.0870870690
 C   -1.6085027557   -1.2715096790    1.3524364162
 C   -0.7112867910   -2.4298727019    1.7724999035
 C    0.6751937144   -1.9786013511    2.2142347673
 N    1.5232644407   -1.4759977939    1.1385822544
 C    1.3385855844   -0.4541127285    0.2500481982
 O    2.3036339006    0.0568966764   -0.2945199251
 H    0.8248050163    1.4148668489   -1.0807017465
 H   -1.9810013854   -0.1696587495   -0.3589416206
 H   -1.6564559645   -0.5343307251    2.1723497747
 H   -2.6265889582   -1.6442852467    1.2072557048
 H   -1.1819262172   -2.9383313490    2.6215545458
 H   -0.6272917589   -3.1510071755    0.9527457607
 H    0.5753957812   -1.2327171530    3.0182392490
 H    1.2113928535   -2.8298451723    2.6429469092
 H    2.5134577540   -1.6379274477    1.2653180425