21

 C   -0.2497027456    1.2166632136   -0.2829867003
 C    0.2674514741   -0.0981171858    0.3038457638
 C    1.0459449672   -0.8936151339   -0.7355292894
 N    1.3605428741   -2.3042414330   -0.4307590265
 C    0.4710966704   -1.9907819096   -1.5658008185
 C   -0.9551370831   -2.4779935423   -1.4877899487
 C    1.1390183792    0.1580981993    1.5494580732
 N    1.5006522950   -0.9821563859    2.2080510947
 O    1.4441671344    1.2734581777    1.9268693384
 H    0.5805583106    1.8539856952   -0.5991863853
 H   -0.8933880692    1.0253693235   -1.1469766654
 H   -0.8175156131    1.7758750570    0.4632999327
 H   -0.5778219699   -0.7097184808    0.6377671362
 H    1.8384032219   -0.3131070128   -1.2079180457
 H    2.2937696881   -2.5423459530   -0.7537449776
 H    0.9146464177   -2.0919327800   -2.5558742220
 H   -1.3542682573   -2.4001793788   -0.4743602841
 H   -1.5997960521   -1.9029523076   -2.1610309786
 H   -1.0123574352   -3.5303989278   -1.7852014051
 H    1.4213719753   -1.8682920923    1.7268484044
 H    2.1712067075   -0.8873855029    2.9542856241