21

 C   -0.0223095686    1.5741501095    0.0740687936
 C   -0.2942577270    0.0668187206    0.0743207017
 C   -1.7680019668   -0.2417346389    0.3641170245
 N   -2.2082253712   -1.6273615983    0.4032781638
 C   -1.3845475612   -2.5658763195    0.2003028209
 N   -1.8169227476   -3.8870314603    0.2401552402
 C   -0.9892492914   -4.9754535906    0.0309584358
 C   -1.6953036359   -6.3160520672    0.1266126868
 O    0.1944314677   -4.8544085868   -0.2068050710
 H    1.0304307054    1.7876057145   -0.1331695257
 H   -0.6215942582    2.0854819150   -0.6873515711
 H   -0.2680306090    2.0219782973    1.0433132255
 H   -0.0095407894   -0.3564173611   -0.8973292441
 H    0.3422218679   -0.4196078164    0.8243747944
 H   -2.0469425326    0.2088365291    1.3276119375
 H   -2.3955991210    0.2713825079   -0.3788374506
 H   -0.3189477869   -2.4862962041   -0.0147446425
 H   -2.7982390002   -4.0229781682    0.4358902161
 H   -2.1411055483   -6.4506504012    1.1178062594
 H   -2.5007778517   -6.3851902955   -0.6121097257
 H   -0.9696842141   -7.1079577557   -0.0540692594