18

 C   -0.3001976484    1.5361638071   -0.0205299117
 C    0.0565271561    0.0594354348   -0.0317670872
 C   -1.0609272062   -0.9108552717    0.4317000714
 O   -0.3064556667   -1.3107900050    1.5962322268
 C    0.8311793004   -0.5296534641    1.1715818047
 C    1.9305675946   -1.4215518679    0.5745870497
 O    2.7615959035   -2.0643459013    1.1743430829
 N    1.7671670879   -1.3763962985   -0.7867875557
 C    0.8278489072   -0.3902117858   -1.2916950801
 H    0.5956729254    2.1608365631   -0.1032763132
 H   -0.9606988666    1.7875922572   -0.8587588032
 H   -0.8170539176    1.8079435473    0.9048652666
 H   -2.0115337523   -0.4393700238    0.7072434572
 H   -1.2580755995   -1.7549550783   -0.2414671049
 H    1.2121908590    0.1205517252    1.9641579897
 H    2.4123686234   -1.8715894967   -1.3829648570
 H    0.1571636494   -0.8204979525   -2.0455964176
 H    1.3476353903    0.4584951709   -1.7580788584