17

 C    0.0782396413    1.4465692553   -0.0166147335
 C   -0.0102354393   -0.0543499862   -0.0010348407
 N   -0.0571787297   -0.7351029914   -1.2943264262
 C   -0.4999160789   -1.8965722478   -1.0317990753
 N   -0.7551378560   -2.2051367872    0.3636652807
 C    0.6692526258   -2.3156360277    0.9404243483
 C    0.6484471448   -0.8203535381    1.1918071782
 O    1.3593047011   -0.1592115605    2.1710542190
 C   -0.8419777563   -0.8224321349    0.9794726013
 H    0.9908370939    1.7763009075   -0.5247177749
 H   -0.7723242946    1.8716111328   -0.5579192705
 H    0.0838334129    1.8503181686    0.9983795636
 H   -0.6216824418   -2.6828973434   -1.7700124297
 H    0.6333620220   -2.8840369810    1.8718387992
 H    1.4088292982   -2.7524590208    0.2593562356
 H    2.1725020071    0.1851779971    1.7849653501
 H   -1.6902510007   -0.5055275522    1.5745237347