19

 O   -0.0071113694    1.3930492114    0.1773033575
 C    0.0321813802   -0.0034280351   -0.0253103776
 C   -1.3708310601   -0.5977767495   -0.0451381762
 C   -1.3957925909   -2.1132475594   -0.1814741082
 O   -2.7267166667   -2.6148765593   -0.1945400033
 C   -3.6130753340   -2.0068080271    0.6981839485
 C   -3.4113334123   -1.9860961373    2.1959758962
 C   -3.2616102186   -0.7149183166    1.3804782530
 O   -1.9576240134   -0.2288277322    1.2094784378
 H   -0.5886553483    1.5306516782    0.9348275450
 H    0.5232754473   -0.1778238872   -0.9882914567
 H    0.6248310842   -0.5085779068    0.7549261229
 H   -1.9486747492   -0.1465651394   -0.8658728756
 H   -0.9484633599   -2.4298079866   -1.1284669463
 H   -0.8175566411   -2.5622422927    0.6409661640
 H   -4.6281604465   -2.1304823459    0.3358653336
 H   -4.2821847063   -2.1108381922    2.8302618348
 H   -2.4891432228   -2.3898167509    2.5983350381
 H   -4.0048410622    0.0747142787    1.4655328025