18

 C   -0.0436344343    1.3668889545    0.1610999837
 C   -0.0891793387   -0.1387111895   -0.0268100262
 O   -0.0891960548   -0.9131515085    0.8995630214
 C   -0.1043399306   -0.6299930037   -1.4814143013
 C    1.3614658418   -0.7428270525   -2.0186349273
 C    1.4454182675   -2.2081767684   -2.4922924592
 C    0.3537438139   -2.8813949052   -1.6563487695
 O   -0.6877520133   -1.9126477826   -1.5904385574
 H    0.7122264498    1.8230093009   -0.4879705941
 H   -1.0098129723    1.7988130136   -0.1263443037
 H    0.1625184536    1.6087083118    1.2043140416
 H   -0.7023605136    0.0598307139   -2.0893962643
 H    1.5592067782   -0.0261754896   -2.8179138973
 H    2.0840976542   -0.5548572736   -1.2185680309
 H    1.1986014464   -2.2811080858   -3.5556247176
 H    2.4350764585   -2.6453326922   -2.3394147192
 H   -0.0609004254   -3.7838456191   -2.1130319069
 H    0.7140390389   -3.1262612341   -0.6480527815