17

 C    0.0132287493    1.5278322967    0.0883011304
 C    0.0181030433    0.0281001492   -0.0259398497
 C    0.6747249361   -0.6868783205   -1.2425174655
 C    1.0763971730   -1.7014563763   -0.1411186121
 O    0.9866942497   -0.6395376197    0.8505480808
 C   -0.0656636776   -2.6670131238    0.0933670649
 C   -1.2634166186   -2.1169335515    0.3318964532
 C   -1.3500806273   -0.6330595856    0.2670570244
 O   -2.3776510864   -0.0060859545    0.4013574478
 H    1.0109720546    1.9268534077   -0.1100821023
 H   -0.6982136280    1.9559269646   -0.6230638841
 H   -0.2999391250    1.8315718430    1.0911753034
 H    0.0447597875   -1.0339922069   -2.0627967837
 H    1.5270160616   -0.1150919099   -1.6160541473
 H    2.0611931947   -2.1712653149   -0.1647879733
 H    0.0990090696   -3.7392347445    0.0542725190
 H   -2.1714041862   -2.6747623631    0.5324072042