21

 C    0.0246850291    1.5367631957    0.1710567724
 C   -0.0345659684    0.0183239974   -0.0141077984
 O    0.7822804060   -0.6549792657    0.9391024585
 C   -1.4554444346   -0.4971225136   -0.0011556028
 C   -2.1708386573   -0.9726058634    1.2352916705
 C   -1.9560565098   -1.9248790628    0.0824854737
 C   -2.8905789570   -1.6789083397   -1.1339038605
 C   -3.8593912325   -0.5432529365   -0.9514767292
 C   -2.4081589001   -0.2401367031   -1.2120788063
 H    1.0592574131    1.8881634329    0.1234097321
 H   -0.5546671233    2.0519399630   -0.6015704693
 H   -0.3980220184    1.8203577428    1.1429763621
 H    0.4110475132   -0.2356949650   -0.9857378691
 H    0.5913057653   -0.2746005151    1.8031260361
 H   -1.5118994111   -1.1791478312    2.0733983744
 H   -3.1483199750   -0.6121640532    1.5357611069
 H   -1.3646123639   -2.8236725971    0.1996769021
 H   -2.9918790905   -2.3931758520   -1.9407823195
 H   -4.5025170373   -0.3712868916   -1.8100943860
 H   -4.3460951466   -0.3291989023   -0.0064897237
 H   -2.0861962910    0.3121344405   -2.0865520842