21

 C   -0.0018857282    1.5116223296    0.2815283474
 C   -0.0599265527    0.0256598305   -0.1175335461
 C   -1.4424562776   -0.5366402394   -0.0971319179
 C   -2.2254371642   -1.0195198471   -1.0670658379
 C   -3.5169130477   -1.4180633167   -0.3235736401
 O   -4.6071787792   -1.9086621770   -1.0352860089
 C   -3.7120388209   -0.1763621466    0.5948874235
 C   -2.3363497469   -0.6829441471    1.1533834139
 C   -2.9025193502   -2.1279467185    0.9400411541
 H    1.0304949033    1.8746815502    0.2811721651
 H   -0.5806505380    2.1248358322   -0.4159442782
 H   -0.4119740070    1.6700183429    1.2841140909
 H    0.3689217059   -0.1039730142   -1.1178772132
 H    0.5778115555   -0.5467828386    0.5714477879
 H   -2.0463272812   -1.1193939045   -2.1296831018
 H   -4.3089872388   -2.6493272943   -1.5738465092
 H   -3.7354111702    0.8040663118    0.1145268025
 H   -4.5387123102   -0.2936806563    1.3023127854
 H   -1.9486031817   -0.3542298686    2.1161511054
 H   -3.6583871219   -2.4146492711    1.6778647393
 H   -2.1815599282   -2.9323692572    0.7735011278