19

 O   -0.2080506235    0.0368172213   -0.0807419502
 C   -0.0297346177    1.2038270313    0.1471804549
 C    1.2841564890    1.9427653993   -0.0137774335
 O    2.3960655522    1.0623483804   -0.1315070634
 C    3.0589486217    1.3996044377   -1.3653724841
 C    2.1860533493    0.8918424349   -2.5285103825
 C    1.0096806790    1.9222248143   -2.5238208585
 C    1.3483238671    2.8145273087   -1.3040774347
 C    2.8835887191    2.9226891848   -1.4302214588
 H   -0.8593552521    1.8623363208    0.5006481723
 H    1.4024317815    2.5806481090    0.8788469572
 H    4.0723687209    1.0012686692   -1.3190071651
 H    2.7328784305    0.8928559508   -3.4762012531
 H    1.8478651085   -0.1251914943   -2.3228056187
 H    1.0043141355    2.5298170276   -3.4333768720
 H    0.0330673714    1.4407275008   -2.4465324951
 H    0.7855372798    3.7457751044   -1.2350304380
 H    3.3659008612    3.4421767930   -0.5986729504
 H    3.2009236065    3.3628644958   -2.3793175862