16

 O    0.1496961479    1.4853201287    0.0497407128
 C    0.1338712294    0.0788790315    0.1527885525
 C   -1.2838615763   -0.4834948422    0.0267967219
 C   -2.2218233230    0.0984347864    1.1008981829
 C   -3.5743718186   -0.4386698998    0.9996853385
 N   -4.6321280682   -0.8925967800    0.8988428698
 O   -1.7557286001   -0.0933411746   -1.2700178459
 C   -2.3880454994   -1.0090454137   -2.0480110245
 O   -2.7661772287   -0.7505456577   -3.1465210815
 H   -0.1808615576    1.7087633721   -0.8285750946
 H    0.7652646876   -0.3975250054   -0.6111149026
 H    0.5448304799   -0.1737267268    1.1356704147
 H   -1.2588018857   -1.5781817949    0.1015461638
 H   -1.8196863360   -0.1285530748    2.0942789622
 H   -2.2392241703    1.1869350266    0.9974199692
 H   -2.4957626008   -1.9904155254   -1.5511434891