17

 C    1.3043391254    1.0291385576   -0.2457775262
 O    1.2206811567   -0.3552600650   -0.6196198227
 C    0.0354439837   -0.7559235026   -1.0999248283
 O   -0.9334538075   -0.0503516891   -1.2095806672
 C    0.0619147134   -2.2522085132   -1.4411710719
 C   -1.0823024445   -2.6473986525   -2.3594623311
 O    1.2995726716   -2.5934120409   -2.0744604076
 C    2.3100689842   -3.0431265143   -1.2998922824
 O    3.3916440049   -3.2887007178   -1.7373726366
 H    1.1075859093    1.6677164485   -1.1098814051
 H    0.5774104868    1.2574349969    0.5372675189
 H    2.3212188002    1.1757348790    0.1161408165
 H   -0.0148450505   -2.7915032739   -0.4848220926
 H   -2.0335789968   -2.3494031246   -1.9158865984
 H   -0.9827699367   -2.1483479015   -3.3262214569
 H   -1.0757470947   -3.7279791308   -2.5178763566
 H    2.0157438945   -3.1714390158   -0.2408416320