16

 C    0.0007971476    1.5105122203   -0.0045796066
 C   -0.0642384410    0.0117294299   -0.0019854350
 C   -1.2202864534   -0.7004395675   -0.1085620829
 C   -1.1496760076   -2.1246193183   -0.0935017805
 O   -2.3400818725   -2.7609389827   -0.2038344478
 C    0.0456946272   -2.7804673221    0.0248399011
 C    1.2881885279   -2.0600214985    0.1396734864
 O    2.4109551376   -2.5273750116    0.2499657780
 N    1.1196917159   -0.6543580155    0.1153334949
 H    0.6162505871    1.8749717140   -0.8351400554
 H   -0.9971063429    1.9399285861   -0.1030740496
 H    0.4471327303    1.8852196114    0.9237457021
 H   -2.1782053612   -0.2094875599   -0.2031867144
 H   -2.1913348687   -3.7133196643   -0.1840402191
 H    0.1081186832   -3.8627858667    0.0371406988
 H    1.9863297304   -0.1403492846    0.1953322101