21

 C    0.1540999616    1.5822885674   -0.1079576469
 C    0.0627670407    0.0698619688    0.0021214760
 O    0.5792492813   -0.4827991789   -1.2186246438
 C    0.9925277576   -1.8373397918   -1.1177873417
 C    0.2241083423   -2.6204140126   -0.0161204442
 C    1.2215141414   -1.9522314145    0.9767958022
 C    2.2396328586   -1.9282956151   -0.2047605711
 C    0.7565155230   -0.5170965621    1.2704628971
 O    1.8058946798    0.2808624914    1.7977162634
 H    1.1953619006    1.9083516122   -0.1553221311
 H   -0.3603236073    1.9177253798   -1.0123763385
 H   -0.3106589571    2.0578443061    0.7603142156
 H   -0.9998935387   -0.2082535181    0.0727624001
 H    1.0328318140   -2.2311393632   -2.1352489663
 H   -0.8482046767   -2.4521563490    0.1052497039
 H    0.4106202779   -3.6929610693   -0.1086360725
 H    1.4993523868   -2.4740529456    1.8945195298
 H    2.7656621781   -2.8815210217   -0.3005170690
 H    2.9624525099   -1.1104533652   -0.2897654402
 H    0.0044096244   -0.5307088537    2.0681696559
 H    2.5630196019    0.2120040850    1.2068440213