17

 O   -0.0801211612    1.3877946276    0.2124833637
 C    0.0162634871   -0.0170062817    0.0481105267
 C   -1.4137425111   -0.5460153957   -0.0604851342
 C   -1.4810637798   -2.0851079507   -0.1344095447
 C   -2.0748744040   -2.5183275378    1.2024191007
 O   -2.2029449583   -3.6382904343    1.6212325416
 C   -2.4815618355   -1.2633364411    1.9563579541
 N   -2.9858080452   -1.1972226370    3.1247137487
 N   -2.1960588347   -0.2145925641    1.1261032443
 H    0.7914027537    1.7371770772    0.4183602889
 H    0.5749948641   -0.2827051717   -0.8634457073
 H    0.5156128274   -0.4929432734    0.9069597278
 H   -1.8705627991   -0.0805716875   -0.9416679610
 H   -2.1337933712   -2.4315781814   -0.9412514954
 H   -0.5046345036   -2.5534840961   -0.2875211713
 H   -3.1023242346   -2.1521895908    3.4708334624
 H   -2.1977400040    0.7339680486    1.4670512951