19

 C   -0.0288208889    1.5444815045    0.0016004152
 C   -0.0159167986    0.0353848877   -0.0053812595
 C   -0.0651867324   -0.6805229724   -1.2043783255
 C   -0.0237484570   -2.0707518032   -1.1956639496
 C    0.0648901143   -2.7963773938   -0.0078334445
 C    0.1052624320   -4.3041125724    0.0050289601
 C    0.1105922677   -2.0699769619    1.1920756894
 O    0.1925701365   -2.6845356276    2.4097057186
 C    0.0694780173   -0.6777931049    1.1897111391
 H    0.9902796925    1.9507289783    0.0128917139
 H   -0.5272577697    1.9422915051   -0.8870186206
 H   -0.5419795476    1.9370690283    0.8845576447
 H   -0.1377854438   -0.1486044124   -2.1476574734
 H   -0.0653988955   -2.6139546920   -2.1357120429
 H    1.0262910731   -4.6913107268    0.4624844069
 H   -0.7402654474   -4.7381201368    0.5566473515
 H    0.0616579329   -4.7023388668   -1.0113752379
 H    0.2098765641   -3.6380745306    2.2837635755
 H    0.1038532206   -0.1634906922    2.1447740487