16

 C    0.0426224543    1.7378196596    0.0752609993
 C    0.0617261667    0.1989148567   -0.0073736017
 N    0.6958796940   -0.2734144304   -1.2399862888
 C   -0.0327155646   -0.6526078751   -2.3237529317
 O   -1.2426305860   -0.6074173815   -2.3948557442
 C    0.7146756656   -0.3988540726    1.1538129385
 C    1.2722308272   -0.8722831153    2.1179350550
 C    1.8984624885   -1.4054313036    3.2020087462
 C    2.4548125087   -1.8791114453    4.1631518762
 H    1.0602127752    2.1379522276    0.0869873978
 H   -0.4891833460    2.1378999851   -0.7913478027
 H   -0.4670265225    2.0626198060    0.9861584861
 H   -0.9736954143   -0.1561516374   -0.0679611494
 H    1.6991322477   -0.3670845095   -1.2597987804
 H    0.6120719160   -1.0099373575   -3.1499403619
 H    2.9427334097   -2.2954055268    5.0093755015