21

 C   -0.1699371709    1.3929191213   -0.3534475262
 C   -0.0758451116   -0.1326711469   -0.2157227432
 C    0.7701472867   -0.7530605769   -1.2983074301
 O    0.2159969600   -0.5709495903   -2.6270936316
 C    0.3347309631   -1.9867985121   -2.9275597868
 C    1.0363854426   -2.2466208983   -1.5901526686
 O    2.4540015219   -2.0302113863   -1.6509609329
 C    2.3180828988   -0.6225699131   -1.2845887392
 C    3.0010822084    0.3122225396   -2.2571433771
 H    0.8107406776    1.8665712525   -0.2385524654
 H   -0.5620981984    1.6631298708   -1.3376386492
 H   -0.8334070368    1.8130816818    0.4076687711
 H    0.3450371045   -0.4033982976    0.7605096503
 H   -1.0802255827   -0.5696970032   -0.2630521832
 H   -0.6542633867   -2.4508582252   -3.0344729521
 H    0.9420850726   -2.1830307428   -3.8170371700
 H    0.7520695134   -3.1039886507   -0.9768036115
 H    2.7013236141   -0.4767115844   -0.2638437590
 H    2.5187873054    0.2652130636   -3.2358290318
 H    2.9559583135    1.3443691285   -1.8937598463
 H    4.0541447947    0.0337579497   -2.3622184773