18

 C   -0.0775660482    1.5276257607    0.0081866886
 O    1.1426836877    0.7850171651   -0.0246877354
 C   -0.0898159683    0.0596320339    0.0047354781
 C   -0.3545459870   -0.7314062691    1.2421998465
 N   -1.5295780009   -1.6314326529    1.1836134487
 C   -0.1976247094   -2.2014662363    1.2793801147
 C    0.4165704344   -3.1851386768    0.2882768110
 O    0.9873027855   -3.9431568462    1.3812518588
 C    0.3931504608   -3.0843999338    2.3757008419
 H   -0.2734108586    2.0642004865    0.9361032406
 H   -0.3213982569    2.0720153966   -0.9028233454
 H   -0.3453857733   -0.4514999112   -0.9237696372
 H   -0.1568867161   -0.1966299187    2.1705823307
 H   -2.0083567956   -1.6614359437    2.0807675741
 H   -0.3113019569   -3.7685914402   -0.2887742234
 H    1.1883709889   -2.7882900805   -0.3819960541
 H    1.1442649987   -2.6196747082    3.0268852799
 H   -0.3437690746   -3.6158831051    2.9949512220