19

 O   -0.0088819608    1.4429327993    0.0145135999
 C    0.0580776839    0.0384576231   -0.0716997874
 C   -1.3408500359   -0.5760868204    0.0116793343
 C   -1.3430394913   -2.0966889627   -0.0575091744
 O   -2.6503542048   -2.6595383568    0.1477135047
 C   -3.5039106499   -2.0984098388    1.0560593811
 N   -4.4436392070   -2.7603578069    1.5835532408
 C   -3.3536621429   -0.6117234052    1.3281818039
 N   -1.9802462121   -0.1113238922    1.2494949861
 H   -0.6992994998    1.6245222406    0.6682509344
 H    0.5318090471   -0.2160564454   -1.0260552302
 H    0.6892594141   -0.3875250063    0.7303224662
 H   -1.9381173794   -0.1780297413   -0.8195120326
 H   -1.0195631531   -2.4628169975   -1.0362297681
 H   -0.6630876971   -2.5090718622    0.7031006884
 H   -4.4212894312   -3.7282814155    1.2535678264
 H   -3.9530814973   -0.0738325859    0.5818413993
 H   -3.7857649859   -0.3958695663    2.3060420079
 H   -1.4506755565   -0.4681535597    2.0438923393