17

 C   -0.0104065180    1.6159212061   -0.1363621793
 C    0.0289282238    0.0880327959    0.0179122922
 C    0.7102476308   -0.6183523736   -1.1470572215
 O    2.1217813668   -0.3484049121   -1.1911600560
 C    2.8359426794   -0.3812377310   -0.0456918319
 O    4.0344372899   -0.3375154055   -0.0813214098
 C    2.0825511227   -0.4216091315    1.2844822539
 N    2.7042937637   -0.5122056454    2.3926307835
 N    0.7102674081   -0.3639479154    1.2214982963
 H    0.9952994578    2.0278422025   -0.2591450169
 H   -0.6074936312    1.9016437282   -1.0084394057
 H   -0.4597932476    2.0758347867    0.7484668763
 H   -0.9992202443   -0.2914463255    0.0589845389
 H    0.5614345130   -1.7009514522   -1.0694348637
 H    0.3210383681   -0.2738236700   -2.1068273307
 H    3.7044045075   -0.5718104372    2.1980666452
 H    0.2671908295   -0.1979650001    2.1146777194