15

 O    0.0638854076    1.3660657064    0.1068685370
 C    0.0169931246   -0.0218753446    0.0260640167
 C   -0.5289857864   -0.8077796167    1.2141656982
 C   -1.3544551380   -0.6386190359   -0.0337326158
 C    1.1294201600   -0.6037322498   -0.7364389823
 N    2.1914653877    0.0356449902   -1.1402642419
 C    2.9096461091   -0.9698082742   -1.7381945812
 N    2.3527015024   -2.1476864326   -1.7160540423
 O    1.1423491234   -1.9056939285   -1.0366771514
 H    0.9944822794    1.6243501504    0.0887506233
 H   -0.1024909085   -1.7812917339    1.4266144038
 H   -0.7852984555   -0.2029075427    2.0758454352
 H   -2.1707001333    0.0738109247   -0.0074575869
 H   -1.5000284205   -1.4946622778   -0.6816738773
 H    3.8727509681   -0.8180522250   -2.2036295252