17

 O    0.0394516470    1.4163724464   -0.5665140124
 C    0.0131432970    0.0672696852   -0.1407690554
 C    0.0312060544   -0.1870485829    1.4040557584
 C   -1.1854713992   -1.1301207308    1.2387608758
 C   -1.4364025869   -0.5465470596   -0.1898338231
 C   -2.5152093769    0.5106231094   -0.1976698692
 O   -3.4242369663    0.5363886354   -0.9859904948
 C    0.9878726211   -0.7416387948   -0.8602758818
 C    1.8175632655   -1.3834400278   -1.4485586916
 H    0.9438671480    1.6452754330   -0.8045889043
 H    0.9475426940   -0.5988287951    1.8294396620
 H   -0.2263186751    0.7410012936    1.9203187784
 H   -0.9049223206   -2.1835246397    1.1923695512
 H   -1.9997973524   -1.0160121242    1.9574574383
 H   -1.6276521007   -1.2502581979   -0.9996813567
 H   -2.4367182929    1.2679815572    0.6132817780
 H    2.5423616741   -1.9545436575   -1.9751111326