19

 C    0.0594099218    1.6146713584    0.2005094626
 C    0.0865625421    0.1078731951    0.0401927596
 C    0.3682176022   -0.5974242882   -1.2489452931
 C    0.6604968619    0.1341528014   -2.5556441549
 C    1.5169729283   -0.6370686309   -3.4510162357
 C    2.2241015387   -1.2891379282   -4.1710775176
 C    1.3868992704   -0.6958450098   -0.1116128291
 C    2.7080192705   -0.0327320288   -0.1846697507
 O    3.7047492759   -0.4742206625    0.3355639991
 H    0.7772752592    2.1320191084   -0.4391155174
 H   -0.9360834011    2.0031882514   -0.0399493248
 H    0.2840350057    1.8949260602    1.2345827598
 H   -0.6372521829   -0.3934441155    0.6778557842
 H   -0.1766562765   -1.5228560347   -1.4113272014
 H   -0.2946715826    0.3441461370   -3.0548385319
 H    1.1178198715    1.1115383415   -2.3721282699
 H    2.8536512370   -1.8579155615   -4.8095731574
 H    1.4357078129   -1.6427615627    0.4156106725
 H    2.7476039248    0.9219927395   -0.7529480742