15

 C   -0.2794451484    1.4045288939   -0.0980855169
 N   -0.1088152789   -0.0293460713   -0.2194490315
 C    0.8095060478   -0.5631202668   -1.0684799791
 N    1.6348629844    0.1593347756   -1.7218238010
 C    0.7697992514   -2.1108535848   -1.0529324457
 O   -0.5266140288   -2.6436524932   -0.8291120669
 C    1.3757577854   -2.6673298480   -2.2740536387
 N    1.8208211415   -3.1163791832   -3.2409926126
 H    0.6762337086    1.8733871023    0.1500991573
 H   -0.6355466752    1.8571358063   -1.0319698017
 H   -0.9983378872    1.6084768744    0.6979751333
 H   -0.8294976640   -0.6471981388    0.1133435040
 H    2.2612209093   -0.4057446916   -2.2912119986
 H    1.3651884334   -2.4468656096   -0.1956765292
 H   -1.0560941194   -2.4909375751   -1.6214933828