27

 C    0.0902878603    1.4969736023   -0.1796123860
 C    0.0724275824   -0.0247874557   -0.0214704039
 C    0.7067473882   -0.5072917969    1.2851082598
 C    0.5739261523   -2.0227348571    1.4616077436
 O    2.0708706154   -0.1002874319    1.2561494655
 C    2.7135186075   -0.0229824921    2.5117163779
 C    4.1311922447    0.5144164978    2.3120849595
 C    4.8070607891    0.7480756696    3.6684169766
 C    4.9585237932   -0.4200431512    1.4207850388
 H    1.1145767808    1.8737705624   -0.1278702914
 H   -0.3406493434    1.8003466669   -1.1385997458
 H   -0.4882437116    1.9837069718    0.6140000460
 H   -0.9578436137   -0.3980734004   -0.0633982602
 H    0.6115224472   -0.4944919240   -0.8539016192
 H    0.2045942625   -0.0025528720    2.1296439398
 H    1.0609542439   -2.5447434903    0.6316160676
 H    1.0312103417   -2.3634208295    2.3947891111
 H   -0.4808716848   -2.3151707418    1.4832322242
 H    2.1463760290    0.6422952324    3.1850368977
 H    2.7611058661   -1.0121831951    2.9980571648
 H    4.0326745429    1.4807986329    1.7995626720
 H    4.9069278186   -0.1904599652    4.2268477790
 H    5.8123733569    1.1602748532    3.5368947366
 H    4.2371550657    1.4473758052    4.2896562406
 H    4.4527969772   -0.5940168397    0.4684644432
 H    5.9476632120    0.0031331052    1.2176103001
 H    5.1065149258   -1.3917399070    1.9083962222