17

 O   -0.6445928647    0.5771440384    0.5627234929
 C    0.1127725298    0.8783973303   -0.3225180838
 C    1.3046653389    1.7942155603   -0.1762016058
 C    1.2246407143    2.9895245539   -1.1484445277
 C    0.2753097718    4.0993064604   -0.7728913195
 C    0.8643452824    5.2963749094   -0.7536948869
 C    2.3255618686    5.2315554240   -1.1076172139
 C    2.5793807413    3.7254118498   -1.2555366678
 O    3.6453150167    3.1888412672   -1.3996127002
 H   -0.0310199149    0.4871294239   -1.3585458383
 H    1.3789419282    2.1263119099    0.8626275342
 H    2.2107222546    1.2278940085   -0.4331173751
 H    0.9934537412    2.5925640602   -2.1506149549
 H   -0.7691958701    3.9166285876   -0.5475831212
 H    0.3650149632    6.2281481587   -0.5154349375
 H    2.5683087915    5.7410193268   -2.0502324619
 H    2.9943146773    5.6588760509   -0.3507231626