15

 C    0.0518885659    1.5129504122   -0.0023872873
 C    0.0420281929   -0.0025561146   -0.0110703096
 O    0.7296695439   -0.4923774959   -1.1316057155
 C    1.2975258567   -1.7430313844   -0.7479687235
 C    1.4570246990   -1.6158897510    0.7512180402
 N    2.1312193956   -2.3611365946    1.5025629185
 O    0.7277628934   -0.5146531597    1.1362537279
 C   -1.3539221293   -0.5401230589    0.0111375184
 N   -2.4328919588   -0.9517786319    0.0089570113
 H    1.0896174716    1.8514787304    0.0050033019
 H   -0.4490131181    1.8874174418   -0.8975297835
 H   -0.4664921386    1.8875447104    0.8822308079
 H    0.6340635070   -2.5811950867   -0.9989423731
 H    2.2523309686   -1.8711772573   -1.2581500461
 H    2.0587004402   -2.0767561398    2.4799415525