16

 C   -0.0821653179    1.4037613272    0.2740049904
 N   -0.0721814667   -0.0369388159    0.2566291569
 C   -1.1575463117   -0.9608339345   -0.0555715884
 C   -1.5332790410   -1.0816013188   -1.5498655576
 O   -0.4592230114   -2.0183458018   -1.7907965518
 C   -0.0699437798   -2.0182071418   -0.3994257870
 C    0.9530477206   -0.9221894218   -0.0937265766
 N    2.2132081660   -0.8791738281   -0.1806865048
 H    0.9156924307    1.7607934379    0.5445752219
 H   -0.3490449047    1.8405458582   -0.6993996735
 H   -0.7873689692    1.7734827071    1.0257652952
 H   -1.9380591159   -1.0529914662    0.7006509227
 H   -2.5100563674   -1.5474527317   -1.7294648580
 H   -1.4454004543   -0.1708985152   -2.1536651522
 H    0.0441652582   -3.0153481843    0.0245941788
 H    2.5834564344    0.0525246598    0.0176196242