19

 C    0.4768719949    1.3446691909   -0.0428926953
 N    0.4287059832   -0.1087719491   -0.0011883446
 C    0.5102432940   -0.7297730083   -1.0925948028
 N    0.5763778509   -0.3673020748   -2.4563040629
 C    0.7211792624   -1.7450447655   -2.9306432036
 C    2.1323679167   -2.3822476492   -2.8476271128
 C    3.3675830023   -1.5527559516   -3.1214969187
 O    1.9474822336   -2.6895165214   -1.4388577825
 C    0.5848226797   -2.2106193354   -1.4517952561
 H    1.5135137367    1.6999289488    0.0371494094
 H    0.0412660151    1.7742473547   -0.9582914277
 H   -0.0684518723    1.7498903711    0.8142650316
 H    1.0558423898    0.4369972177   -2.8367609774
 H    0.0698502939   -2.0251308358   -3.7582282643
 H    2.1629471937   -3.3193525988   -3.4218882345
 H    3.3219648641   -0.5924450388   -2.6002579790
 H    4.2579176232   -2.0835694341   -2.7714888909
 H    3.4799547814   -1.3715249050   -4.1961577362
 H   -0.1341807032   -2.9197537352   -1.0422753319