16

 C   -0.1514238981    1.6145019988   -0.0153819952
 C   -0.0552313756    0.0955737904    0.0050865581
 C    1.1531072867   -0.5934622437   -0.6699636608
 C    2.1120732569   -0.3477423254    0.5356180481
 O    2.5226093666   -1.7401410837    0.6478115023
 C    1.1083089204   -1.8098839254    0.3073087504
 C    0.6861281290   -0.5943897163    1.1798664890
 O    0.3338418348   -0.6832134320    2.5046681017
 H    0.8086784088    2.0845249259    0.2261730442
 H   -0.4585274930    1.9797722006   -1.0009414507
 H   -0.8921366671    1.9734418520    0.7085920350
 H   -1.0202163022   -0.3656138551   -0.2359971952
 H    1.4392481283   -0.6249380912   -1.7182880957
 H    2.8571185977    0.4292609621    0.7017338126
 H    0.6351304930   -2.7841597478    0.1911732049
 H    0.2752332838    0.2057710408    2.8718176812