16

 C   -0.0322146807    1.3410157841    0.2418024359
 O   -0.0409443421   -0.0622667459   -0.0494610507
 C    0.6767564795   -0.4290814872   -1.1321978546
 O    1.2903720828    0.3359583990   -1.8246554648
 C    0.5710123709   -1.9426073211   -1.3116190380
 C    1.3070484389   -2.4597438550   -2.4526682089
 C    1.9107782235   -2.9038965651   -3.3929026560
 C    2.6466972532   -3.4257862155   -4.5347577515
 H    0.9863469916    1.6889302480    0.4315439019
 H   -0.4469861179    1.9106379071   -0.5936670498
 H   -0.6497542677    1.4633983426    1.1316420907
 H    0.9096230064   -2.4055626357   -0.3757941507
 H   -0.4965112928   -2.1881330228   -1.3813547607
 H    3.4055703995   -4.1518346281   -4.2228976491
 H    1.9795890862   -3.9269754779   -5.2447347718
 H    3.1589348386   -2.6204287265   -5.0723426821