18

 C   -1.0187324717    1.0968293979   -0.0627671261
 C   -0.0449228123   -0.0702039420   -0.0561112908
 C    1.2993388721    0.0561633985   -0.8372439591
 C    2.0348806633   -0.6684451679    0.3399604423
 C    3.3208206133   -0.1578643485    0.7772429516
 N    4.3299787374    0.2757054080    1.1396724946
 C    0.7872310712   -0.3597417311    1.1993678637
 C    0.7475761964    0.2612457970    2.5222302191
 O    0.3802608134   -1.1161068298    2.3088857575
 H   -0.5218972372    2.0288900806    0.2264821202
 H   -1.4489052043    1.2405087412   -1.0592221265
 H   -1.8465490168    0.9224891036    0.6326794312
 H   -0.5574523206   -0.9937818839   -0.3506704594
 H    1.3656882057   -0.4277411097   -1.8116571270
 H    1.6231054475    1.0953641353   -0.9262545114
 H    2.1067129296   -1.7454159284    0.1602212842
 H    1.6750857122    0.4158413952    3.0702332411
 H   -0.0748003491    0.9233346740    2.7860068148