21

 C   -0.0243132048    1.5041515840    0.0379819461
 C   -0.0679442928    0.0156243789   -0.0413175812
 C   -0.0804100641   -0.8005727583   -1.1012713022
 C    0.0058512967   -2.2318959963   -0.5915637368
 C    1.4561422121   -2.4246309713   -0.0252965299
 C    1.4622890515   -1.4801091791    1.2129666016
 C    0.0150090295   -0.8821320115    1.1996023008
 O   -0.4287510732   -0.3305537538    2.4158730103
 C   -0.7943029997   -2.1020668774    0.7256847685
 H    0.9166925756    1.8564507092    0.4844789437
 H   -0.1124970464    1.9630431507   -0.9504246220
 H   -0.8322264641    1.8855311684    0.6733226021
 H   -0.0383316799   -0.5128981297   -2.1457706945
 H   -0.3079448477   -3.0081404072   -1.2899582710
 H    1.6205701804   -3.4655018821    0.2701128726
 H    2.2189879950   -2.1651723082   -0.7629810703
 H    1.6150913094   -2.0309283830    2.1462417527
 H    2.2273284058   -0.6995648140    1.1535064788
 H    0.2384714349    0.2883416491    2.7293427872
 H   -1.8486927536   -1.8649688519    0.5692970406
 H   -0.6975583045   -2.9639481167    1.3942988129