19

 C    0.0191900452    1.5917673278    0.1458283630
 C    0.0675669662    0.0764268628    0.0351665095
 C    1.1121765815   -0.5792972565   -0.9138177435
 C    1.3148440270   -1.6940132848    0.1469189359
 C    2.7371599304   -2.2191850960    0.3725559628
 C    2.8167584329   -3.1616852386    1.4880466726
 N    2.8554917544   -3.9033643830    2.3735692322
 C    0.6818793015   -0.7487101273    1.2024771888
 H    1.0086843524    2.0009751809    0.3800884803
 H   -0.3176256387    2.0493992448   -0.7910838584
 H   -0.6684594690    1.9103432198    0.9370828706
 H   -0.9302411193   -0.3110198154   -0.1996444529
 H    0.7909435437   -0.8771650814   -1.9149535861
 H    2.0065227781    0.0482988750   -1.0067792820
 H    0.6486872296   -2.5385876951   -0.0536016309
 H    3.1080498483   -2.7182032262   -0.5310341717
 H    3.4187051194   -1.3839360616    0.5743142408
 H    1.4506698450   -0.1719976650    1.7299421249
 H    0.0079517313   -1.1859313500    1.9420172840