17

 C   -0.0982284150    1.4163450832    0.0138293461
 C   -0.1044543475   -0.0724400691   -0.0476830415
 N   -1.0943807094   -0.8371604274    0.1816848695
 C   -0.6229488184   -2.2208774866   -0.0115153423
 C   -1.5069558178   -2.9062856940   -1.0581126965
 O   -2.8604709163   -2.8915596831   -0.6689857843
 C    0.8601633235   -2.0628690031   -0.4271290609
 O    1.0885587899   -0.6360539592   -0.3800743169
 H    0.6314871705    1.7595424339    0.7538120851
 H    0.1991027880    1.8336632810   -0.9531411244
 H   -1.0898239428    1.7785523220    0.2821428931
 H   -0.7301832507   -2.7644716416    0.9343506937
 H   -1.3533712764   -2.4045472127   -2.0298913497
 H   -1.2138555436   -3.9560031841   -1.1769475558
 H   -3.0367342018   -1.9872339232   -0.3780687616
 H    1.5641243957   -2.5466971964    0.2538945920
 H    1.0587365920   -2.4078217398   -1.4481763956