20

 C   -0.0468243536    1.4558141492   -0.2096786095
 C    0.0604453591   -0.0373673429   -0.0180752556
 N    1.4212124273   -0.6097180329    0.0178068869
 C    0.5782093338   -0.6642160406    1.2222405027
 C    1.0624059006    0.0835042156    2.4703406386
 O    0.6147361226   -0.6958211713    3.5802302024
 C    0.6297169421   -2.0500171189    3.1364701334
 C   -0.0163858368   -1.9789926566    1.7504077354
 O   -1.4340614538   -1.9526552878    1.8300774487
 H    0.7716954032    1.9753705829    0.2953917149
 H    0.0029842384    1.7115405173   -1.2732752535
 H   -0.9970503054    1.8343451548    0.1827352792
 H   -0.7036455270   -0.6173717202   -0.5339827546
 H    1.4395862785   -1.5150469046   -0.4467405685
 H    2.1596606580    0.1568021977    2.4560426374
 H    0.6450026106    1.0877971289    2.5805131047
 H    1.6606656007   -2.4359604003    3.0743284233
 H    0.0569904550   -2.6539738856    3.8433352263
 H    0.2305540199   -2.8325631772    1.1121536738
 H   -1.6639471931   -1.2675315976    2.4694359441