21

 C   -0.0201367140    1.6649292204   -0.0064909238
 C   -0.0184043297    0.1345561607    0.0296066817
 C    0.6702968858   -0.4836403974   -1.1933119975
 C    0.6671839651   -2.0268590513   -1.1996741374
 C    1.2457907634   -2.5701635621   -2.5281609938
 C    1.0313506548   -4.0589667648   -2.7102758005
 O    0.6058321708   -4.5610195349   -3.7179002528
 C    1.4982700468   -2.5390953070   -0.0363722942
 O    1.1036490711   -3.2455033249    0.8536296809
 H    1.0004122524    2.0630046795   -0.0266623360
 H   -0.5386588548    2.0396945203   -0.8959154026
 H   -0.5221818847    2.0810728678    0.8718499010
 H    0.4731886013   -0.2107302529    0.9477847750
 H   -1.0500206978   -0.2354865670    0.0849538612
 H    0.1756220605   -0.1348573343   -2.1080761899
 H    1.7081154104   -0.1257420866   -1.2561421950
 H   -0.3556594306   -2.3943520586   -1.0597201840
 H    0.8085472003   -2.0526308148   -3.3865389655
 H    2.3311698345   -2.3847229859   -2.5510252698
 H    1.3015438381   -4.6845428973   -1.8292902097
 H    2.5606572164   -2.1906872389   -0.0663125073