19

 C   -0.0469234008    1.5151984756   -0.0095695879
 C   -0.0147361029    0.0113455367    0.0077378118
 C   -0.8875120432   -0.8016440848    0.8963620977
 O   -1.8171004665   -1.7376545342    0.4278144025
 C    0.5908218552   -1.0092662530    1.0587033334
 C    1.2739551635   -1.7858932139   -0.0859863406
 C    0.5094192742   -2.8616925103   -0.9009205618
 O   -0.0274672383   -1.8498124731   -1.7951443136
 C    0.6895022393   -0.8085387478   -1.1070665940
 H    0.9305476284    1.9360874643   -0.2715363443
 H   -0.7730515907    1.8795296091   -0.7468563868
 H   -0.3335864247    1.9206974226    0.9661065380
 H   -1.2845613138   -0.1847687787    1.7078758568
 H   -2.0295519428   -2.3234352899    1.1626417489
 H    1.0794998403   -0.7987275830    2.0047801344
 H    2.3484771015   -1.9149848894    0.0325161704
 H    1.1679442884   -3.5500197882   -1.4451653329
 H   -0.2784461085   -3.4196128876   -0.3919566221
 H    1.2996568914   -0.1955499745   -1.7779204899