19

 O    0.0367296749    1.3227989249   -0.0730653409
 C   -0.0063175372   -0.0854831457   -0.0408809287
 C    1.0088602358   -0.6264505603   -1.0701943648
 C    0.7086696297   -0.1250192603   -2.4084168973
 C    0.4218440743    0.3346966482   -3.4827453500
 C   -0.0422512441   -0.6627163344    1.4031069842
 C   -1.4913741579   -0.0870608244    1.5105761928
 C   -1.4165287447   -0.7652819626    0.1071112932
 C   -0.7039072497   -1.9483433168    0.8245662002
 H   -0.0376186116    1.5926638053   -0.9970510885
 H    2.0070817932   -0.2833241260   -0.7710224923
 H    1.0394393104   -1.7180559988   -1.0890965828
 H    0.1859704472    0.7138027298   -4.4463815470
 H    0.7535025152   -0.6004489213    2.1474152632
 H   -2.1394845013   -0.5807578624    2.2383498613
 H   -1.5919332029    0.9950070382    1.5329563481
 H   -2.2040356346   -0.8243356662   -0.6457227532
 H   -0.0940580892   -2.6331585996    0.2342367144
 H   -1.3239205075   -2.5047060478    1.5305369481