19

 O    0.7714386115   -0.3460060888    1.2134464240
 C    0.1314686372   -0.0207980879   -0.0059028494
 C   -1.2945650522   -0.5682570540   -0.0298504807
 O   -1.8938887707    0.0435714047    1.0839795535
 C   -2.0689852219   -0.5653277112   -1.4154193819
 C   -1.2602447066   -1.8657043864   -1.7480630350
 C   -1.4747995702   -2.1342451250   -0.2201375706
 C   -3.0060377100   -2.2236639874   -0.1946525626
 C   -3.3929280399   -1.2012736941   -0.9718390475
 H    0.1449697177   -0.0994378282    1.9047134317
 H    0.0735371387    1.0702203014   -0.1520414093
 H    0.7499772286   -0.4324758916   -0.8036730672
 H   -2.7862481349   -0.3200246276    1.1585201564
 H   -2.0954771842    0.3042307815   -2.0718463760
 H   -1.7476754199   -2.5665495649   -2.4271486349
 H   -0.2238931501   -1.7041033700   -2.0487423614
 H   -0.8876899938   -2.8557565970    0.3452848052
 H   -3.6009535963   -2.9540623415    0.3356244848
 H   -4.3866718530   -0.8720745221   -1.2411073390