21

 C   -0.4500513758    1.3302989239    0.2945390812
 C    0.3986865841    0.0773535575    0.2520410025
 C    0.7042152536   -0.5610013159   -1.1207350824
 C    2.1863298347   -0.3463073778   -0.7309989494
 O    1.8098841989    0.3595125038    0.4660661706
 C    2.9749617928   -1.6124738410   -0.4542682238
 C    3.5380496955   -2.3023887183   -1.6764486665
 C    3.5867166832   -1.7981681332    0.8680290150
 O    2.3704134708   -2.4747377252    0.5190331333
 H   -0.1138930346    2.0556518839   -0.4531586577
 H   -1.4999087985    1.0858755030    0.0979195219
 H   -0.3893418893    1.8008738387    1.2810446194
 H    0.0504358878   -0.6527918172    0.9924923588
 H    0.3951371191   -1.5994869244   -1.2441821531
 H    0.3682814402    0.0312180835   -1.9741903111
 H    2.7660371163    0.2977737803   -1.4061293622
 H    4.2813372313   -1.6709976485   -2.1749790868
 H    4.0121411912   -3.2453592239   -1.3948470558
 H    2.7456832426   -2.5235632463   -2.4003961383
 H    4.4624683970   -2.4388269592    0.9658573523
 H    3.4735202790   -1.0163927539    1.6137833621