20

 C   -0.3082076565    1.4752455972   -0.0009426263
 N    0.0386785254    0.0587472729    0.0633256962
 C    1.3521454693   -0.4424189477   -0.3076605144
 C    2.5390471660    0.5056538235   -0.3141325069
 O    2.5098461963    1.1981404979    0.9351495565
 C    1.8030960612    0.4123679269    1.8741784839
 C    2.5204212006   -0.0563192856    3.1142661625
 C    1.4956040420    1.0640679910    3.1839355541
 C    0.8835859038   -0.4961303895    1.1116062221
 H    0.4946999639    2.1636138333    0.2872145286
 H   -0.6215712332    1.7049943362   -1.0244791020
 H   -1.1675006480    1.6479925714    0.6546015576
 H    1.3780232504   -1.3036075350   -0.9703601380
 H    3.4684837059   -0.0737075885   -0.4292041873
 H    2.5074465290    1.2626853535   -1.1056583950
 H    2.2662023368   -1.0235801392    3.5357621360
 H    3.5640030780    0.2233469436    3.2027767810
 H    1.8698058637    2.0717271628    3.3260371559
 H    0.5358580715    0.8649661684    3.6482794957
 H    0.5263819239   -1.3985087230    1.6003688799