20

 C   -0.3196641069    1.4035270833   -0.2588026337
 C   -0.0154497976   -0.0972865310   -0.2464716214
 C    0.9881961890   -0.5401106727   -1.3475706750
 C    2.4292661956   -0.0764837430   -1.0910439963
 C    3.3653088785   -0.2780675388   -2.2873765311
 C    0.9105240746   -2.0520490274   -1.4645629985
 O    1.7435020216   -2.8345290081   -1.0827241996
 C   -0.3395759813   -2.5632671387   -2.0834679269
 N   -1.3086484627   -2.9527459021   -2.5801637486
 H    0.5733438487    2.0073821268   -0.0748519449
 H   -0.7424296763    1.7112484343   -1.2210586671
 H   -1.0486079870    1.6488528632    0.5191140800
 H    0.3871208063   -0.3964709220    0.7289327349
 H   -0.9561410150   -0.6458261077   -0.3746589514
 H    0.6254655109   -0.1317825097   -2.3025688446
 H    2.4083428683    0.9842182770   -0.8223307784
 H    2.8177437745   -0.6164304806   -0.2209840288
 H    3.0053528635    0.2637665552   -3.1691404515
 H    4.3688891766    0.0920595311   -2.0586932283
 H    3.4544759288   -1.3354676292   -2.5502623387