11

 O   -0.0637471524   -0.0226282261   -0.0019276839
 C    0.0180213432    1.1785643443    0.0066993678
 C    1.2835445723    1.9327422570   -0.0008445311
 N    2.4780633275    1.4047159392   -0.0180149520
 N    3.3175579140    2.4671175086   -0.0184244720
 C    2.6860684533    3.7093349366   -0.0017005652
 O    3.1656891076    4.8166888493    0.0021338722
 N    1.3475950291    3.3120831984    0.0094987225
 H   -0.8839627169    1.8309212949    0.0215067760
 H    4.3139328944    2.3242808021   -0.0303625662
 H    0.5817941580    3.9641209559    0.0233074719