15

 C   -0.0556407968    1.5219060402    0.0973760025
 C    0.0078355051    0.0396665934   -0.0003094254
 C    0.0243617947   -0.8115788662   -1.0816400515
 N    0.0912635555   -2.1457271978   -0.6624952262
 C    0.1132153399   -2.0741796067    0.6344334662
 O    0.1750560069   -3.0958256603    1.5030730569
 N    0.0661253282   -0.7980325890    1.1057139364
 C   -0.0183266572   -0.4401228046   -2.4451051383
 C   -0.0554140401   -0.1089956087   -3.6030219438
 H    0.8209022130    1.9407576673    0.6073286244
 H   -0.0924733616    1.9431023987   -0.9093661105
 H   -0.9465393573    1.8629882066    0.6394051060
 H    0.2002776330   -3.9011624610    0.9705716994
 H    0.0727707313   -0.5252899058    2.0741002468
 H   -0.0880188444    0.1738084739   -4.6254826728