21

 C   -0.3715908649    1.3956660155    0.0055597812
 C    0.1356328308   -0.0308405831   -0.0522959399
 O    1.3765369763   -0.1345756046   -0.7989239403
 C    2.0401596010   -0.7855540046    0.2987653009
 C    0.8047765910   -0.6688368765    1.1993066284
 C    0.7861658431    0.0440559125    2.5749504232
 C   -0.3000835651   -0.9593496995    3.0485252023
 C    0.1245072309   -1.8807442336    1.8733339740
 O   -0.8596780452   -2.5114107047    1.0901267859
 H    0.3723634731    2.0673865918    0.4437784934
 H   -0.5900951501    1.7477080371   -1.0076649971
 H   -1.2951911378    1.4591396404    0.5917368347
 H   -0.6257531690   -0.6893084709   -0.4861040216
 H    2.3359518908   -1.8154879944    0.0535312727
 H    2.9286799785   -0.2317738875    0.6319317984
 H    1.7343188848   -0.0874371696    3.1054856732
 H    0.5293330052    1.1047022432    2.5880818806
 H   -0.2348268804   -1.3544157469    4.0651855056
 H   -1.3085294876   -0.5726372114    2.8758221288
 H    0.8899595008   -2.6009593493    2.2028817388
 H   -1.2039999361   -3.2658005736    1.5780669966