18

 O    0.0206803470    1.4296646271    0.0138026313
 C    0.0485255374    0.0128194830    0.0455969895
 C   -1.3384868048   -0.5404202399   -0.0216759103
 C   -2.3746940018   -0.4271904752   -1.1942933744
 C   -2.2425395091   -1.9494713197   -1.4544703089
 C   -1.8323856657   -2.0268215701    0.0388086415
 C   -2.9888225263   -1.4032057744    0.8455470274
 C   -3.3759424488   -0.2643822570   -0.0351922262
 N   -2.3460521554   -0.0578437666    1.0384082655
 H   -0.5934632136    1.7009343636    0.7075923790
 H    0.6420047656   -0.3166842393   -0.8148849305
 H    0.5464460006   -0.3606533555    0.9561170447
 H   -2.3325481899    0.3257628236   -1.9776311518
 H   -3.1301953767   -2.5010192588   -1.7775073654
 H   -1.4010956599   -2.1756258265   -2.1171511020
 H   -1.2658766280   -2.8520480686    0.4658450008
 H   -3.6221196331   -1.8476348328    1.6034486793
 H   -4.3331632876    0.2417320072   -0.0110242296