18

 O    0.0306673203    1.2617095851   -0.0179251721
 N    0.0551484535   -0.1364869334   -0.0382505374
 C   -1.0990577780   -0.6726062942    0.0267356807
 C   -2.4381219441    0.0083137558    0.0663522185
 C   -3.3339198576   -0.5899027656   -1.0376716474
 O   -3.3873974313   -2.0010375720   -0.9611525602
 C   -2.1167827145   -2.5942497963   -1.1472116824
 C   -1.1362035742   -2.1831678605   -0.0263879826
 O    0.1186924946   -2.7734199182   -0.2460274637
 H    0.9655155846    1.4857686685   -0.0755378984
 H   -2.9103054228   -0.1804807263    1.0381043941
 H   -2.3303339147    1.0870579231   -0.0573186276
 H   -4.3615792112   -0.2324775350   -0.9329163668
 H   -2.9588306740   -0.2752825501   -2.0252087336
 H   -2.2608760907   -3.6770796370   -1.1368856910
 H   -1.6782661111   -2.3083500262   -2.1169167807
 H   -1.5603164386   -2.5423411266    0.9263357009
 H    0.7597763999   -2.0487061911   -0.2628609004