18

 C   -0.1072518809    1.4273724211    0.0070040062
 N   -0.0630771847   -0.0136269599   -0.0301081944
 C    0.0091593022   -0.8249910961   -1.1743597124
 C    0.0168646473   -2.1109352023   -0.7566560324
 N   -0.0381420476   -3.3261158196   -1.4499770477
 N   -0.0335483364   -2.1046910581    0.6357853766
 C   -0.1098256529   -3.2503961842    1.5116904670
 C   -0.0827477614   -0.7924777438    1.1093220348
 O   -0.1371259071   -0.4313359720    2.2753835253
 H    0.7856342839    1.8665811205   -0.4530598452
 H   -0.9940429911    1.8136258093   -0.5088675597
 H   -0.1491122242    1.7199645774    1.0575655356
 H    0.0427758389   -0.4110714193   -2.1668200459
 H   -0.0843592971   -3.1749191059   -2.4498014521
 H    0.7540073383   -3.9299608216   -1.2506384613
 H    0.8385946018   -3.8000559815    1.5522085096
 H   -0.3330253864   -2.8696004391    2.5098706189
 H   -0.8992463227   -3.9338846651    1.1859790369