22

 C   -0.0033823114    1.3505191957   -0.7727220860
 C   -0.1200311090    0.1356598803    0.1509173312
 C   -1.3942300912   -0.6749307921   -0.0899256636
 O   -1.3754129250   -1.0984893637   -1.4442845315
 C   -1.4875685087   -1.8730442541    0.8814599307
 C   -2.8345294677   -2.5466380933    0.8817448903
 N   -3.5598076754   -2.6079593046    1.9178083709
 O   -3.1234896251   -3.0386743680   -0.3685345016
 C   -4.3712757219   -3.6951337298   -0.5538584501
 H    0.9289621619    1.8936106833   -0.5904323201
 H   -0.0240238804    1.0402534596   -1.8198773139
 H   -0.8329418699    2.0485359126   -0.6125078675
 H    0.7409132795   -0.5289701314    0.0045046350
 H   -0.1035184475    0.4560581152    1.1994868889
 H   -2.2643359775   -0.0183033291    0.0917113190
 H   -2.0753871582   -1.7534960164   -1.5468277473
 H   -0.7174913571   -2.5993928090    0.5950051050
 H   -1.2975484613   -1.5462337058    1.9051918085
 H   -4.4459146706   -3.0861547471    1.7624310544
 H   -4.4516111307   -4.5785368812    0.0898840182
 H   -5.2118524765   -3.0208887912   -0.3521221685
 H   -4.3985369663   -4.0064803298   -1.5985234121