18

 O    0.4656875097    1.0197059223    1.5154637612
 C    0.2741964123    1.5572966595    0.4475126982
 N    1.2260703438    1.7520492273   -0.5108250055
 C    2.5416921390    1.1905322032   -0.4083961910
 C    3.6941838189    1.9690138374   -0.9972339203
 C    3.5493292613    1.8424952123    0.4878418749
 C    3.3403172078    2.9348976459    1.5300318298
 O    4.2677225838    2.2783977759    2.4247281505
 C    4.4789977713    1.1887880935    1.5025434691
 H   -0.7086565164    1.9674663049    0.1384700167
 H    0.9212580471    2.0932865539   -1.4100647812
 H    2.5836893307    0.1043927139   -0.4733889008
 H    4.4785901940    1.4115699921   -1.4989414939
 H    3.4718002302    2.9352965925   -1.4409486398
 H    3.6827372658    3.9400136409    1.2513349310
 H    2.3320395099    2.9888045595    1.9547281270
 H    4.1312037540    0.2301693310    1.9089780902
 H    5.5324812168    1.0995816040    1.2055427638