16

 C    0.0300333763    1.4085425137    0.0495968659
 O   -0.0780087826    0.0037858780   -0.0279983648
 C    0.6208051451   -0.5716878148   -1.1259472458
 C    2.1253625962   -0.7202125199   -0.8407666868
 C    0.0103139291   -1.8674819768   -1.4172568112
 C   -0.4666490087   -2.9458439395   -1.6867917593
 C   -1.0052005043   -4.1606220716   -1.9799346349
 C   -1.4821047774   -5.2380318373   -2.2438792796
 H    1.0568522206    1.7460961220    0.2518717441
 H   -0.3186007786    1.8938960738   -0.8752685025
 H   -0.6082069876    1.7277305050    0.8766012721
 H    0.4910357786    0.0721887340   -2.0135072468
 H    2.5794884901    0.2584059768   -0.6632221358
 H    2.2750413986   -1.3467155081    0.0416256709
 H    2.6300537323   -1.1831518727   -1.6929537034
 H   -1.9021478877   -6.1862660828   -2.4708489722