19

 C   -0.6345792663    1.4772639423   -0.3828548835
 C   -0.0772379426    0.1844329813    0.1828644498
 O    0.9811551111    0.1427086290    0.7698366106
 C   -0.9040882751   -1.0622879916   -0.0652044650
 C   -0.6373911780   -1.7646493170   -1.4450724239
 C   -0.5332406794   -3.1195318175   -0.7072195104
 C   -0.4624921459   -2.3550046686    0.6609251732
 C   -1.7671619431   -3.9784638274   -0.7926684540
 O   -2.7683324300   -3.7005328741   -1.4044585747
 H    0.1049308119    2.2744839036   -0.2999239697
 H   -0.9344895583    1.3480860060   -1.4285785146
 H   -1.5374657059    1.7601994412    0.1713945946
 H   -1.9686240492   -0.8417713459    0.0521791503
 H   -1.4388984067   -1.6994631151   -2.1814149623
 H    0.3099426267   -1.4585349904   -1.8943150491
 H    0.3398060406   -3.7441656664   -0.9231533037
 H    0.5577095607   -2.2606769070    1.0355535247
 H   -1.1097555544   -2.7179565240    1.4633019918
 H   -1.7056969661   -4.9189211985   -0.1971820842