19

 O   -0.1131151027    1.4120807593    0.1224587587
 C   -0.0679231826   -0.0027293126   -0.0166766817
 C   -1.4759350144   -0.5100624337   -0.0436532175
 C   -2.5865909710   -0.1731443403   -1.0645306715
 C   -3.2394473184   -1.1369284110   -0.0560500700
 O   -4.5482618567   -1.5713557553    0.0226704823
 C   -1.9278989459   -2.0042956008    0.1046801929
 C   -1.9956642106   -1.9164083912    1.6436213266
 C   -2.4853117076   -0.5340287247    1.1650529496
 H    0.7896254255    1.7432547047    0.1032112180
 H    0.4450824685   -0.2942528036   -0.9480661140
 H    0.4796223002   -0.4704363762    0.8178899447
 H   -2.9484018307    0.8589280401   -1.0693324871
 H   -2.4386630261   -0.5438103785   -2.0858823225
 H   -4.7647072279   -2.0355229157   -0.7932601626
 H   -1.6127577745   -2.8311263988   -0.5361020586
 H   -2.7381593343   -2.5503945818    2.1351018547
 H   -1.0454964918   -1.9467672204    2.1856175587
 H   -2.7991318490    0.3363060306    1.7417440493