15

 N   -0.0634400042    1.3011920074    0.3037011540
 C   -0.0172788853    0.0730487533   -0.0167108246
 C   -1.2503350344   -0.7962954612   -0.0455602441
 C   -1.1705000012   -1.8398790168   -1.1687271408
 N    0.0778629501   -2.5982895113   -1.1696584314
 C    1.1079424838   -1.9605913442   -0.7800014881
 N    1.1444159034   -0.6420854743   -0.3325293124
 C    2.4011578618   -2.6109863350   -0.7985983700
 N    3.4548421221   -3.0855309121   -0.8028818289
 H    0.8616513469    1.7370875702    0.3012304975
 H   -1.3187223844   -1.3135011531    0.9202921319
 H   -2.1286457224   -0.1566768474   -0.1396167102
 H   -2.0007993433   -2.5465528275   -1.0934167041
 H   -1.2630574074   -1.3515107984   -2.1500384370
 H    2.0426349947   -0.2097542595   -0.1735311018