18

 N   -0.0650762159    1.3214330598   -0.2502750561
 C    0.0810558807    0.0533692082   -0.1175798453
 C   -1.1349605510   -0.7490644075   -0.1729362931
 N   -2.0874858142   -1.4019043116   -0.2137349913
 N    1.2222527660   -0.6706543342    0.0723756493
 C    2.5283079150   -0.0226262481    0.1770982481
 C    3.4766060634   -1.1719300753    0.5544504678
 C    2.7959998433   -2.4109748758   -0.0499890796
 C    1.3043292130   -2.1342505514    0.1771370740
 H    0.8304642158    1.8069933128   -0.2043239888
 H    2.8067894975    0.4386205329   -0.7816095346
 H    2.5122121469    0.7726547042    0.9322492573
 H    4.4902405493   -1.0092596090    0.1829363661
 H    3.5311123936   -1.2658096254    1.6439354425
 H    3.0039286514   -2.4717939813   -1.1234372042
 H    3.1185969123   -3.3476119022    0.4091443818
 H    0.9841076818   -2.4750769758    1.1711308349
 H    0.6616711113   -2.6170366303   -0.5625411189