18

 N    0.4832736387    0.8275500757    0.1445189803
 C   -0.2138235669   -0.0668593284   -0.5963311172
 O    0.1499402719   -0.4140605485   -1.7113705330
 C   -1.4901716796   -0.6213331661    0.0597709930
 C   -2.6864958335   -0.6536267901   -0.9115978418
 C   -2.6241907517   -2.0825329862   -1.4950323816
 O   -1.8050878049   -2.1897249000   -2.6305182340
 C   -2.0935264256   -2.8636423819   -0.2846411516
 O   -1.2181150364   -1.9741468897    0.4224360509
 H    1.3695493987    1.1545866119   -0.2067780012
 H    0.2454283259    1.0203120682    1.1015474705
 H   -1.7207955029   -0.0518233878    0.9706775221
 H   -3.6148551636   -0.5095027198   -0.3513800231
 H   -2.6303527985    0.1016507940   -1.6968808909
 H   -3.6167210614   -2.4392867849   -1.7873930818
 H   -0.9967485448   -1.6712830572   -2.4602817030
 H   -2.9115288110   -3.1813730220    0.3796293906
 H   -1.5202161045   -3.7407869273   -0.5942721780