21

 C    0.8679524684    1.4395588403   -0.3105594115
 C    0.1769110933    0.1138779168    0.0496977420
 C    0.1882838804   -0.9260426214   -1.1107023206
 C    1.2135433771   -1.9883172016   -0.7463918047
 C    2.5998350000   -1.5395803661   -0.3640348894
 C    1.5744840415   -1.8217526704    0.7123913873
 C    0.7668804284   -0.6624337771    1.2878108733
 C    1.5696310936    0.2023335460    2.2353406360
 O    1.2104884045    0.5290864131    3.3388081246
 H    1.9157893491    1.3177955138   -0.5989662293
 H    0.3513384493    1.9020505438   -1.1577752390
 H    0.8317752201    2.1501412368    0.5216914050
 H   -0.8584362870    0.3692196952    0.2933600589
 H   -0.7957336651   -1.3994242047   -1.2013789986
 H    0.3977238481   -0.4442596479   -2.0726950637
 H    1.0999762433   -2.9774761314   -1.1761033710
 H    3.3999617243   -2.2644349408   -0.4693422719
 H    2.9098335423   -0.5217677539   -0.5698806031
 H    1.7382218663   -2.6807024263    1.3538482488
 H   -0.0649383785   -1.0671465588    1.8734583589
 H    2.5623534605    0.5198863447    1.8434826077