19

 O    0.0127182457    1.3798673567   -0.1095300593
 C    0.0013234319   -0.0040010119   -0.0386348517
 C   -0.4450133091   -0.7684866833   -1.2753292441
 C   -1.3365414901   -0.7347761655   -0.0629839407
 C   -1.5414957197   -2.0049485806    0.7667825128
 C   -0.4300628818   -2.2602323211    1.7979678782
 C    0.9748502319   -2.0210580514    1.2041470794
 C    1.0873296478   -0.5644615918    0.8101924791
 O    1.9582274799    0.1804809348    1.2234445531
 H    0.8372257072    1.6327052206    0.3381701235
 H   -0.7028980341   -0.1339445788   -2.1154833549
 H    0.0480451384   -1.7001951992   -1.5345183190
 H   -2.1835260597   -0.0600007815   -0.1334515514
 H   -2.5033214149   -1.9459842685    1.2856317823
 H   -1.6112995377   -2.8655369606    0.0890381828
 H   -0.5616896937   -1.5895869205    2.6557826014
 H   -0.5020253386   -3.2817479045    2.1853120296
 H    1.7673914306   -2.2404231728    1.9229255608
 H    1.1242499559   -2.6662622501    0.3290629479