19

 C   -0.1901070650    1.5611918182    0.0467822964
 C    0.0114506918    0.0651597430    0.0562875444
 O   -1.1315597548   -0.6781816290   -0.2794065079
 C    1.3305232236   -0.5487795127   -0.2755127138
 C    0.8051366347   -0.6419755781    1.1572936213
 C    1.4830173035    0.1160720655    2.2299387129
 O    2.1622466398    1.1109916674    2.0388719722
 C    1.3133058016   -0.3899628811    3.6564451070
 O    1.9869397905    0.4219036272    4.5679903822
 H    0.6972026410    2.0834162237    0.4062218784
 H   -0.3994347963    1.9009286403   -0.9750320247
 H   -1.0441764736    1.8329019010    0.6745691002
 H   -1.3657752155   -0.4598155727   -1.1888481360
 H    1.3328624341   -1.4681609871   -0.8490080159
 H    2.1822061741    0.1093136133   -0.4106361566
 H    0.3678960242   -1.5887713821    1.4549812484
 H    0.2328976916   -0.4369591501    3.8756252915
 H    1.6780681908   -1.4309179992    3.6940924158
 H    2.4041461139    1.1098508125    4.0234735741