20

 C    1.1727118318    1.5331211950    0.3846680258
 C    0.7780753370    0.0488004657    0.4497582964
 C   -0.6359982076   -0.1115521738    0.7998266955
 C   -1.7851706585   -0.2626367699    1.1236526635
 N    1.0746175430   -0.5598118425   -0.8610234839
 C    2.2705833652   -1.4028498941   -0.9458909267
 C    0.9177679430   -1.9932911618   -1.1167537894
 C    0.3427431899   -3.0194139408   -0.1521667259
 O    0.7313368711   -2.8589890744    1.2015537767
 H    2.2360156990    1.6163908532    0.1431284294
 H    0.5986814129    2.0409082976   -0.3934659927
 H    0.9902582063    2.0245208956    1.3443037843
 H    1.3639942758   -0.4289353935    1.2486199015
 H   -2.8064918361   -0.3734415271    1.3942883294
 H    2.9225086571   -1.2297117906   -1.7983011581
 H    2.7799076291   -1.6367222609   -0.0122654490
 H    0.5793217848   -2.1877991482   -2.1360088553
 H   -0.7509805997   -3.0251033604   -0.2469045426
 H    0.6969327323   -4.0072220988   -0.4748495826
 H    0.0756324035   -2.2861599803    1.6147175338