15

 N   -0.1006598682    1.2877616982    0.4852614168
 C   -0.0334388801    0.1199580399    0.0103920770
 C   -1.2482697033   -0.7814395128   -0.0410868241
 O   -1.2316415463   -1.6038847298   -1.2010977647
 C   -0.1147385056   -2.4401004852   -1.1898109436
 C    0.9359753881   -2.1921012099   -2.2413338480
 C    1.1736949903   -1.7698090677   -0.8151360344
 O    1.1215571703   -0.3922007212   -0.5143416055
 H    0.8179152669    1.7361305346    0.4627342920
 H   -1.2980357238   -1.3955583957    0.8711081568
 H   -2.1398861759   -0.1570515630   -0.0862709160
 H   -0.3093958793   -3.4555431682   -0.8472047925
 H    1.4969712630   -3.0351030357   -2.6282642713
 H    0.7205973570   -1.4012823644   -2.9504826855
 H    1.9123401368   -2.2893719890   -0.2134911171