16

 O   -0.1513892637    0.1370452288    0.4260263430
 C    0.1337366024    0.9244067814   -0.4370031393
 C    1.4228736403    1.7152943407   -0.4947185909
 C    1.1541632276    3.2286920238   -0.6686876692
 C    2.3781603552    3.9996605755   -0.8419310527
 C    3.4025500140    4.6124476393   -0.9850400178
 C    4.6395276254    5.3702008433   -1.1588230409
 C    5.1591007964    5.3136967305   -2.5321114328
 N    5.5760923533    5.2750220977   -3.6079585175
 H   -0.5641452675    1.1244301123   -1.2849070041
 H    2.0069312461    1.5146051348    0.4062203314
 H    1.9957212701    1.3591549783   -1.3613109704
 H    0.4989126097    3.3870885234   -1.5353926925
 H    0.6042469911    3.6050129869    0.2029511438
 H    4.4857940720    6.4243542369   -0.8942309388
 H    5.4194752276    4.9968087062   -0.4827012112