19

 C    0.3406044533    0.8533463120    0.6532746234
 N   -0.3894555017    0.1172159654   -0.3870656872
 C    0.4117884715   -0.5501931774   -1.3347949101
 C    0.9693422178   -0.1234289215   -2.5290202387
 C    1.6610396927   -1.2345910992   -3.0802042416
 O    2.3588565731   -1.2927672743   -4.2545662743
 C    1.5217303079   -2.2954491844   -2.2165548836
 N    0.7447463363   -1.8700688557   -1.1543953799
 C    0.3402631297   -2.6946183736   -0.0376874723
 H    0.9277345967    0.1509227156    1.2520276034
 H    1.0292496479    1.6129599548    0.2533063537
 H   -0.3782266615    1.3426784027    1.3175890670
 H   -1.0382702098    0.7355175540   -0.8580956651
 H    0.8861153981    0.8690486134   -2.9479789822
 H    2.3228269148   -0.4260392970   -4.6680770235
 H    1.9016435152   -3.3014038438   -2.2709679732
 H   -0.4883946105   -2.1984895309    0.4695970945
 H    0.0095078813   -3.6739493638   -0.3958388926
 H    1.1586316272   -2.8446883363    0.6771869022