17

 C   -0.0186943683    1.4644512859   -0.0145182552
 C    0.0054959056   -0.0521928187   -0.0026193006
 C    1.3682433751   -0.6753284559   -0.1518105020
 C    0.6715904989   -0.6905463350    1.1873588259
 C    0.7119518822   -2.2344299451    1.1025026503
 C    0.1511615414   -2.8149089468   -0.1479952130
 N    1.4769948715   -2.1914908996   -0.2113152124
 C    1.1415243700   -3.0394768366    2.2052988161
 N    1.4600159509   -3.6676017932    3.1235467917
 H    0.8860351040    1.8812959209    0.4396931330
 H   -0.0852109042    1.8434661226   -1.0391305985
 H   -0.8786932549    1.8446124460    0.5456676553
 H   -0.8764689915   -0.5002881985   -0.4483975206
 H    2.2362361252   -0.1243676677   -0.4892574917
 H    0.9116296659   -0.1605659286    2.0987645330
 H    0.2098646559   -3.8957589924   -0.2351799600
 H   -0.7105989776   -2.3739008271   -0.6334898313