23

 C   -0.2801339837    1.4920302991    0.1180843479
 C    0.1426367140    0.0234702440   -0.0215381686
 C    0.8670366458   -0.5129485748    1.1957937984
 C    2.2680186568    0.0425135901    1.5047981884
 C    3.0477654173   -1.1576086233    1.9981522089
 C    2.3091648334   -2.2703125990    1.9813739376
 C    0.9198835896   -2.0058117871    1.5173810109
 C    0.0625970850   -1.0567738893    2.3557734591
 C    0.3214649149   -0.7398674421    3.8109461538
 H    0.5866524507    2.1433351999    0.2731420300
 H   -0.8003678847    1.8412388744   -0.7794422144
 H   -0.9526981150    1.6270312880    0.9718532995
 H   -0.7452491910   -0.5925251927   -0.2117504742
 H    0.7863605739   -0.0884467307   -0.9049540786
 H    2.7246239964    0.4763063435    0.6037397855
 H    2.2463349723    0.8490286870    2.2500620393
 H    4.0736259483   -1.0858633752    2.3425995763
 H    2.6494143129   -3.2530139590    2.2891358863
 H    0.4089520170   -2.7407437850    0.9024345722
 H   -0.9975482053   -1.1429221927    2.1212021402
 H    1.3861293096   -0.7741661380    4.0530616535
 H   -0.0517392543    0.2587744295    4.0660262043
 H   -0.1897547738   -1.4589553765    4.4607372036