18

 C    0.0704186780    1.4880720080   -0.1180205234
 C    0.0931450232   -0.0279718305   -0.0747280953
 C    1.2541696646   -0.7645386213   -0.7110232258
 C    1.1476439479   -0.6976148003    0.7879700630
 C   -1.2195953085   -0.7483015360   -0.1245163716
 O   -2.3760255637   -0.1289229501    0.4381850590
 C   -2.3986465691   -0.4132853531   -0.9629912964
 C   -2.4555974652    0.7012549231   -1.8822016030
 N   -2.5412224173    1.5531971905   -2.6590195814
 H    1.0754689664    1.8802831303    0.0611171879
 H   -0.2674409496    1.8681296865   -1.0848435186
 H   -0.5935873509    1.8873120905    0.6538108536
 H    1.0604761635   -1.7160813447   -1.1956210461
 H    2.0079156104   -0.1630513410   -1.2066325708
 H    1.8300603334   -0.0503916619    1.3271407916
 H    0.8798660778   -1.6032028180    1.3224065250
 H   -1.1425610328   -1.8126703808    0.1112622778
 H   -3.0643756080   -1.2270984612   -1.2498556553