19

 O    0.1121476876    1.2675093587    0.2849623828
 C    0.0432943822   -0.1363255273    0.1412903221
 C   -1.3861339041   -0.6237984775   -0.0210700916
 C   -1.5732920481   -2.1509134392   -0.1185491136
 C   -2.8669649168   -2.4019156643    0.6518345845
 C   -2.7748579293   -2.3228712675    2.1710810213
 O   -1.5383511216   -2.3233188592    2.8074501660
 C   -3.1798285900   -1.1125442676    1.3739816361
 O   -2.1128013031   -0.2153250865    1.1657803050
 H   -0.5019697533    1.4999222073    0.9907929865
 H    0.6230005754   -0.3950378549   -0.7512570474
 H    0.5020856770   -0.6583248450    0.9981279417
 H   -1.8427297056   -0.1195347283   -0.8848922978
 H   -1.6523177912   -2.4787889593   -1.1571838142
 H   -0.7326476199   -2.6771642685    0.3469082798
 H   -3.6496913193   -3.0040147429    0.2063856813
 H   -3.5416747982   -2.8446055855    2.7373862057
 H   -1.2032855909   -1.4182148577    2.7398248658
 H   -4.1599708808   -0.6508082648    1.4345428562