19

 O   -0.0576101759   -0.0606942106    0.0417632096
 C   -0.0068565970    1.1369864119   -0.0826485082
 C    1.2823412545    1.9330325430   -0.1017214048
 C    1.3415975293    2.9420005284   -1.2605653972
 O    0.2563586189    3.8375856997   -1.0700360643
 C    0.3313845658    4.9933954603   -1.8914407566
 C    1.5408499515    5.8511463800   -1.5159582260
 C    2.7628802731    4.9789829051   -1.4001010042
 C    2.6697815702    3.6543508077   -1.3132188507
 H   -0.9279285001    1.7472518220   -0.1896798613
 H    1.3472458203    2.5015577691    0.8357229023
 H    2.1225714270    1.2349221789   -0.1451161799
 H    1.1965822978    2.3902392833   -2.2095829469
 H    0.3956132925    4.7013268358   -2.9519397146
 H   -0.6088235184    5.5316751883   -1.7452394674
 H    1.6949368359    6.6279350613   -2.2755995596
 H    1.3557685787    6.3781141255   -0.5700867157
 H    3.7368596532    5.4609576286   -1.4041670417
 H    3.5558748827    3.0265169219   -1.2722743628