17

 C   -0.0580411423    1.5934165629    0.1097488510
 C    0.2060309440    0.0963192871   -0.0261703117
 C    1.1996920252   -0.3489526856   -1.1069187369
 O    1.7086988731   -1.6141515169   -0.6612475458
 C    1.8517757557   -1.5618682753    0.7318133224
 C    3.2450137515   -1.1214806354    1.1889904662
 O    4.0901448468   -0.7095908150    0.4426406226
 C    0.8178849558   -0.5265197616    1.2304030303
 O    0.5836231952   -0.2568407158    2.3772057992
 H    0.8796427379    2.1492428485    0.2103632625
 H   -0.5904448333    1.9803209233   -0.7635503679
 H   -0.6618331052    1.7884459285    0.9997149863
 H   -0.7423838386   -0.4376764788   -0.1831244177
 H    0.7451841866   -0.5094093187   -2.0860613740
 H    2.0198739704    0.3746127501   -1.2106381917
 H    1.6392810509   -2.5434817723    1.1746604938
 H    3.3967875262   -1.1946777050    2.2877238812