18

 C    0.0701595169    1.5073789591    0.0074788581
 C   -0.1114044528    0.0014721073   -0.0983158575
 O    0.7173668180   -0.4719942919   -1.1395233629
 C    0.7713465537   -1.8863285073   -1.2827274874
 C   -0.5007135199   -2.4485410553   -1.9263915838
 C    2.0128337943   -2.1866168067   -2.1162965644
 H    1.1138627748    1.7537734959    0.2222880873
 H   -0.2084543882    1.9930678488   -0.9321387001
 H   -0.5568836176    1.9132143530    0.8071883070
 H    0.1598415896   -0.4869047807    0.8535366122
 H   -1.1697377740   -0.2364536385   -0.2899900744
 H    0.8928101509   -2.3393953209   -0.2832091568
 H   -0.4208876609   -3.5338749000   -2.0454254250
 H   -1.3881564282   -2.2471635222   -1.3197545428
 H   -0.6518627020   -2.0023075650   -2.9147980639
 H    2.9041678136   -1.7769416021   -1.6340149896
 H    2.1454390531   -3.2653511388   -2.2416821916
 H    1.9216155887   -1.7315811647   -3.1078230644