20

 C   -0.5282064547    1.4600752877   -0.0568898663
 C    0.0611274212    0.0553059035   -0.0396189101
 C    1.4047940870   -0.1390551470   -0.8095210032
 N    2.0243956027   -0.5513310937    0.4474938140
 C    3.2283563655   -1.1344456562    0.6595179020
 O    4.0731261790   -1.2779455168   -0.2029237821
 C    0.8031002273   -0.4394251367    1.2530427924
 C    0.9049996925    0.4852199196    2.4542578390
 O    1.6988819035   -0.1878938561    3.4206825534
 H    0.2134739013    2.2187977087    0.2119991017
 H   -0.8926984812    1.7014232614   -1.0608822114
 H   -1.3747588900    1.5525732832    0.6312221083
 H   -0.6992994791   -0.6634178626   -0.3527795460
 H    1.4106715356   -0.9199075473   -1.5768726445
 H    1.8353283547    0.7736033509   -1.2371412161
 H    3.3554727061   -1.4487807643    1.7120499158
 H    0.4424261947   -1.4116517727    1.6126380049
 H    1.3609418989    1.4397125272    2.1569865665
 H   -0.1064356377    0.6934479133    2.8391847835
 H    1.9166255528    0.4305168779    4.1240966982