17

 O    0.2673891775    0.1697735688    0.5553625900
 C    0.1144044656    1.3015365327    0.1513448547
 N   -1.0179536870    2.0700480752    0.2722437200
 C   -0.8982743283    3.3885880882   -0.3070394276
 C    0.6268796191    3.4742777782   -0.5849568805
 C    1.5169664239    4.1807321065    0.4176918815
 C    2.5261490929    3.3903252938    0.7768668879
 C    2.4299014071    2.0422288808    0.0935827050
 N    1.0888072288    2.0749167636   -0.5112270620
 H   -1.8931776656    1.6363902563    0.5094723102
 H   -1.4672065218    3.4876642215   -1.2405429437
 H   -1.2342951803    4.1741044974    0.3796031306
 H    0.7906489572    3.8946175405   -1.5863707059
 H    1.3624005294    5.2096082741    0.7196373325
 H    3.3446232419    3.6570437903    1.4342145066
 H    3.2089582820    1.9272480684   -0.6726446156
 H    2.4987449177    1.1820199735    0.7660349964