19

 C   -0.4298374497    1.3531686219   -0.2704681735
 C    0.4103138498    0.1395844850    0.0816843532
 O    0.8436499202   -0.0512593760    1.1956005178
 C    0.6365104323   -0.8442792778   -1.0478831242
 C    1.6343132386   -2.0148451570   -0.8456850888
 C    0.5945932226   -3.0020605290   -1.4558273639
 C   -0.4627477452   -1.9190171756   -1.2454415788
 C   -1.7660545225   -2.0274205903   -0.5889213654
 O   -1.6418346773   -1.7393027330   -1.9946082269
 H   -1.2936281768    1.0635212072   -0.8792500934
 H   -0.7498236862    1.8712894563    0.6345036595
 H    0.1680439960    2.0388859091   -0.8836217257
 H    0.7883641951   -0.3157751128   -1.9952022230
 H    2.5928196537   -1.9296620031   -1.3584117100
 H    1.8049674929   -2.1822082013    0.2190533583
 H    0.7661492170   -3.1830616543   -2.5209458133
 H    0.4400481739   -3.9589556515   -0.9523811989
 H   -2.1652586783   -3.0122459009   -0.3512325975
 H   -2.1487050160   -1.2121621670    0.0226733243