17

 C   -0.2586073590    1.2781916060    0.1302245652
 N   -0.3959678582   -0.1319540049    0.4418729885
 C    0.5542666890   -0.6556306733    1.1069051785
 N    1.7507900800   -0.1492057848    1.6045677926
 N    2.4455936022   -1.0626961481    2.3841636825
 C    1.7576480980   -2.1556485632    2.2792244616
 C    2.1224145457   -3.4685920299    2.8930005382
 O    1.0022419242   -4.0983204382    3.4987188903
 N    0.6331048041   -1.9890270990    1.5080010492
 H    0.6385335139    1.4975836778   -0.4728192947
 H   -1.1263919771    1.6078509373   -0.4470269768
 H   -0.2092222829    1.9170483077    1.0298769350
 H    1.9598392064    0.8265385736    1.7158912941
 H    2.4617882943   -4.1659164305    2.1187194523
 H    2.9561309982   -3.3053774349    3.5866575136
 H    0.7309598492   -3.5597172612    4.2500544565
 H   -0.1083627781   -2.6558259944    1.3824686233