14

 O   -0.0151024556    1.4427640912    0.0105970808
 C   -0.0124214448    0.0700735945   -0.0458143182
 C    0.6173271753   -0.7786340884   -1.1599024817
 N   -0.4902089098   -1.7917845322   -1.0122576972
 C   -1.1599814393   -0.9054150272   -0.0487957956
 C   -0.2817178336   -0.7868677436    1.1917979800
 C    0.5965067708   -1.8303547427    1.6448978954
 N    1.3260393457   -2.6475192980    2.0167696809
 H    0.7668538299    1.7378891799    0.4926847907
 H    0.5801721812   -0.2438721819   -2.1127948401
 H    1.6182432311   -1.1870767430   -0.9938549056
 H   -1.0265768391   -1.8587234866   -1.8708643614
 H   -2.2345991273   -0.7838129285    0.0075889905
 H   -0.7500292245   -0.2074419336    1.9823556815