21

 C    0.0240690021    1.6634166099   -0.2504657510
 C   -0.0208188201    0.1548106544   -0.1078803835
 C   -1.3072307686   -0.4332737761    0.4590251486
 C   -1.6307911721    0.0081211375    1.8849981102
 O   -2.7892556380   -0.7060374829    2.2920262475
 C    0.6209833623   -0.7685937773   -1.1419196273
 C    1.9600315786   -0.2142947855   -1.6119885674
 O    2.4080917283   -0.0186509216   -0.2424095318
 C    1.2124692444   -0.6336431275    0.2457475358
 H    1.0211316572    2.0030644573   -0.5365378298
 H   -0.6930850195    2.0087652581   -1.0038958023
 H   -0.2229317674    2.1583711496    0.6941723752
 H   -2.1540151962   -0.1738433040   -0.1886158572
 H   -1.2458461458   -1.5283078609    0.4618165608
 H   -0.7745270309   -0.2075878815    2.5442891191
 H   -1.8053228954    1.0938426233    1.9220473214
 H   -3.0309981425   -0.4090648638    3.1739515549
 H    0.0831969843   -1.5877327860   -1.6013914153
 H    2.5847470652   -0.9637627158   -2.1110145656
 H    1.9665485368    0.7153429850   -2.1930895072
 H    1.3058469975   -1.3222405423    1.0791723050