17

 C   -0.3680661032   -1.2867959928   -0.3542418653
 C   -0.1725704978   -0.1168954749   -0.1564919039
 C   -0.0013847015    1.3042889874    0.0420488720
 C   -0.0799712829    1.8582653315    1.5480249665
 C    1.4350882161    2.0357655303    1.4418963069
 C    2.8582623871    2.6473757012    1.4645238895
 C    2.7839104629    1.4248684763    0.4492597476
 O    2.0670089410    0.6772295538    1.4750998028
 C    1.4372918720    1.9750608757   -0.0861558239
 H   -0.5110204666   -2.3266494290   -0.5126006559
 H   -0.6980790461    1.8421461967   -0.6073620528
 H   -0.6336697913    2.7988628195    1.5871783141
 H   -0.4336530807    1.1709578998    2.3176431742
 H    2.9738623042    3.6572984782    1.0624652681
 H    3.4734175366    2.4601525690    2.3461094114
 H    3.6168421038    0.9281192626   -0.0550715544
 H    1.4455098364    2.8996210847   -0.6653155969