16

 O    0.0754672155   -0.0615513518   -0.2812291210
 C    0.0823785637    1.1470148229   -0.2156878536
 N    1.1732760201    1.8901143961    0.1619680250
 C    2.4861553863    1.4397311453    0.2367752991
 C    3.3190432062    2.4460424083    0.6358361352
 C    3.8720894135    3.2461447485   -0.5891732168
 C    2.5688312453    4.0731631089   -0.3944125697
 C    1.2918616324    3.3497887186    0.2101254108
 C    2.4460560305    3.6652086778    1.0547881484
 H   -0.7848349736    1.7845537126   -0.4694539622
 H    2.7421039978    0.5378587361   -0.3060490787
 H    4.7470382276    3.8696846264   -0.3768297203
 H    4.0227320613    2.6962936115   -1.5224944944
 H    2.3956573774    5.0629366833   -0.8097725946
 H    0.3632119072    3.9107870882    0.2043629312
 H    2.5141127788    4.2372885172    1.9717573916