18

 O    0.6008442789    0.6038667816   -0.9270433812
 C   -0.0744141817   -0.2448218541   -0.0350031904
 C    0.2319813779   -0.1753324181    1.4863818961
 C   -1.2707795711   -0.4247103323    1.7480689690
 C   -1.7683375476   -1.7818314415    2.2934321063
 C   -2.4163375411   -0.9343421990    3.4045928675
 O   -1.9093054359    0.2854680672    2.8231898947
 C   -1.5714401079    0.0071063514    0.2947898308
 H    0.4886827820    1.5093501120   -0.6184478510
 H    0.0801949348   -1.2553405327   -0.4237162117
 H    0.9628834500   -0.8664497120    1.9136866391
 H    0.4883905190    0.8478981272    1.7837937331
 H   -2.4640940877   -2.3161914942    1.6436093090
 H   -0.9835164494   -2.4662426835    2.6213263091
 H   -3.5121757451   -0.9463476032    3.4379675409
 H   -2.0286302412   -1.0962007978    4.4173201417
 H   -1.7980484372    1.0791934290    0.2730409315
 H   -2.3378340366   -0.5325619099   -0.2672188244