21

 C    0.0499563292    1.4486194187   -0.2031372394
 C    0.1886391830   -0.0488154708   -0.0445623100
 C    1.5596502827   -0.7017029709   -0.0433235989
 C    0.7579574530   -0.6406144119    1.2228869682
 O    1.2622333775    0.2291928404    2.2089192318
 C    0.1701962168   -1.9074176696    1.8223418304
 O   -0.3920833484   -2.7072030447    0.8013654096
 C    1.2238665341   -2.7200366401    2.5843618651
 O    0.6866916099   -3.9869460771    2.9693043521
 H    0.8289864997    1.9757724311    0.3542859083
 H    0.1319115569    1.7398253934   -1.2557393047
 H   -0.9230251050    1.8018277284    0.1590095533
 H   -0.5949003549   -0.6425627270   -0.5044456748
 H    1.6642686830   -1.6628650850   -0.5326579353
 H    2.4259388426   -0.0506029247   -0.0924630235
 H    0.5124149968    0.6684794711    2.6269283693
 H   -0.6176730877   -1.6063548560    2.5440745090
 H   -0.3943314771   -3.6067369816    1.1568412768
 H    2.0609592688   -2.9444266837    1.9166064461
 H    1.6056943255   -2.1543782379    3.4413528251
 H    0.0739310437   -3.8405463921    3.6979854816