17

 C   -0.0939521286    1.5083143564   -0.0612226082
 C    0.0220677603   -0.0032277519   -0.0495434914
 O    1.0993852812   -0.5688001719   -0.0778832590
 C   -1.2330273739   -0.7819121126   -0.0019049426
 N   -2.4232244741   -0.1672209628    0.0298947567
 N   -3.3087056965   -1.1623148328    0.0678666492
 C   -2.7321000627   -2.3960797829    0.0618186040
 C   -1.3696187470   -2.2014798392    0.0165135308
 C   -0.2961759858   -3.2427400446   -0.0073555671
 H    0.9058088467    1.9420832813   -0.0981549748
 H   -0.6825143617    1.8392165761   -0.9223438251
 H   -0.6253416997    1.8569867281    0.8295762998
 H   -4.2905829958   -0.9420137901    0.0974563243
 H   -3.3239306650   -3.2976857623    0.0893848610
 H    0.3250068353   -3.1501042977   -0.9026579982
 H    0.3806673246   -3.1327515414    0.8445749704
 H   -0.7275325173   -4.2476825516    0.0163103403