21

 C   -0.2137997574    1.5881394873   -0.0448376628
 C    0.0461274481    0.0824342902   -0.0067067280
 C    0.8330773568   -0.5094797679   -1.2045264333
 C    2.2218488738    0.1382326939   -1.3353272841
 O    2.9001391065   -0.3942188736   -0.1840986124
 C    1.9514408445   -1.2901806319    0.3982113135
 O    1.2177093805   -1.8007173635   -0.6967182548
 C    0.9016095371   -0.4828523984    1.1956003341
 C    1.5034208386    0.5247610391    2.1731729997
 H    0.7035420764    2.1810212164   -0.0002616487
 H   -0.7449017833    1.8650573531   -0.9624564960
 H   -0.8408912639    1.8952654554    0.7977860034
 H   -0.9240503770   -0.4238150308    0.0005511907
 H    0.2754267993   -0.6176931870   -2.1344415618
 H    2.7341982310   -0.1853950192   -2.2488768838
 H    2.2132184901    1.2313008692   -1.2986009623
 H    2.4795070248   -2.0851757184    0.9255351171
 H    0.2901654355   -1.1964011091    1.7579946105
 H    2.1939413856    1.2066807373    1.6723502145
 H    0.7262638198    1.1145756392    2.6684875077
 H    2.0676702829    0.0046809588    2.9550434269