18

 N   -0.0603925354   -1.1550633469   -0.1302825867
 C    0.0074231793   -0.0033913183   -0.0526378456
 C    0.0298603459    1.4472335734    0.0394934052
 C   -0.3200650880    2.0665666843    1.4363806050
 C    0.8492371597    1.5528237116    2.2899784305
 N    1.9763405980    1.5352543958    1.3122001565
 C    1.4324872593    2.1031908227    0.0703134334
 C    1.0388777355    3.5866041598    0.2669619588
 N   -0.1065114502    3.5073042502    1.2207755732
 H   -0.6049294332    1.8661380428   -0.7461278720
 H   -1.3122044489    1.8530662793    1.8318337602
 H    1.0229564534    2.2307667588    3.1302085339
 H    0.6655159743    0.5450064926    2.6782943044
 H    2.7699769546    2.0707563094    1.6434412613
 H    2.0791826565    1.9085069070   -0.7860613409
 H    1.8725677276    4.1543557732    0.6963584192
 H    0.7570012812    4.0724096693   -0.6756719900
 H   -0.9338534097    3.9191337949    0.8049312535