20

 C   -0.1403634590    1.5849481193   -0.0418015579
 C   -0.0064982741    0.0617057630   -0.0096051953
 C    0.9266910724   -0.5036807377   -1.0661220876
 C    2.3119865651   -0.5503856484   -0.5211420548
 C    2.2945453535   -0.2898619513    0.9884785732
 C    2.4927926567   -1.7279179456    1.5567008204
 C    1.1504598442   -1.9679582400    0.8301705316
 C    0.7481109396   -0.5064936321    1.1851865832
 N    1.5030479040   -1.8021882051   -0.6229256324
 H    0.8368919555    2.0682640232    0.0606687201
 H   -0.5823739409    1.9236454148   -0.9846829480
 H   -0.7807353998    1.9422795840    0.7711821926
 H   -1.0001407688   -0.3993998390   -0.0893212857
 H    0.7202798080   -0.4106954439   -2.1274171767
 H    3.2096537012   -0.4735045945   -1.1239018708
 H    2.8306784536    0.5764876212    1.3736314663
 H    3.3608673883   -2.3021694316    1.2232490902
 H    2.3973199081   -1.7719279261    2.6447026602
 H    0.5131953809   -2.8327065228    1.0121451425
 H    0.3628416714   -0.3290436371    2.1876519790