17

 O   -0.1336335965    1.3609371501    0.0740706796
 C   -0.0038955822   -0.0191163831   -0.0059344585
 C    0.3875821610   -0.7629842946   -1.3189884762
 C   -0.4285647418   -1.9104029925   -0.6946898742
 O   -0.9548428763   -2.9799883015   -1.3946807975
 C   -0.0007922776   -2.0913528601    0.8356805337
 C    0.8069491444   -0.8000628957    1.0561862470
 O   -1.3298099380   -1.6706857638    1.2626961506
 C   -1.3297761825   -0.9111643478    0.0513666886
 H    0.7448299670    1.7558076248    0.0545799495
 H   -0.1385844772   -0.3613131672   -2.1892075888
 H    1.4508859531   -0.8989847211   -1.5395645196
 H   -0.2340148458   -3.5642724428   -1.6540779714
 H    0.3245038711   -3.0401381884    1.2623964237
 H    1.8710756115   -0.8719219886    0.8119732387
 H    0.6725387521   -0.4276864373    2.0740092547
 H   -2.2820217524   -0.4996248404   -0.2769030299