21

 C   -0.0589489248    1.5254630953    0.1813661471
 C   -0.0613942960   -0.0052874319    0.1579494037
 O    0.2819234672   -0.5256451678    1.4370065257
 C   -1.3998595500   -0.5564341790   -0.3619017154
 C   -1.4855072931   -2.0686979297   -0.3380875402
 C   -1.8147062143   -2.8110269886    0.9330459588
 O   -2.1437880713   -1.9932819589    2.0414926393
 C   -2.8198023952   -2.7878828363   -0.1930991782
 O   -3.9944953420   -2.0616654885    0.0009063849
 H    0.8969718055    1.8918556682    0.5649746964
 H   -0.2142826896    1.9413700569   -0.8204115225
 H   -0.8537102246    1.9020483900    0.8355423141
 H    0.7378542900   -0.3426121133   -0.5185184018
 H   -0.5313637451   -0.7398001683    1.9111412440
 H   -2.2171914660   -0.1251680792    0.2260524625
 H   -1.5524322277   -0.2048226373   -1.3894102933
 H   -0.7539373535   -2.5722256162   -0.9657094702
 H   -1.2620981824   -3.7113045722    1.1877188564
 H   -2.4881006035   -2.5565805843    2.7425748334
 H   -2.9928643113   -3.6871661168   -0.7768271864
 H   -3.9317128924   -1.6746767621    0.8845109215