12

 C    0.0671720935    1.4667766949    0.1027757074
 C   -0.0680487682   -0.0035607377   -0.0203108603
 C   -1.0695513327   -0.8678475764   -0.2929405052
 N   -0.5940599017   -2.1839270036   -0.2719042053
 C    0.6561882849   -2.0311692020    0.0104628953
 O    1.5965810891   -2.9627689805    0.1570437785
 O    1.0771967598   -0.7703224142    0.1814294363
 H    0.7838368982    1.8709729964   -0.6213570888
 H   -0.9023186664    1.9365669379   -0.0789585415
 H    0.4074211598    1.7608730661    1.1022949986
 H   -2.1035878152   -0.6465323032   -0.5050154567
 H    1.1648605689   -3.8137530577    0.0084117916