23

 C   -0.1006895041    1.5890910884    0.1362929693
 C   -0.1361510773    0.0591159597    0.1169185368
 C    0.8633357266   -0.5715522886    1.1057999551
 C    0.8604875256   -2.0716918050    1.1011499163
 C    1.8856503887   -2.8761653409    0.7941860160
 C    1.5619520748   -4.3178271914    0.9889241645
 C    1.2437564796   -4.7154838614    2.4181399955
 C    0.1244443764   -4.3314179511    1.4851864816
 C   -0.3673703460   -2.8855390754    1.4926518239
 H    0.8945334412    1.9656163388   -0.1255843743
 H   -0.8152721814    2.0143120954   -0.5753856238
 H   -0.3485440290    1.9786375233    1.1301815560
 H   -1.1506605766   -0.2859755729    0.3509916893
 H    0.0858013322   -0.3063945465   -0.8933100982
 H    1.8731834661   -0.2096674369    0.8766286553
 H    0.6275281820   -0.2041648676    2.1162268579
 H    2.8672860315   -2.5315634789    0.4853307996
 H    1.9531903945   -5.0667852686    0.3088183567
 H    1.3231351405   -5.7663095793    2.6785313558
 H    1.5327110528   -4.0295334396    3.2086982932
 H   -0.5608211860   -5.1115715058    1.1754467602
 H   -0.7623748280   -2.5784654138    2.4709234932
 H   -1.1865935040   -2.7412714320    0.7752883904