17

 O    1.0486315792   -0.3384323764   -0.3988204511
 C    0.6330019304    0.7697443735   -0.6155066872
 C    1.2288457714    2.0450762479   -0.0692158200
 C    1.5319718616    3.0546154288   -1.1809295837
 C    1.7460516872    4.4631738017   -0.6455815598
 O    1.4336399502    4.7976824034    0.4740804783
 C    2.3401301655    5.4765856913   -1.5857438179
 C    3.6314964093    5.2262908900   -2.2598038599
 O    2.4073152209    5.1427065819   -2.9731604933
 H   -0.2640594225    0.9286424479   -1.2616474802
 H    0.4999596663    2.4999298781    0.6149209027
 H    2.1212810826    1.8022690369    0.5128378423
 H    2.3880771662    2.7458412901   -1.7896999312
 H    0.6955822387    3.1210705280   -1.8929047209
 H    2.0701530737    6.5052055242   -1.3534852318
 H    4.2638017934    6.0790975353   -2.4992998509
 H    4.1533680660    4.2840714774   -2.1014110252