17

 C    0.0997841644    1.5408895803    0.2307060990
 O    1.4660278371    1.5538877597   -0.2712148437
 C    1.3789465742    0.1850448901   -0.6216763130
 C   -0.0861491206    0.0365147211   -0.0582619971
 C    0.4612080735   -0.8961975214    1.1002665829
 C    1.7902380538   -0.9430991210    0.3254985059
 C    3.2831842013   -0.7255692578   -0.0149871240
 C    2.4229515360   -0.6793795395   -1.3500630848
 O    1.6677634704   -1.8408058098   -0.8589944706
 H    0.0499365535    1.8389402246    1.2836424816
 H   -0.5329253278    2.2039775909   -0.3696424368
 H   -0.9743601314   -0.2771577421   -0.6017895908
 H    0.5071971908   -0.3898801142    2.0676680705
 H   -0.0207419171   -1.8684849780    1.2199393655
 H    3.7267370978    0.2115799608    0.3282771625
 H    3.9570347864   -1.5811282937    0.0649768815
 H    2.7818504177   -0.7107822801   -2.3825386986