19

 C   -0.1562208627    1.4431578381    0.1488021663
 C   -0.1031259702   -0.0089993275    0.0649276357
 C   -0.0671489550   -1.2109829889   -0.0064483709
 C   -0.0290134965   -2.6554253881   -0.0742724705
 C    0.4569227020   -3.4704941029    1.1819092079
 C   -0.8333427786   -4.3323450498    1.1311521887
 C   -2.0060020819   -3.7462924295    1.9326933528
 O   -2.3656658504   -2.8612415954    0.8441528262
 C   -1.3785396844   -3.4413331847   -0.0202237996
 H    0.4735019843    1.8191040776    0.9631378199
 H    0.1904499095    1.9114116384   -0.7793210225
 H   -1.1782370921    1.7920807744    0.3342415538
 H    0.5291559894   -2.9796963495   -0.9610067840
 H    1.3841400618   -4.0202679205    1.0099679168
 H    0.5661257939   -2.8749842243    2.0909671521
 H   -0.7282068601   -5.4148916506    1.0828533419
 H   -2.8162071861   -4.4546650080    2.1493406465
 H   -1.7515639762   -3.1992726511    2.8491299420
 H   -1.8031209368   -3.7844645080   -0.9678653632