13

 O   -0.0177710713    0.0357054732    0.0775593817
 C   -0.0514873338    1.2301308626    0.0487009576
 C   -1.2956716336    2.1227469584   -0.0131640250
 C   -0.7363543066    3.5167814218    0.0050765627
 C    0.5949211876    3.5511337683    0.0455435299
 C    1.2087064240    2.1672756913    0.0476540279
 C    2.0959862653    1.9046921876    1.1768694301
 N    2.7927291807    1.7165311203    2.0794179259
 H   -1.8710917367    1.8895206128   -0.9182456878
 H   -1.9570307622    1.8995940508    0.8335335554
 H   -1.3698137214    4.3955335037   -0.0158113313
 H    1.2064190622    4.4438157796    0.0722770634
 H    1.7707109159    1.9616879795   -0.8746357305