17

 C   -0.0415586426    1.3419385362    0.0194094372
 O   -0.0609410748   -0.0811288763    0.0663122307
 C   -1.2703228032   -0.6504624060    0.0491489071
 N   -1.3801230910   -1.9643208600    0.0942376935
 N   -2.7508472575   -2.1203334298    0.0400042097
 C   -3.3420814788   -3.4356060077    0.0348660359
 C   -3.3414805457   -0.9126601521   -0.0054035800
 N   -4.7106392403   -0.7302770906   -0.1173483869
 N   -2.4346331270    0.0554122445   -0.0067318202
 H    1.0123782285    1.6232111562    0.0368284967
 H   -0.5146414966    1.7152246889   -0.8942649022
 H   -0.5595136275    1.7743461372    0.8813931711
 H   -3.4428718636   -3.8423184521    1.0478789889
 H   -4.3268739021   -3.3826840964   -0.4358610998
 H   -2.7032596024   -4.1020497454   -0.5470336134
 H   -5.2627242612   -1.2710537109    0.5351905711
 H   -4.9424565941    0.2521332442   -0.0555388994