17

 O   -0.1003600956    1.3565626339    0.1459316621
 C    0.0468991304   -0.0198857448    0.0176377888
 C    0.8635894051   -0.7738331364   -1.0209477701
 C   -0.1075179623   -1.9815343949   -0.7635158685
 O    0.4066625977   -2.8862974651    0.2082437103
 C    0.5023490268   -2.1787784332    1.4460081465
 C   -0.2783492227   -0.8921541459    1.2250721250
 O   -0.7609024099   -0.2475156066    2.3509968581
 C   -1.0900950671   -1.0310340123   -0.0436831669
 H    0.7513395151    1.7256330821    0.4111875297
 H    0.7157458845   -0.3512060649   -2.0193672574
 H    1.9290361848   -0.9550452673   -0.8432477971
 H   -0.4334053874   -2.5524993658   -1.6302625823
 H    0.0464395429   -2.7737518795    2.2462801795
 H    1.5549195060   -1.9999041461    1.7050294570
 H   -0.8151086122    0.6923845840    2.1274956709
 H   -2.1623784961   -0.9285660073   -0.1346061659