18

 C    0.0895392506    1.4989634995   -0.0116105623
 C   -0.0163289041    0.0135706026   -0.0409341392
 N   -1.0545857051   -0.6779640949    0.2140817160
 C   -0.6859038132   -2.0815672547    0.0590602758
 C   -1.1197989171   -3.0201999416    1.2122425258
 O   -1.9543796793   -3.8003970577    0.3364391983
 C   -1.6614188813   -2.9422517153   -0.7816059052
 C    0.8064416611   -2.0429037679   -0.3448139350
 O    1.1300053277   -0.6389755742   -0.3778507455
 H    0.8549977378    1.8091560644    0.7064793352
 H    0.3936707382    1.8755935982   -0.9931645970
 H   -0.8712804881    1.9303634620    0.2660567354
 H   -0.3190419072   -3.6211549367    1.6641635428
 H   -1.6921427263   -2.5147856748    1.9982705096
 H   -2.5423584281   -2.3924247897   -1.1316013416
 H   -1.2107594877   -3.4928217627   -1.6184869095
 H    1.4634361915   -2.5326528438    0.3808837333
 H    0.9969587105   -2.4655533324   -1.3363796669