16

 N   -0.4758286809    0.8216127541    0.9628247406
 C   -0.2012979080   -0.0663389668    0.0849389121
 N   -1.1316573221   -0.5530652454   -0.7895730876
 C   -2.5054319294   -0.1006415638   -0.7801264624
 C   -3.2988176181   -0.6382135956    0.4375866213
 C   -4.6961056355   -0.2213025826    0.3938288806
 N   -5.7996405648    0.1154326875    0.3282052122
 C    1.1839187333   -0.6542431855   -0.0925601750
 O    2.1166812704   -0.3203061621    0.5864291396
 H    0.3805605130    1.0526812974    1.4691640095
 H   -0.8821298524   -1.3322875647   -1.3745650947
 H   -2.5122093497    0.9925991927   -0.7453344904
 H   -2.9827157643   -0.4180045785   -1.7100148728
 H   -3.2541738746   -1.7324687285    0.4631291671
 H   -2.8307293411   -0.2607965119    1.3513633629
 H    1.2921007342   -1.4195295461   -0.8949763832