16

 C   -0.0299060887    1.4967175763    0.0654989494
 C    0.0140432511    0.0094083525   -0.0227761342
 N   -0.0104061963   -0.7058112006   -1.1069377339
 C    0.0340767721   -2.0376807661   -0.7026873888
 C   -0.0060573979   -3.1709596168   -1.6027312718
 O   -0.0562444736   -3.1385987577   -2.8125300947
 C    0.0971919238   -2.0996167065    0.6850649098
 N    0.2432002709   -3.1437220053    1.5868327463
 N    0.0793320388   -0.7989283611    1.1071368826
 H    0.8609593286    1.9033503227    0.5585478637
 H   -0.0798594288    1.8999801211   -0.9463003992
 H   -0.9061265473    1.8460425625    0.6241955879
 H    0.0063731400   -4.1560985375   -1.0683761401
 H    0.2055000770   -4.0504182599    1.1417350097
 H   -0.4006545179   -3.1141007996    2.3685951311
 H    0.1896990481   -0.4928334939    2.0604319120