21

 C    0.4461580361    0.9881441382    0.4035542593
 O   -0.3502651889    0.1558792393   -0.4220400765
 C    0.4000445256   -0.5531495152   -1.3499647949
 C    1.3265738789   -1.6733597670   -0.9894401302
 O    0.8764853912   -2.3886777603    0.1532000384
 C   -0.3195521615   -2.8481848871   -0.5753594270
 C   -0.1407077483   -4.3233840709   -0.9184090253
 C   -1.6035079224   -2.5952664862    0.1982417649
 C    0.0412986337   -1.9489306500   -1.7727606092
 H    1.1610129360    0.3977245331    0.9905748047
 H    0.9998933336    1.7321488442   -0.1885752831
 H   -0.2339152095    1.5109860831    1.0797464379
 H    0.7735468605    0.0534659124   -2.1807564874
 H    2.3781042121   -1.7368298930   -1.2500970844
 H   -0.1325866123   -4.9223203192   -0.0027668525
 H   -0.9639511260   -4.6734054588   -1.5511713707
 H    0.7999206034   -4.4895741410   -1.4503415954
 H   -1.6994170999   -1.5422232519    0.4563564038
 H   -2.4680293179   -2.8934049915   -0.4047398393
 H   -1.6109887426   -3.1952383009    1.1147943773
 H   -0.1206504117   -2.2236118175   -2.8076869604