22

 C   -1.3225964188    0.8484333409    0.5600495457
 C   -0.0195379566    0.2275026265    0.0389564364
 C    0.7582390741   -0.4394056676    1.1565086818
 C    0.6730523002   -1.8955201068    1.4589857451
 C   -0.1092305277   -2.8787288844    0.6000719916
 O    0.2296000933   -2.8231843693   -0.7754409454
 C    1.6346237260   -2.9113099592   -0.9505700557
 C    2.3237543118   -1.6515541695   -0.4308090000
 N    1.9254053058   -1.3131640498    0.9453673550
 H   -1.1263153228    1.5826667977    1.3491547258
 H   -1.8630752243    1.3585819722   -0.2428369524
 H   -1.9865569517    0.0845366090    0.9782196183
 H   -0.2408228481   -0.4882544669   -0.7557088467
 H    0.6022780911    1.0169494870   -0.4058962615
 H    0.9077424275    0.2216839598    2.0122016766
 H    0.7339860710   -2.2080600838    2.5018756379
 H    0.0759110059   -3.8974258834    0.9809125789
 H   -1.1867372760   -2.6926802465    0.6631048634
 H    2.0206207801   -3.8020007359   -0.4275918239
 H    1.8147412370   -3.0409882478   -2.0216009196
 H    3.4103431646   -1.8029824603   -0.4409934041
 H    2.1116616575   -0.8155000320   -1.1070008572