21

 C   -0.0058541738    1.5221748381    0.0600875742
 C   -0.0822173410   -0.0030600122   -0.0256117751
 C   -1.5514846851   -0.4555515585    0.0170626223
 C    0.6552378794   -0.5041617700   -1.2826955201
 C    0.8515776316   -2.0296821682   -1.2864808901
 C    1.3605834223   -2.5539198590    0.0454233939
 O    2.1167135925   -3.4911556788    0.1436906170
 C    0.7902557103   -1.8554621844    1.2793633339
 O    0.6328512199   -0.4570227430    1.1376927443
 H    1.0375554015    1.8457724217    0.1032368515
 H   -0.4809412831    1.9833632764   -0.8107448059
 H   -0.5110410391    1.8786747577    0.9620404476
 H   -2.1111388687   -0.0019327082   -0.8065833989
 H   -1.6684083023   -1.5395208292   -0.0664764349
 H   -2.0095034006   -0.1389615680    0.9584651355
 H    0.1174900827   -0.1914754853   -2.1845674318
 H    1.6363627036   -0.0170117181   -1.3104020668
 H   -0.1092539821   -2.5318210347   -1.4684915312
 H    1.5312115681   -2.3586218792   -2.0767060324
 H   -0.1652630212   -2.3521110737    1.5260607627
 H    1.4697734350   -2.0180350833    2.1189790043