23

 C   -0.2155042968    1.3685271655    0.1041715990
 O   -0.2181838167   -0.0358414400    0.1419477598
 C    0.7501304986   -0.5599591395    1.0324478254
 C    0.6697367127   -2.0695143830    0.9963070118
 C    0.8107114509   -2.6619162988   -0.3942479790
 C    1.2454662274   -2.8725997628    2.1583504008
 C    1.9218320982   -2.2497326876    3.3624004160
 C   -0.2559756414   -2.7646173577    1.9611253529
 O   -1.0040625247   -1.9535444407    2.8223581806
 H    0.7548399594    1.7693254149   -0.2328849618
 H   -0.9889223149    1.6802202486   -0.6024650983
 H   -0.4394325639    1.8059162740    1.0904356316
 H    1.7589487413   -0.2320570732    0.7217982127
 H    0.5712075000   -0.1773600637    2.0449986149
 H    1.7994365954   -2.4397604401   -0.8140507687
 H    0.6966542617   -3.7502924443   -0.3750165208
 H    0.0570471071   -2.2465686499   -1.0679833985
 H    1.6803655168   -3.8234927408    1.8575074108
 H    1.3373392765   -1.4237411252    3.7735862286
 H    2.0451762341   -2.9938172126    4.1577309778
 H    2.9191579940   -1.8700623334    3.1154157812
 H   -0.7910982362   -3.6408858518    1.5937750237
 H   -1.0996253494   -2.4181935777    3.6605630096