22

 C    0.1158243464    1.4751052236    0.1242840345
 C   -0.0729434818   -0.0061628663   -0.0417911651
 C   -0.9745283585   -0.8078040229    0.8137295911
 N    0.4890079848   -0.9818201670    0.9606038166
 C    1.0637851779   -1.7754186728   -0.2063051911
 C    2.4070781628   -2.3914372841    0.0332123884
 C    0.0848211868   -2.2259297611   -1.2570630392
 C    0.5479658300   -0.7866068809   -1.2343139132
 C    1.2177054949   -0.1197780899   -2.4030085270
 H    1.1521024974    1.7715438816   -0.0684371040
 H   -0.5289554975    2.0347694397   -0.5636818077
 H   -0.1330302536    1.7760479964    1.1456853960
 H   -1.4015413174   -0.2993204298    1.6746165380
 H   -1.5992435736   -1.6074896808    0.4348189805
 H    2.3254822045   -3.2441915545    0.7179759226
 H    2.8486463906   -2.7504265750   -0.9016044790
 H    3.0909275720   -1.6668831347    0.4866964574
 H    0.5567976125   -2.8084273633   -2.0442219136
 H   -0.9351196395   -2.5388842780   -1.0626277754
 H    0.4829600245    0.2977223895   -3.1027281878
 H    1.8765856331    0.6967179940   -2.0895562305
 H    1.8264028638   -0.8385685336   -2.9607186717