17

 O    0.4871130790    0.9133881416   -0.8284677982
 C    0.0728859778   -0.2486401302   -0.1692549610
 C    0.2902592690   -0.3573851229    1.3802650295
 C   -1.2233776154   -0.6363202622    1.5985169636
 O   -1.5434999682   -1.7475510780    2.3555783672
 C   -1.4553377341   -0.4187041857    0.0399979648
 N   -2.0655518094    0.8883058333    0.4008410962
 C   -2.1156965839    0.5869728326    1.7678138060
 N   -2.7364437064    0.9926401444    2.7899000128
 H   -0.0693224206    1.6253488183   -0.4838341426
 H    0.5134252032   -1.0946842045   -0.7025944861
 H    0.8945126919   -1.2167168574    1.6785528260
 H    0.6824089877    0.5404391520    1.8631303913
 H   -2.3134288023   -1.5164589908    2.8910310976
 H   -2.0585969793   -1.0618527616   -0.6005892927
 H   -2.8109510361    1.3380169984   -0.1125325468
 H   -3.3703049129    1.7674217529    2.5883499124