14

 C    0.0486867781    1.3612959873   -0.1500008255
 C    1.5189681164    1.8440346443    0.1367948120
 C    2.1201245473    0.5497490770    0.6034517634
 C    1.1346597368   -0.3717548965    0.6857297099
 N    1.6808762297   -1.5278987885    1.1532052320
 C    3.0291952058   -1.2281595137    1.3357061060
 N    3.3175436894    0.0139534178    1.0161666716
 O   -0.1201932868   -0.0197706330    0.3467997556
 H   -0.7083739719    1.9679474223    0.3496583029
 H   -0.1641978578    1.3359672499   -1.2220388830
 H    1.9726209320    2.2562747928   -0.7705649895
 H    1.5407197918    2.6329573268    0.8983108618
 H    1.2251679093   -2.4082922893    1.3211001268
 H    3.7222488599   -1.9712336472    1.6983432559