21

 C    0.0608702427    1.5390629968   -0.0557501921
 C   -0.0026246671    0.0144733684    0.0048447635
 O    0.5948842619   -0.4680914283   -1.1921138162
 C    0.8290397113   -1.8646096853   -1.1704598866
 C    1.8369916006   -2.2364484461   -0.0986431607
 C    2.3752683011   -3.6502264166   -0.0809878833
 C    3.2791853208   -2.5163733877   -0.4790612045
 C    1.5469951666   -1.5439759796    1.1781624677
 C    0.6768070840   -0.5363328566    1.2359535261
 H    1.1018983452    1.8741667053   -0.0585216275
 H   -0.4241363969    1.8976111487   -0.9675082581
 H   -0.4477336530    1.9787826229    0.8074219610
 H   -1.0677448307   -0.2890995159    0.0214403209
 H   -0.1156668006   -2.4055828753   -0.9889556068
 H    1.1867962853   -2.1358156809   -2.1686576048
 H    2.5299518982   -4.1227005310    0.8835802934
 H    2.0304874199   -4.3281532301   -0.8558727490
 H    3.5498246226   -2.4152354080   -1.5250625376
 H    4.0546177028   -2.2087471717    0.2140919902
 H    2.0557939531   -1.8944168689    2.0736233053
 H    0.4330730423   -0.0590503902    2.1812741891