17

 N   -0.0328343666   -1.1395170438   -0.1234891631
 C   -0.0229234815    0.0163008740   -0.0692047655
 C    0.0101236048    1.4462099799    0.0332390324
 C   -0.6201067118    2.3309903547    1.1705815276
 C    0.7678141657    2.9923976372    1.3760674768
 C    1.2852463447    2.3667084446    0.0544720143
 C    0.6886969846    3.0354885582   -1.1984686543
 N   -0.6336517709    2.3336689063   -1.0373885892
 C   -1.4394726254    2.9959524592    0.0485206865
 H   -1.1391057354    1.9319328648    2.0411248276
 H    0.7980135247    4.0826066694    1.4625358807
 H    1.2804736476    2.5550783707    2.2369273641
 H    2.3090732708    1.9964151038    0.0211915608
 H    0.6249396287    4.1284294651   -1.2101822580
 H    1.1639906130    2.6986952146   -2.1244559692
 H   -2.4700735916    2.6315860926    0.0047440010
 H   -1.4484499212    4.0899117387    0.0051461973