19

 C    0.5293204990    1.4243186967    0.1162909834
 C    0.0873607121    0.0012709870   -0.0102218976
 C    0.1583493141   -0.7832213683   -1.0885223326
 C   -0.4465435886   -2.1435735355   -0.8577137513
 C   -0.5300103820   -2.2197701608    0.7080053137
 N    0.6451797785   -2.8404283970    1.3387289702
 C   -0.5770114007   -0.7230472731    1.1423079449
 C   -1.7205721147   -2.9641252160    1.1427004448
 N   -2.6656625153   -3.5510428564    1.4550794783
 H    1.2668210381    1.5420169844    0.9200257797
 H    0.9730151281    1.7922600920   -0.8125329896
 H   -0.3145368366    2.0774820805    0.3725489742
 H    0.5651649282   -0.4815666204   -2.0476937132
 H   -1.4401728204   -2.2219772033   -1.3184782677
 H    0.1497191689   -2.9749589092   -1.2503828511
 H    0.7523690766   -3.7940404777    1.0027621181
 H    1.4713277441   -2.3305126389    1.0346847570
 H   -0.0658854709   -0.5999416668    2.1025257451
 H   -1.6085686784   -0.3761956871    1.2798249534