17

 C   -0.0492624738    1.5938392794    0.2500375085
 C   -0.0556266508    0.0858792197    0.1483332190
 C   -1.2732836796   -0.5308685992   -0.5278179907
 C   -1.3373051483   -0.1660306363   -2.0027033032
 O   -2.3155723293    0.2657345120   -2.5534826731
 O    1.1827861863   -0.5203166734   -0.2136802435
 C    0.7126336562   -0.7670139066    1.1082615221
 C    1.4874100782   -0.1901456992    2.2520078887
 O    2.2878561308    0.7056547438    2.1678271882
 H    0.8758370425    1.9464967912    0.7051761219
 H   -0.1368306946    2.0335916120   -0.7492934065
 H   -0.9033914730    1.9421962922    0.8396431989
 H   -1.2012788302   -1.6242564052   -0.4697126197
 H   -2.2026679500   -0.2142574138   -0.0463472026
 H   -0.3892110331   -0.3446717209   -2.5560985336
 H    0.3392353423   -1.7766273496    1.2894634228
 H    1.2467779163   -0.6662950263    3.2289908428