17

 N    0.6110816252    1.1161404616    0.1688851407
 C    0.1975274325   -0.1790892573    0.0464261979
 C   -1.0350934567   -0.7248131617    0.1243860087
 C   -0.9360415056   -2.1827000363   -0.0253801307
 O   -1.7924370778   -3.0350023177    0.0772593591
 N    0.4102969558   -2.4478172808   -0.3378036450
 C    1.2352463156   -1.2699156329   -0.1770401457
 C    2.1230087750   -1.0166188546   -1.4102391848
 O    2.9528332890    0.1334482790   -1.2545970858
 H    1.5007612513    1.3301440412   -0.2625730130
 H   -0.0929532348    1.8332318051    0.0889710693
 H   -1.9755377446   -0.2164513355    0.2767544141
 H    0.7672836402   -3.3641216621   -0.1163867111
 H    1.8878905511   -1.3365285441    0.7097556266
 H    2.7223518348   -1.9121360932   -1.6217820831
 H    1.4886564156   -0.8280747824   -2.2804601138
 H    3.6533128535   -0.0835687385   -0.6304603734