17

 O   -0.0095270254    1.4714019365    0.4066134991
 C   -0.0089782006    0.1118334382    0.1722371700
 C   -1.2097541584   -0.9025934278    0.2619557225
 C   -0.1158577322   -1.9149455688    0.5264798650
 C   -0.6271647458   -1.5780876065   -0.9414090045
 C    0.3983948426   -0.4938978738   -1.2078229720
 C    1.7309147825   -0.6819569916   -1.2984193904
 C    2.2848764940   -0.6390969944    0.1309721369
 C    0.9448384362   -0.8168465928    0.9273923655
 H   -0.2766031607    1.9174463526   -0.4052650909
 H   -2.2204979047   -0.8269510525    0.6362741009
 H   -0.2134411178   -2.9161463471    0.9271817720
 H   -1.0414248330   -2.3624735900   -1.5629010195
 H    2.2052188625   -1.2980294913   -2.0569901334
 H    3.0095730948   -1.4541845810    0.2434091328
 H    2.7856333387    0.2794433155    0.4629845980
 H    1.0099090173   -0.7036080755    2.0139298679