18

 C   -0.1278918745    1.4271565713   -0.1049464396
 N   -0.0199855738   -0.0071313138   -0.1070501834
 C   -1.0289873266   -1.0693707533   -0.1429458364
 C    0.1436357556   -2.0876279353   -0.0362192162
 C    0.2841230203   -3.1579106871    1.0612406215
 C    0.5136097053   -4.1212353190   -0.1203669295
 O    0.2897309717   -3.0555184646   -1.0744379627
 C    1.0719578650   -0.8372545162   -0.0519334984
 O    2.2560537761   -0.6251392377   -0.0050512277
 H    0.8846597352    1.8348735349   -0.0539880726
 H   -0.6126329981    1.7957630710   -1.0172255384
 H   -0.6993885862    1.7868388370    0.7598106378
 H   -1.7296532998   -1.0552567278    0.7007711929
 H   -1.5798637930   -1.1390696265   -1.0873026045
 H    1.1325361778   -3.0161301517    1.7318077360
 H   -0.6208443333   -3.3402648934    1.6429664195
 H    1.5268136347   -4.5283917313   -0.2027144140
 H   -0.2147619764   -4.9306355464   -0.2403601541