23

 C   -1.5509574297   -0.3862925897    0.1888378888
 C   -0.0796201917    0.0240294577    0.0761540489
 C    0.7535266178   -0.3443640491    1.3149633524
 C    0.8598188470   -1.8667304059    1.5849314502
 C    2.2922272931   -2.1158361417    2.1231040769
 O    2.8837985553   -3.3282005965    1.6664953725
 C    3.0257652561   -0.8660784638    1.7075653957
 C    2.2125124596    0.0940441754    1.2612781457
 C    2.6137898888    1.4691047965    0.8232774874
 H   -2.0265312033    0.0896580640    1.0539696675
 H   -2.1129410194   -0.0927879354   -0.7031753914
 H   -1.6587702101   -1.4692052514    0.3075840179
 H    0.3704360990   -0.4480593884   -0.8079450959
 H   -0.0226131690    1.1066427039   -0.0904346536
 H    0.2828967624    0.1491236165    2.1812597988
 H    0.0843896314   -2.2464326811    2.2543343214
 H    0.7617652075   -2.4139297880    0.6383782296
 H    2.2918048432   -2.2242929889    3.2157216626
 H    3.0074587648   -3.2403593937    0.7145651069
 H    4.1025875779   -0.7779204329    1.8133751093
 H    3.6909013004    1.6229475245    0.9291934758
 H    2.3465650824    1.6541281527   -0.2239552537
 H    2.1005864164    2.2384209952    1.4148595563