18

 C    0.0596161047    1.5569601050   -0.2723288128
 C    0.0515737975    0.0719393752    0.0057873665
 C    1.2798602294   -0.7869024007   -0.0666034236
 O    2.5269483420   -0.1362119399   -0.1095841338
 C    2.8401509471    0.4312650624    1.1619743623
 C    1.6387142058    0.1891323772    2.0488899479
 N    1.5089027738    0.4916931054    3.2788041550
 O    2.6749597753    1.1322268147    3.7470079582
 C    0.6276344571   -0.5685640748    1.2799944008
 H    1.0361588287    2.0055177607   -0.0801421951
 H   -0.1818121791    1.7448536312   -1.3237773193
 H   -0.6814293791    2.0785186764    0.3416744448
 H   -0.8543015806   -0.4372123792   -0.3162643627
 H    1.2818718216   -1.7394340718   -0.5859057739
 H    3.7356856632   -0.0471883393    1.5816501955
 H    3.0586104777    1.5009199067    1.0584551624
 H    2.4626914532    1.2930542077    4.6722867164
 H    0.0429993518   -1.3186761467    1.7967823515