19

 O   -0.0658111659    1.4007759977    0.0099908238
 C    0.0090999184   -0.0251150608   -0.0036675746
 C    0.6706219725   -0.5986097571    1.2898395713
 C   -0.0217833229   -1.9510123876    1.5464148902
 C   -1.4206800490   -1.7826920362    0.9656910952
 C   -2.1672369315   -0.5181589791    1.3068763250
 C   -1.4004728733   -0.6107610606    0.0116003055
 C    0.7287533139   -0.4819795181   -1.2008841063
 C    1.3462440231   -0.8359410309   -2.1704417872
 H    0.8093997703    1.7411689505   -0.2051831290
 H    1.7547131743   -0.6851363382    1.1912246392
 H    0.4674705468    0.1146286144    2.0934085355
 H    0.4982561766   -2.7512949396    1.0081164634
 H   -0.0226551762   -2.2203745155    2.6082368597
 H   -1.9947562144   -2.6730400095    0.7350381743
 H   -3.2480964121   -0.5436914726    1.2244625728
 H   -1.8026840625    0.1299741734    2.0959710497
 H   -1.9429957903   -0.6177784071   -0.9254665168
 H    1.8807849622   -1.1501090431   -3.0328187917