18

 N    0.0036687116   -1.3030296036   -0.2148971763
 C   -0.0356025236   -0.1481736794   -0.2251128784
 C   -0.0719058992    1.3118039226   -0.2327606291
 C    1.2842993524    1.9752238739    0.0186129759
 C    2.2686407092    1.3659194615    0.9807499147
 C    2.5498746247    1.3387702422   -0.5027369134
 C    1.1787152071    3.4736012884   -0.0493900843
 C    0.9941039793    4.3109813361    1.1455770012
 O    2.2609185163    4.2273605409    0.4835519744
 H   -0.4726689128    1.6350159891   -1.2026537737
 H   -0.7942472277    1.6383666281    0.5263179609
 H    2.8529131786    2.0504590068    1.5839980857
 H    1.9993851782    0.4323011585    1.4617324384
 H    2.4724891009    0.3878753085   -1.0180616903
 H    3.3181123867    2.0048083083   -0.8789092302
 H    0.7979273075    3.8601485865   -0.9983796068
 H    0.4910095270    5.2727528569    1.0641938860
 H    0.9536630535    3.8380061348    2.1251849653