19

 C   -0.3815557826    1.0275667932    0.7364779714
 C   -0.1165650012   -0.3502239402    0.3500208229
 C    0.1037216974   -1.4924842187    0.0392751437
 C    0.3660820098   -2.8773797561   -0.3636519072
 C    1.0544196323   -3.7218188151    0.7309818730
 C   -0.1226528251   -4.2424888860    1.5694129271
 O   -0.2447082427   -3.4249678830    2.7250703928
 C   -1.3305282633   -4.1060838938    0.6006793426
 O   -0.8360767574   -3.6055257073   -0.6349916121
 H    0.4047759480    1.6989903139    0.3740198137
 H   -1.3324753357    1.3795618894    0.3213270347
 H   -0.4335098715    1.1337061468    1.8256525572
 H    0.9378325132   -2.8806815315   -1.2973892564
 H    1.5782660156   -4.5547269443    0.2552689350
 H    1.7563364329   -3.1594042467    1.3470555717
 H    0.0332394709   -5.2892948697    1.8636051036
 H   -1.0424425130   -3.6869727041    3.1954461999
 H   -1.8297555627   -5.0569749498    0.3900637411
 H   -2.0582446949   -3.4107426869    1.0449359654