16

 N   -0.0427998046    1.4845161392    0.0245428189
 C    0.0465785389    0.0374121176   -0.0389764496
 C    0.8182846176   -0.4955042520    1.1788935413
 O    2.1625314223   -0.0071900527    1.1990184956
 C    0.2049232817   -0.0390798902    2.4387019438
 N   -0.2800380598    0.2502009707    3.4457475864
 C    0.7728408916   -2.0607149737    1.1839513805
 N    1.9000005993   -2.6261636171    1.6810356000
 O   -0.1858644849   -2.6679907218    0.7603343951
 H    0.8786783774    1.9039176137   -0.0345848994
 H   -0.5977678677    1.8440085295   -0.7430299810
 H   -0.9527948297   -0.4018389234   -0.0234358804
 H    0.5553258509   -0.3710208416   -0.9334947943
 H    2.5670608621   -0.2672713859    0.3618483368
 H    2.6054445638   -2.0487975390    2.1078395893
 H    1.9106266313   -3.6225672531    1.8268634371