16

 O   -0.0406004721   -0.1370767865    0.1696324618
 C   -0.0070649282    1.0613018973    0.2168660565
 C    1.2548452275    1.9083812274    0.0551082116
 C    1.4654506952    2.8480725572    1.2871236235
 C    2.6697341002    2.2335495970    1.9661634307
 C    3.1932659016    1.2759229916    1.2019335287
 N    2.4685376583    1.0956526451    0.0141739594
 C    2.7800488409    0.1770558472   -0.9534915927
 O    3.7553273958   -0.5399163465   -0.9232555296
 H   -0.9253998852    1.6705187685    0.3816663047
 H    1.1283397734    2.4890761091   -0.8674275860
 H    1.6516979459    3.8826817143    0.9758858161
 H    0.5742899673    2.8714161139    1.9261769840
 H    3.0548206009    2.5588276842    2.9208833319
 H    4.0582532038    0.6491117649    1.3557907209
 H    2.0468101845    0.1801859851   -1.7799375517