17

 C   -0.1005190738    1.4974178940    0.0665994989
 C    0.1564646971    0.0271493579   -0.0425222600
 N   -0.7564187910   -0.9829684645    0.5648354030
 C    0.6891027749   -0.9629426785    0.9374040820
 C    1.3481380966   -1.8007333718   -0.1589500646
 O    0.9366175148   -3.1313732762   -0.2718968238
 C    0.7815144634   -0.7423166347   -1.2168577664
 O   -0.0831696489   -1.1945884085   -2.2158597535
 H    0.7981343338    2.0682707465   -0.1894498128
 H   -0.8979882378    1.8082372900   -0.6174614064
 H   -0.3981336917    1.7770496502    1.0834319497
 H   -1.2798897919   -0.5260841851    1.3094054227
 H    0.9860550079   -0.8267954692    1.9707712075
 H    2.4398398937   -1.7954586765   -0.1239108853
 H   -0.0149212411   -3.1307912414   -0.1061733245
 H    1.5891623349   -0.1924733453   -1.7070712388
 H   -0.8532579008   -1.5554611967   -1.7586419477