21

 C   -0.1871440613    1.4129262472    0.0181419668
 O    0.0352302040    0.0231712945   -0.0525503137
 C    0.7190885464   -0.5338318551    1.0665240370
 C    0.1611735845   -1.9404783837    1.3715548090
 C    1.3791176972   -2.7907094437    1.7996988947
 C    2.5440434601   -2.0144937404    1.2359786069
 C    2.1998573316   -0.7928014451    0.8259210353
 C    3.1059882101    0.2401689978    0.2247643964
 O    4.4138720232   -0.2311685973   -0.0497010550
 H    0.7470570119    1.9946590813    0.0055628996
 H   -0.7766054873    1.6894044040   -0.8601248927
 H   -0.7506285714    1.6906982149    0.9222956230
 H    0.5891636128    0.1436477494    1.9275079592
 H   -0.6437584002   -1.9241948272    2.1100997099
 H   -0.2555896614   -2.3210359273    0.4342083030
 H    1.4549377355   -2.8664431081    2.8934009396
 H    1.3305032850   -3.8201756952    1.4266826963
 H    3.5564376990   -2.4020521779    1.2145173412
 H    2.6310346992    0.6528134700   -0.6801461023
 H    3.2333251113    1.0835068990    0.9174032536
 H    4.3274771499   -0.9593002472   -0.6742307778