17

 N   -0.1995796157    1.4432428249   -0.0614015984
 C   -0.0050797756    0.0055743638    0.0122915231
 C    0.7845671256   -0.5793276239   -1.1928716888
 O    0.2043310616   -0.1692108869   -2.4178093954
 C    0.7242780342   -0.3513614246    1.2881891368
 O    1.4004552364    0.3970307476    1.9400323434
 O    0.5485462219   -1.6810431660    1.5744004168
 C    1.1789242717   -2.1957258194    2.6836976685
 N    1.0425348567   -3.4231726506    2.9157342646
 H    0.6135348100    1.9080810786    0.3325098045
 H   -0.2678464240    1.7035561854   -1.0412045396
 H   -0.9789638446   -0.5039133264    0.0400612652
 H    1.8004204325   -0.1694651795   -1.1903318718
 H    0.8497404176   -1.6725015083   -1.1136895464
 H   -0.6192474483   -0.6544269238   -2.5375199764
 H    1.7351455200   -1.4431592452    3.2422942568
 H    1.5510055901   -3.6732654159    3.7628231271