12

 O    0.0063569269    1.2780244446   -0.0512523703
 C    0.0390646564   -0.0455006537   -0.0657055436
 N    0.0468088425   -0.8173101668   -1.0970846920
 N    0.0854462621   -2.1544067812   -0.6181859617
 C    0.0984280177   -2.1040837463    0.6641865211
 O    0.1331944116   -3.1065954256    1.5471825844
 N    0.0709668559   -0.7939639060    1.1332382498
 C    0.0727861188   -0.3019272097    2.4225447487
 O    0.0452249319    0.8860420432    2.6615192638
 H    0.0094273755    1.5677870518    0.8819958969
 H    0.1480906925   -3.9305020945    1.0405275728
 H    0.1004753282   -1.0865518660    3.1916360999