18

 C   -0.7787693017    1.2789624048   -0.1473425521
 C   -0.0528410978   -0.0612157832   -0.0973346192
 C    1.0967602193   -0.2461084143   -1.1015938567
 O    1.8553658091    0.9499452475   -1.1093976393
 C    1.8565491233   -1.4329288624   -0.4940689829
 O    1.5929726232   -1.4343647202    0.9145133769
 C    0.6582492635   -0.4141352426    1.2326159469
 C    1.3354575079    0.7341361585    1.8746095439
 N    1.8442649832    1.6118478846    2.4274170570
 H   -0.0826395293    2.1072563675   -0.0084887885
 H   -1.2744829426    1.4062168236   -1.1142334166
 H   -1.5460701172    1.3344807941    0.6311301851
 H   -0.7659338617   -0.8751649059   -0.2735566876
 H    0.7225807778   -0.4825983584   -2.1077896470
 H    2.6824174053    0.7932021788   -1.5749125628
 H    1.5138732412   -2.3858794949   -0.9180527909
 H    2.9377136869   -1.3511080232   -0.6597625699
 H   -0.0482496503   -0.8187987942    1.9658983339