18

 C    0.1831709838    1.5117503090   -0.2939511640
 C    0.0147870067    0.0487560527    0.0420446021
 N    1.2350585630   -0.7702670841    0.1433656892
 C    0.4029457489   -0.5772441666    1.3363559468
 C    1.0291062666    0.1933357222    2.4908169830
 C    1.7966733181   -0.6597020290    3.3875997718
 C    2.4241311835   -1.3712510615    4.1357748818
 C    3.1766058419   -2.2447564532    4.9963330682
 O    3.5893438264   -1.9440723566    6.0935538477
 H    1.0758062229    1.9327073399    0.1736956806
 H    0.2874091438    1.6420325858   -1.3761456387
 H   -0.6882888502    2.0899942446    0.0316371644
 H   -0.8449163129   -0.4156730839   -0.4409334240
 H    1.0958502408   -1.6948538781   -0.2533451598
 H   -0.2077861188   -1.4169209073    1.6640490948
 H    1.6905009696    0.9723815106    2.0976274819
 H    0.2460066784    0.7051200820    3.0663031809
 H    3.3598440775   -3.2521628764    4.5689321234