18

 C    0.0681648270    1.7247880272    0.3545940390
 C   -0.0492394573    0.5616838637    1.3359644888
 C    0.9130393438   -0.5677132908    1.0327474951
 O    1.7018491918   -0.5376471199    0.1132449726
 C    0.9130446796   -1.7782616670    1.9346270069
 N    0.1666102578   -1.7420137454    3.1938127570
 C   -0.2922113358   -2.6682504055    2.1485924981
 C   -1.5795015955   -2.4505922235    1.5480041354
 C   -2.6598738197   -2.3292140224    1.0347876969
 H   -0.1444878150    1.3984558422   -0.6668376355
 H   -0.6346346436    2.5203827703    0.6171353172
 H    1.0790236317    2.1408385845    0.3567004071
 H    0.1331490375    0.8770151037    2.3713989770
 H   -1.0649633187    0.1480187820    1.3533892884
 H    1.8602487012   -2.3118031299    1.8902226291
 H    0.6615034603   -2.2489831760    3.9226050051
 H   -0.0407721771   -3.7205184688    2.2703701670
 H   -3.6143578983   -2.2102322846    0.5841793047