25

 C    0.1733064768    1.6046843921   -0.1598569873
 C    0.1249350157    0.0758054569   -0.1442420009
 O    0.8901423586   -0.4505535600    0.9408572771
 C   -1.3162861041   -0.4547295123   -0.1480731926
 C   -1.4802259850   -1.9750400598   -0.0302552840
 C   -0.6690318372   -2.7274713614   -1.0896118353
 C   -1.2976144943   -2.6064658903    1.3897580692
 C   -2.6051689748   -3.4148416773    1.1830249925
 C   -2.9652651757   -2.4663757192    0.0089313769
 H    1.2102415516    1.9514048403   -0.1515577777
 H   -0.3228764050    2.0097126957   -1.0480578533
 H   -0.3330995772    2.0183465868    0.7214883516
 H    0.6438034545   -0.2962237075   -1.0350904841
 H    0.4712401306   -0.1650199547    1.7603070787
 H   -1.8704463417    0.0248245611    0.6733159257
 H   -1.8006897505   -0.1142990322   -1.0746824784
 H    0.4058339397   -2.5958545491   -0.9334534574
 H   -0.8768959973   -3.8019979238   -1.0537128762
 H   -0.9167338906   -2.3780605303   -2.0993381805
 H   -0.3739242304   -3.1618474976    1.5671624357
 H   -1.4063446505   -1.8607517073    2.1837078181
 H   -2.4164141508   -4.4391212428    0.8509807067
 H   -3.3053460736   -3.4552503361    2.0206762338
 H   -3.6474660897   -1.6692542721    0.3217819460
 H   -3.3598291092   -2.9163616991   -0.9070449042