19

 C   -0.0172962977    1.5418247584    0.2100991331
 C    0.0236363443    0.0358038766    0.0076824172
 C    0.7580560028   -0.5862759418   -1.2517342744
 C    1.2604557634   -1.7572473376   -0.3357157667
 C    2.6997829315   -2.2270955761   -0.1132343265
 C    3.0425378235   -1.7099772683    1.3176328719
 O    4.0373372348   -1.9938484540    1.9403632728
 C    1.9797995182   -0.7349912533    1.7021406357
 C    0.9987286515   -0.8032487567    0.7964540856
 H    0.9890970016    1.9693352013    0.1604520195
 H   -0.6306042773    2.0218643958   -0.5593715034
 H   -0.4449401067    1.7974624080    1.1850396296
 H   -0.9861097387   -0.3893635676    0.0602508610
 H    0.1349273091   -0.8470053627   -2.1100941715
 H    1.5810366580    0.0582152275   -1.5730084560
 H    0.5465952053   -2.5864992989   -0.3741048584
 H    2.8542633665   -3.3062214555   -0.1836562362
 H    3.4011695711   -1.7519798153   -0.8087926305
 H    2.1024226089   -0.0424153798    2.5244701772