23

 C   -0.0346392968    1.4095566531    0.0436345892
 O   -0.0077194871    0.0041401095    0.0205666306
 C    0.6412138106   -0.5154012984   -1.1192177305
 C    0.6148901361   -2.0360671458   -1.0457877021
 C    1.2986327686   -2.7003079474   -2.2446940954
 C    1.2733619059   -4.2299403834   -2.1728709488
 C    1.9637779446   -4.8904983288   -3.3831621525
 C    1.9472763003   -6.3471864005   -3.3267423975
 C    1.9194714386   -7.5468662080   -3.2557195146
 H    0.9800301480    1.8397754628    0.0521940848
 H   -0.5721714859    1.8244338615   -0.8244969573
 H   -0.5531724351    1.7135106685    0.9563920915
 H    0.1391690931   -0.1659663391   -2.0392569772
 H    1.6829547924   -0.1505880268   -1.1673060046
 H    1.1008849270   -2.3487598602   -0.1136883093
 H   -0.4294511121   -2.3639854183   -0.9779889477
 H    0.8120907138   -2.3722808034   -3.1740322095
 H    2.3406438789   -2.3570181282   -2.3107375439
 H    1.7651732874   -4.5691896778   -1.2537197675
 H    0.2375387207   -4.5845065248   -2.1167573400
 H    1.4762356322   -4.5559669841   -4.3086645796
 H    3.0026416593   -4.5399605709   -3.4466201486
 H    1.9002789696   -8.6068999495   -3.2039275594