15

 N    0.0318892047   -1.1756358897   -0.0344788704
 C    0.0324676573   -0.0244750001   -0.1317587991
 C    0.0621328381    1.4308258601   -0.2448104026
 C    1.3766187844    2.0231651797    0.3068184271
 C    1.4141748735    3.5305104174    0.1447313817
 C    2.6517527365    4.2356615112   -0.2462411375
 O    1.6076491598    4.0106557273   -1.1898995066
 C    0.4188472428    4.2654484877    0.9114729653
 N   -0.3847553638    4.8109341759    1.5377523795
 H   -0.0523809806    1.7086078915   -1.2981049274
 H   -0.7978393346    1.8450275827    0.2934722514
 H    1.4896688745    1.7640446003    1.3640781722
 H    2.2269178732    1.5991472273   -0.2334084867
 H    2.7960332358    5.2702717724    0.0560563351
 H    3.5556968984    3.6474410961   -0.3924010918