18

 N   -0.1512946776    1.2844271947    0.0607909976
 C    0.0032237000    0.0383814894    0.1101696676
 O    0.9996535901   -0.6426377947    0.7503803266
 C    0.9044234875   -2.0245575739    0.3989086185
 C   -0.5397408388   -2.1649550998   -0.0935809672
 C   -0.8326904634   -3.2629692981   -1.1345943277
 C   -1.4475003379   -4.1246785681    0.0052788613
 C   -1.5510913784   -2.8382390117    0.8714549960
 O   -0.8455440653   -0.8277674415   -0.4921554874
 H    0.6146141848    1.7484721728    0.5433378777
 H    1.6285036165   -2.2494970781   -0.3944088886
 H    1.1311289333   -2.6291951736    1.2794674548
 H   -1.5898819938   -2.9165552266   -1.8416792597
 H    0.0180948732   -3.6634524070   -1.6919343235
 H   -2.3782640621   -4.6477337921   -0.2170281723
 H   -0.7329823312   -4.8451816985    0.4114214587
 H   -1.2805841301   -2.8952957528    1.9285742937
 H   -2.5284700867   -2.3595384805    0.7770682438