18

 C    0.0444635214    1.5347375158    0.0034658728
 C   -0.0178205404    0.0065861155    0.0278484039
 C   -1.4504517488   -0.5389786904    0.0021866530
 C   -1.5330766040   -2.0901132565   -0.0066313366
 O   -2.3855996401   -2.4135090227    1.1142643579
 C   -2.6558969767   -1.2217499223    1.7183503174
 N   -2.2045641327   -0.1469187735    1.2065030954
 C   -3.4478922836   -1.3042849390    2.8999686219
 C   -4.1168453735   -1.3835902395    3.8944450811
 H    1.0796048785    1.8865338336    0.0447525878
 H   -0.4073154025    1.9329099576   -0.9120092676
 H   -0.4986174435    1.9547160287    0.8536142779
 H    0.5218898670   -0.4075818640   -0.8340919713
 H    0.4822335931   -0.3780815635    0.9257914216
 H   -1.9674680757   -0.1151452905   -0.8691948123
 H   -1.9866019276   -2.5045119892   -0.9101071901
 H   -0.5603563861   -2.5672480497    0.1561753064
 H   -4.7078767848   -1.4448371104    4.7751893911