16

 O    0.0895401877    1.3153528842    0.2682565469
 C    0.0686804041   -0.0215190189    0.0391459763
 C    0.0631190063   -0.7858856203   -1.1147722796
 C    0.0375984445   -2.1584894683   -0.7129178356
 C    0.0291184106   -2.1753014694    0.6638799659
 C    0.0077981483   -3.0043258929    1.8474933456
 C    0.0136517013   -2.2250394053    2.9466094803
 C    0.0404418388   -0.7581575258    2.5567856123
 N    0.0482777191   -0.8563296149    1.1066348147
 H    0.1018813962    1.7671442532   -0.5807154408
 H    0.0758081019   -0.4032753829   -2.1243339186
 H    0.0272818172   -3.0156415470   -1.3679626011
 H   -0.0100388430   -4.0854239796    1.8312793552
 H    0.0017007284   -2.5491616733    3.9771564276
 H   -0.8370668263   -0.2052909876    2.9169584344
 H    0.9310619249   -0.2346594913    2.9284860566