21

 C   -0.2333544853    1.5627290063   -0.0017076909
 C    0.0533850179    0.0668586765   -0.0163576831
 C    1.1904629228   -0.4833194558   -0.9433975703
 C    1.8131909039   -1.2439595490    0.2637407105
 C    2.9077970916   -0.4930842226    1.0580760444
 O    2.6420350731    0.9107594472    0.9561276178
 C    1.8993446590    0.1543462643    1.9183239528
 C    0.7393125604   -0.6114323854    1.2171840316
 C   -0.0958863554   -1.4484888248    2.1613117965
 H    0.6806644812    2.1366174064    0.1640849912
 H   -0.6695455711    1.8830112911   -0.9547248530
 H   -0.9495659824    1.8193949064    0.7878095332
 H   -0.8783013985   -0.4739885321   -0.2208647034
 H    0.8411011498   -1.1320871835   -1.7497481326
 H    1.8389636880    0.2882519495   -1.3622265158
 H    1.9320802217   -2.3260153863    0.2003625512
 H    3.9361858525   -0.7783976042    1.2515939032
 H    1.9459559608    0.4975591421    2.9474952012
 H   -0.7688935516   -0.8190843781    2.7572178510
 H   -0.7117393697   -2.1688526278    1.6126824927
 H    0.5333248512   -2.0115831401    2.8610777420