19

 C   -0.0762618678    1.5265639276    0.0019743174
 N    1.1797474542    0.7292663741    0.0513446020
 C   -0.1136202958    0.0576540414    0.0048594528
 C   -0.5139375532   -1.0098236040    1.0276246609
 C   -2.0295211981   -0.9840847801    1.2222631381
 O   -2.6852887466   -0.5567654797    0.0312788855
 C   -2.0629378692   -0.9620900012   -1.1820123892
 C   -0.5410588601   -0.9897038300   -1.0295289915
 N   -0.2530887126   -2.0762375087   -0.0165306099
 H   -0.2947551389    2.0858286367    0.9075246922
 H   -0.3257021097    2.0464303200   -0.9199288703
 H    1.6149093975    0.7246195079   -0.8692619743
 H    0.0406079431   -1.0992155600    1.9637981944
 H   -2.3652514122   -1.9873588401    1.5227904590
 H   -2.3199323975   -0.2660957119    1.9967394714
 H   -2.4026715975   -1.9617800432   -1.4908585352
 H   -2.3750920467   -0.2328235797   -1.9377370448
 H   -0.0225849040   -1.0668985271   -1.9899694271
 H    0.7523237551   -2.2447768319   -0.0269902614