18

 O   -0.0798783717    1.4947570080   -0.1159806112
 C    0.0417785428    0.0827693474   -0.0575288219
 C   -1.3642267946   -0.4966618741    0.0256130761
 C   -1.3807359221   -2.0333560793    0.0954272500
 C   -0.9432029067   -2.6617958926    1.3984970213
 C   -1.9347800117   -3.4296475507    1.8602566908
 N   -3.0399694873   -3.4073197231    0.9967491757
 C   -2.8169333480   -2.5730489544   -0.0837309075
 O   -3.6030981544   -2.3219046545   -0.9674092062
 H    0.8029616521    1.8718717785   -0.1694859927
 H    0.5511983407   -0.3133286037   -0.9519923256
 H    0.6340768016   -0.2280703718    0.8186120802
 H   -1.8694219864   -0.0777740908    0.9028245418
 H   -1.9344358552   -0.1860053399   -0.8559260394
 H   -0.7899227087   -2.4249016126   -0.7463309538
 H    0.0177000885   -2.5227654171    1.8695362653
 H   -1.9768890818   -4.0328168771    2.7560803456
 H   -3.9223126271   -3.8638869523    1.1566155416