15

 C   -0.0686415804    1.5790764794    0.0148053569
 C   -0.0288613325    0.0632618663   -0.0058134812
 C    1.2044508940   -0.6514799018   -0.6259653436
 O    2.0274736201   -0.2219057850    0.5251167040
 C    0.7500603587   -0.6865734810    1.1147327787
 C    0.8693337999   -1.9304471415    0.2088350710
 O   -0.2941472528   -2.6739719623   -0.0152829830
 H    0.9081067997    1.9872268353    0.2832664482
 H   -0.3536304007    1.9740304648   -0.9664355930
 H   -0.8080282566    1.9388990621    0.7384858614
 H   -0.9881237571   -0.3904506178   -0.2645789074
 H    1.6448523200   -0.5529633810   -1.6198071869
 H    0.6458876003   -0.6278756077    2.1989302631
 H    1.7507178802   -2.5425107231    0.4268876000
 H   -0.0948292626   -3.3637181266   -0.6556193381