18

 O    0.0799685761   -0.0236952411   -0.0276064609
 C   -0.0210409492    1.1769103396   -0.0542081159
 C   -1.3541503694    1.9976175526   -0.1026597230
 C   -0.8505934870    3.4021641672   -0.4310962252
 C   -0.7242110834    4.7452521343    0.3748833144
 C   -0.0636546578    3.9617586013    1.5311769446
 C    0.5463852233    3.3907190750    0.2018209072
 C    0.7180271735    4.8585913024   -0.2741200040
 N    1.0547949649    2.0764215649   -0.0083005717
 H   -2.0267653788    1.5696188723   -0.8474184087
 H   -1.8349020531    1.8836185677    0.8735656177
 H   -0.8339673417    3.5534119932   -1.5148325205
 H   -1.4471836999    5.5554386990    0.4593175042
 H    0.6147523845    4.5243076367    2.1772059348
 H   -0.7019509812    3.2978002229    2.1163824071
 H    0.7578460368    5.0255553498   -1.3530308575
 H    1.4347818327    5.4840152210    0.2642759053
 H    1.9349554399    1.7307037712    0.3452290922