21

 C   -0.0572264613    1.3156557047   -0.2195602577
 O   -0.0239591220   -0.0845686511   -0.1000739192
 C   -1.3105461925   -0.6537145578    0.0186354896
 C   -1.1623446484   -2.1671847283    0.1037569874
 C   -2.5115875542   -2.8531022737    0.2324368112
 O   -3.3586253880   -2.6606236854   -0.9323770797
 C   -3.3281888347   -4.0644545769   -1.2569505183
 C   -2.5456407681   -4.3880007004    0.0366824962
 O   -1.2720706148   -4.9695660152   -0.0916341438
 H    0.9749982809    1.6625892336   -0.3135753232
 H   -0.6230168204    1.6385323553   -1.1083898100
 H   -0.5122590662    1.7928138983    0.6638562552
 H   -1.8198594961   -0.2640760181    0.9187439185
 H   -1.9359264117   -0.3859144343   -0.8479535199
 H   -0.6393063299   -2.5329988469   -0.7840255155
 H   -0.5439330175   -2.4272185273    0.9704445502
 H   -3.0315557012   -2.5057736439    1.1360552524
 H   -4.3355677243   -4.4880491029   -1.3498599761
 H   -2.7557108897   -4.2709126215   -2.1706327087
 H   -3.1470129983   -4.9054924835    0.7940565043
 H   -1.3741577716   -5.9237464047   -0.1553220928