17

 C   -0.0954446984    1.4225585657    0.0353672000
 N   -0.0392346975   -0.0209499975    0.0108907327
 N    0.0000292245   -0.7235697081   -1.1683820848
 C    0.0397643490   -1.9783607425   -0.7593673349
 C    0.1185722524   -3.1433111230   -1.7014378192
 N    1.3144055781   -3.9827192028   -1.5477681809
 N    0.0354522836   -2.1402947435    0.6049344738
 C   -0.0148672957   -0.8978848487    1.0294224538
 O   -0.0432503154   -0.4788300623    2.3010918677
 H    0.7814052940    1.8434213232   -0.4638715864
 H   -0.9966280050    1.7745200819   -0.4737912115
 H   -0.1140077369    1.7498371244    1.0754397234
 H   -0.7586977799   -3.7839191698   -1.5541489727
 H    0.0756679155   -2.7625654176   -2.7255465270
 H    2.1409730689   -3.4074142581   -1.6898984546
 H    1.3644158056   -4.2953246527   -0.5812366103
 H   -0.0264388929   -1.2706039785    2.8532201810