17

 C   -0.2040576950    1.4604395929    0.0817270168
 N    0.0833644639    0.0366747200    0.0134964297
 C    1.1526009027   -0.4352594585   -0.9136233218
 C    1.8570795234   -1.1445807578    0.2350179165
 O    2.3685640227   -2.4010549595    0.0575334315
 C    2.2039386201   -0.1856475743    1.3227368261
 C    0.7321898263   -0.5933352723    1.1574687781
 C   -0.0075890130   -1.1924355968    2.2184840993
 N   -0.5902828774   -1.6907298882    3.0865020658
 H    0.6754855302    2.0917142726    0.2969570251
 H   -0.6300393474    1.7848135197   -0.8723508786
 H   -0.9509193194    1.6366477718    0.8612778674
 H    0.7600585818   -1.1209146681   -1.6699152274
 H    1.7359605594    0.3562832050   -1.4006511396
 H    2.9945593743   -2.5989656419    0.7611541820
 H    2.6775752265   -0.6302405109    2.1945203130
 H    2.5177977112    0.8347520462    1.1144603361