15

 N    0.1505108221    1.4279287905   -0.0089671865
 C    0.0237343710    0.0233229700   -0.0206017302
 C   -1.0504677459   -0.8352793447   -0.0166094913
 O   -2.3541914552   -0.4522407210    0.0015764122
 C   -0.5546598593   -2.1801337167   -0.0346582919
 C    0.8324864526   -2.0891134469   -0.0496676034
 N    1.1601381824   -0.7731753276   -0.0407477752
 C   -1.3780419425   -3.3243976226   -0.0359956112
 C   -2.1552222771   -4.2480161940   -0.0363243848
 H   -0.2823819134    1.8337119759    0.8150913182
 H   -0.3019714152    1.8489234666   -0.8146599371
 H   -2.8905653195   -1.2549037296    0.0001227906
 H    1.5767572683   -2.8673113180   -0.0654423767
 H    2.0887107867   -0.3876151796   -0.0475915816
 H   -2.8140262950   -5.0802252323   -0.0376790212