19

 C   -0.1271371180    1.5962739899    0.0868173403
 C    0.0767675966    0.0807042229    0.0239145010
 C    0.8970362009   -0.4209329642   -1.1424325032
 C    1.6708296304   -1.4672363106   -0.8056522406
 C    1.4764968810   -1.8189131718    0.6646979496
 C    0.8338278447   -0.5366466228    1.2399133822
 O    1.8152983780    0.3403899106    1.7716107112
 C    2.5254025051   -2.2049939520   -1.6581674718
 C    3.2703958290   -2.8598033159   -2.3432108169
 H    0.8259595934    2.1255174311    0.1600430461
 H   -0.6492693945    1.9520051321   -0.8071952260
 H   -0.7253966439    1.8729577406    0.9601920290
 H   -0.9167228856   -0.3942536653   -0.0261676978
 H    0.8322155295   -0.0006234005   -2.1397470793
 H    0.8094669553   -2.6855936203    0.7611296392
 H    2.4066513848   -2.0652669245    1.1847416091
 H    0.1600995256   -0.7438484745    2.0752070081
 H    2.4685765952    0.4995335174    1.0800885755
 H    3.9201865726   -3.4292997423   -2.9601626557