18

 O   -0.3471334181    0.6120994241    1.2097614386
 C    0.5119404825    0.6936784572    0.3706566865
 C    1.1828807603    1.9992947884   -0.0547828020
 C    1.3974067879    2.9826229898    1.1417472751
 N    2.7913305639    3.0144733445    1.6045661387
 C    3.6558289146    3.3658012871    0.4145436420
 C    3.5714484544    1.8899502864   -0.0167496835
 C    3.3504330306    1.6143973690    1.4871567011
 O    2.3786468014    1.6838733730   -0.7681953212
 H    0.8869844450   -0.1911959898   -0.1907684767
 H    0.4949269033    2.4526374535   -0.7819647683
 H    1.1146188626    4.0000082290    0.8584083797
 H    0.7388313188    2.6667098924    1.9566564525
 H    3.2392403730    4.1108805948   -0.2681629785
 H    4.6483719451    3.6758399580    0.7538140353
 H    4.3767601423    1.4078070041   -0.5756825047
 H    4.2855126077    1.5373092359    2.0481618123
 H    2.6817242048    0.8048707926    1.7920047132