15

 N    0.3383989576    1.1824610470    0.4872079737
 C   -0.0808385233   -0.1508336534    0.0210837347
 C   -1.5433893910   -0.1460128481   -0.1621465648
 N   -2.6799138021   -0.1328594564   -0.3682496050
 C    0.5938171229   -0.6560502868   -1.2333016046
 C    1.8448146468   -1.2146900938   -1.4177208369
 C    1.9533165488   -1.3932604632   -2.8124148163
 N    0.8598312755   -0.9861508116   -3.4517248041
 N    0.0544881465   -0.5351923698   -2.4742761333
 H    1.3372938176    1.1550584869    0.6721356557
 H    0.2071236938    1.8574519039   -0.2619362248
 H    0.1420654549   -0.8538800331    0.8319834863
 H    2.5672302937   -1.4585460664   -0.6550314263
 H    2.7787881221   -1.8052894133   -3.3738154415
 H   -0.8771921138   -0.2252641119   -2.7037649028