16

 C   -0.0048196996   -1.2795962840   -0.0493284011
 C   -0.0161137667   -0.0774578421   -0.0172859742
 C   -0.0277104704    1.3680502720    0.0439227291
 C   -0.2637565924    2.1028591148    1.3891577231
 C    0.9199971580    1.6929905362    2.2945802164
 C    1.7280341834    2.9455949829    1.9839768604
 C    2.0197396687    1.6802652031    1.2329626079
 N    1.3144575022    2.0910967048   -0.0223765599
 C    0.7067500237    3.2067759506    0.8558875923
 H    0.0052112266   -2.3408458992   -0.0858832776
 H   -0.6584872788    1.7877949599   -0.7476629896
 H   -1.2477999608    2.2736407240    1.8233111473
 H    0.9289163515    1.0657181959    3.1742351012
 H    2.3496341631    3.5850437662    2.5942794891
 H    2.8798882195    1.0254688847    1.2410587361
 H    0.4251939419    4.1453375903    0.3835245095