17

 C   -0.0520794195    1.5075014315   -0.0023384084
 C    0.0125538052    0.0535360097   -0.0239490423
 C    0.0766310496   -1.1475644247   -0.0469558945
 C    0.1232953025   -2.6124176520   -0.0590301468
 C   -1.2956205042   -3.2050812824    0.2029761263
 C   -1.2960770248   -4.7131169776    0.3470873367
 O   -1.8980767910   -5.3046975800    1.2061850687
 C    0.6961046917   -3.1219831736   -1.3114982599
 C    1.1508415992   -3.5514016268   -2.3370382088
 H    0.5861551943    1.9215053768    0.7857073944
 H    0.2797628121    1.9309567220   -0.9564535275
 H   -1.0742250702    1.8569079261    0.1792174820
 H    0.7735686388   -2.9405947190    0.7656762687
 H   -1.7249154452   -2.7626030737    1.1042651451
 H   -1.9362124038   -2.9417813728   -0.6480838727
 H   -0.6980386647   -5.2558525460   -0.4169246766
 H    1.5626169100   -3.9222784775   -3.2431589743