15

 N    0.0733848319    1.4207377171    0.2156597715
 C    0.0140751537    0.0311462725    0.0329398875
 C   -1.0667498394   -0.8285819269    0.0823709555
 N   -0.5697372418   -2.0873602425   -0.0758236985
 N    0.7675092406   -2.1151569739   -0.2333109277
 C    1.1119406703   -0.8387492552   -0.1604851037
 O    2.3911784087   -0.3843590175   -0.2867135589
 C    3.4149662520   -1.2261748079    0.0298688918
 N    4.5947133071   -0.8542778345   -0.2065231475
 H    0.9846359164    1.7796494666   -0.0418980720
 H   -0.6375779719    1.9211700591   -0.3024627595
 H   -2.1197682259   -0.6428875706    0.2184307592
 H   -1.0812147646   -2.9499155020   -0.1247375739
 H    3.0724713867   -2.1628676063    0.4755806337
 H    5.2481269261   -1.5708089679    0.1038798626