21

 C   -0.6437044177    1.0506044446    0.0884579204
 C    0.2138519206   -0.2045916623   -0.1763660874
 C    1.1816239592    0.0345087496   -1.3447014317
 C    0.9445802168   -0.6386116009    1.0656005170
 C    2.2152980881   -0.3414751189    1.5294321597
 C    2.3170064218   -1.0049122397    2.7663856203
 N    1.2052847189   -1.6696513066    3.0628616112
 N    0.3781525641   -1.4341073588    2.0181487805
 C   -0.9324741466   -2.0489694887    2.0140444182
 H   -0.0065134722    1.8953201832    0.3694097632
 H   -1.2077457055    1.3297522513   -0.8077550586
 H   -1.3579008035    0.8900527469    0.9016121923
 H   -0.4662233583   -1.0156550452   -0.4695606133
 H    1.8639962774    0.8625589500   -1.1261726506
 H    1.7848018577   -0.8538491453   -1.5509286502
 H    0.6275558645    0.2941391766   -2.2520837785
 H    2.9595166913    0.2645801174    1.0388880751
 H    3.1522239714   -1.0299068215    3.4511733041
 H   -1.7276031381   -1.2974246706    1.9848496591
 H   -1.0531191304   -2.7226802861    1.1592941015
 H   -1.0156262594   -2.6231363849    2.9358468776