21

 O    0.0804042700    1.3176076065   -0.2663392717
 C   -0.0323261119   -0.0384444988    0.1494567162
 C   -1.4555815964   -0.5325328497    0.1409113859
 C   -2.4824406836    0.1416543206    1.0580027713
 C   -3.4999543236   -0.9847833692    1.3832033818
 C   -3.2709736329   -2.0117470061    0.2673597513
 C   -3.4657254378   -1.3610349786   -1.1436950459
 C   -1.9590334459   -1.1041853205   -1.1869030323
 C   -1.7352179414   -2.0058326682    0.0147447128
 H   -0.3438397594    1.3851983826   -1.1283026180
 H    0.5978235462   -0.6999168550   -0.4679033718
 H    0.3728766591   -0.0612231517    1.1676120464
 H   -1.9965841179    0.5284421945    1.9592868288
 H   -2.9606299530    0.9971015723    0.5706313765
 H   -3.2741734679   -1.4346259041    2.3569445056
 H   -4.5344456954   -0.6272764226    1.4175108271
 H   -3.7631315546   -2.9725589129    0.4185802166
 H   -3.7617372790   -2.1017259913   -1.8911530250
 H   -4.1439157846   -0.5019628445   -1.2101195242
 H   -1.3545175305   -1.0247072503   -2.0855334245
 H   -1.0209281695   -2.8035956230    0.1737787331