19

 C   -0.0043744221    1.5535404496    0.0208485914
 C    0.0413202458    0.0512796050    0.0855421124
 C   -1.2521305427   -0.7995973141    0.2444268845
 C   -0.3572055103   -1.8641707381    0.8709816970
 C    0.9764114210   -1.8458668780    0.1138747468
 C    0.7072582040   -0.8504667917    1.2133581733
 C    0.8872687484   -0.7613009754   -0.9662607524
 C    0.3258376859   -1.0471791206   -2.2755206475
 C   -0.1439628555   -1.2760072377   -3.3595996599
 H    1.0018410537    1.9870495061    0.0230121094
 H   -0.5083771047    1.8825925646   -0.8954960475
 H   -0.5521838031    1.9705847682    0.8727443342
 H   -1.9197184189   -0.3554437995    0.9889342502
 H   -1.8112715306   -1.0380052040   -0.6661219055
 H   -0.6498237606   -2.7340218407    1.4447518010
 H    1.6476067674   -2.6945413348    0.1309093286
 H    1.2392670417   -0.6222471200    2.1253540332
 H    1.8661177021   -0.2805356456   -1.0750282536
 H   -0.5557753915   -1.4843710132   -4.3158516458