17

 O    0.3515505332    1.1515434695   -0.5264564368
 C    0.1637474465   -0.0771388915    0.1274034092
 C   -0.0721008900   -0.0834009016    1.6713124300
 C   -1.2527318432   -1.0384067482    1.4127613816
 O   -1.8680886816   -1.8150284215    2.0822408941
 C   -1.2476699185   -0.6843735284   -0.0893005219
 C   -2.3916970351    0.2074332465   -0.6354906752
 C   -2.6002279266   -0.9520900848   -1.6298343186
 O   -1.4687463898   -1.6733807929   -1.0857955889
 H    1.2556371106    1.4450742606   -0.3790607977
 H    0.9213321892   -0.8191994635   -0.1589547724
 H    0.7237085286   -0.4530378331    2.3204944885
 H   -0.4146332777    0.8931242565    2.0303845117
 H   -3.2131649967    0.3987595790    0.0554972843
 H   -2.0372811734    1.1406320754   -1.0713622260
 H   -3.5314880484   -1.5149922648   -1.5059100853
 H   -2.4561373869   -0.7136146874   -2.6888614468