13

 C   -0.0133545494    1.4012160729    0.0092245262
 O   -0.0012823889   -0.0294866628    0.0045981928
 C   -1.1908225463   -0.6319024468    0.0116605753
 C   -1.4201729340   -1.9814334993    0.0093289815
 O   -2.7718056594   -2.1611437638    0.0195762977
 C   -3.2843445351   -0.9140270677    0.0253953933
 N   -2.3891401852    0.0363504692    0.0230695121
 C   -4.6939618940   -0.7716343287    0.0366697678
 N   -5.8450672668   -0.6536588172    0.0458979574
 H    1.0346249677    1.7010594286    0.0021004704
 H   -0.5241922038    1.7915324246   -0.8757654131
 H   -0.5104724575    1.7858899920    0.9044425321
 H   -0.8017272773   -2.8597307111    0.0021542264