21

 C    0.1902205456    1.4866102262   -0.0828199143
 C    0.0379701859   -0.0196592233    0.1359448793
 O    0.5523970916   -0.4196648181    1.3989472897
 C   -1.4207761171   -0.4913764693   -0.0122234489
 C   -1.5371688734   -2.0143496191   -0.0039087870
 O   -2.1153491698    0.1027242017    1.0894595095
 C   -3.5163972382    0.1129031673    1.0078933629
 C   -4.0512071292    0.9976868800    2.1224858282
 O   -5.2209575153    1.1360062837    2.3587602776
 H    1.2285767896    1.7823213791    0.0857954441
 H   -0.0900264312    1.7680093899   -1.1038554306
 H   -0.4483293611    2.0409549168    0.6113008401
 H    0.6399019544   -0.5557010519   -0.6073027889
 H   -0.0711286776   -0.0895031847    2.0573586313
 H   -1.8340480252   -0.0877764981   -0.9508056149
 H   -1.0272308855   -2.4327037689   -0.8774180724
 H   -1.0664909914   -2.4167417675    0.8961859642
 H   -2.5791625343   -2.3439858565   -0.0415991292
 H   -3.8652413976    0.5228423568    0.0446336652
 H   -3.9617826050   -0.8877468709    1.1131193423
 H   -3.2550148052    1.5165872770    2.7014161518