19

 C   -0.0369373027    1.5682352390    0.5267569139
 N   -0.0955619676    0.2225447445   -0.0143735174
 C    0.9694219578   -0.6362372913    0.5040066421
 C   -1.3758233749   -0.3658645383    0.0170612483
 C   -2.5113356127   -0.0066097651    0.7214558801
 N   -3.4801721575   -0.8873155073    0.3659458340
 N   -3.0584894890   -1.8042853520   -0.5388044147
 C   -1.7865556929   -1.4934349744   -0.7509973356
 N   -0.9675995494   -2.2479662830   -1.5959314655
 H    0.9497579541    1.9980684827    0.3271991162
 H   -0.7927621626    2.1937415562    0.0432869840
 H   -0.2026639628    1.6061615108    1.6199799158
 H    0.9188223304   -0.7554600397    1.6005802568
 H    0.8983292729   -1.6260917969    0.0483203158
 H    1.9421225603   -0.2017056104    0.2502554233
 H   -2.6955996820    0.7912791080    1.4220893179
 H   -4.4439941743   -0.8910939602    0.6454819084
 H   -1.5169070198   -2.8560338202   -2.1910247557
 H   -0.3649658673   -1.6562272123   -2.1562483176