16

 O   -0.0272619955    1.3956285644    0.1196238962
 C    0.0741584225    0.0297866439   -0.1047061409
 C    1.4124408408   -0.6785487788    0.1753385179
 N    1.1742870342   -2.0652354644   -0.2744946069
 C    0.1247963808   -2.0183949647   -0.9908828889
 O   -0.8858410976   -2.9429704869   -0.8549416213
 C   -1.6153226007   -2.2061588678    0.1900316917
 C   -1.3184938529   -0.6942542021   -0.0575416720
 C   -0.4885861881   -0.6593462715   -1.3035285549
 H    0.6127402057    1.8455376369   -0.4442217439
 H    2.2293937216   -0.1650130285   -0.3540685831
 H    1.6846626529   -0.7205116986    1.2355119535
 H   -2.6794265752   -2.4139303782    0.0525565807
 H   -1.2753146777   -2.5703291371    1.1637488507
 H   -2.1346042045    0.0046720051    0.0907240624
 H   -0.7379512061   -0.2851372817   -2.2877617712