17

 C   -0.1383782829    1.5400723848    0.2004880718
 C    0.0138056737    0.0350582880   -0.0659104826
 O    0.6786720284   -0.2237989371   -1.2859590281
 C    0.6973191375   -0.6395044789    1.0909447717
 N    1.8842372355   -1.1686464369    0.9729525428
 O    2.1637488094   -1.6357659260    2.2641405807
 C    1.0958554615   -1.3330034026    3.0164754949
 C    1.1155694676   -1.7273050093    4.4488139499
 N    0.1598068938   -0.7176380374    2.3575821967
 H    0.8451703771    2.0103569244    0.3016664126
 H   -0.6599982685    2.0025922299   -0.6408025020
 H   -0.7066509205    1.7175963628    1.1177827113
 H   -0.9870696693   -0.4051105481   -0.1586390928
 H    1.6259183594   -0.2595997044   -1.1084454436
 H    1.9631996566   -1.2654889291    4.9637649850
 H    0.1869110679   -1.4085506888    4.9212334455
 H    1.2192987527   -2.8120363912    4.5474136963