19

 O    0.0327304572    0.0508137015   -0.3243825106
 C   -0.0246596050    1.2254027027   -0.0897093199
 C   -1.1557371993    2.1816890850    0.3272512105
 C   -0.0608567190    3.2579009899    0.6058733451
 C    1.0313689268    2.3351625491   -0.0136734524
 C    2.4307526488    2.1396712576    0.6523424674
 C    3.1081254650    2.5673602882   -0.6554644219
 C    2.6623079076    1.6815402970   -1.7845253455
 C    1.7440448390    2.7751904100   -1.3092912567
 H   -1.8264603053    2.4218321994   -0.5038275932
 H   -1.7630947981    1.8477998299    1.1726013584
 H   -0.2008088119    4.2152371797    0.0998978868
 H    0.0944913822    3.4444911965    1.6713145380
 H    2.5724013090    2.8554193868    1.4661980929
 H    2.6603040643    1.1325044704    1.0147362827
 H    3.9963241311    3.1826566413   -0.7277166573
 H    3.1415783052    1.8718310529   -2.7395822763
 H    2.4044350562    0.6415054909   -1.6064820987
 H    1.3952224262    3.5712746811   -1.9569381594