17

 C    0.0336480248    1.5612662340    0.0178730126
 C   -0.0467363956    0.0672641207    0.0775355326
 C   -1.3362524462   -0.7704339802   -0.0125981443
 C   -0.7016377305   -1.7953288301    1.0018352910
 O   -1.2864284016   -1.7818210648    2.2817336859
 C   -0.5401201534   -3.1700747858    0.4988318520
 N   -0.4309140377   -4.2423817930    0.0796988072
 C    0.5750024174   -0.9316126853    1.0182398103
 N    1.1049328298   -0.7347831777   -0.3180066381
 H    1.0457913312    1.8951089603    0.2591354758
 H   -0.2097323604    1.9239162796   -0.9876388104
 H   -0.6676191691    2.0213622729    0.7213467172
 H   -2.2012489665   -0.2980212313    0.4587161570
 H   -1.6083241411   -1.1388376513   -1.0063272319
 H   -2.1340807384   -2.2398182737    2.2421585585
 H    1.2166871433   -0.8265498189    1.8851818160
 H    0.9003025440   -1.4984822355   -0.9609517614