13

 N   -0.0649897996    1.3111729612   -0.0522248673
 C   -0.0152522732   -0.0236287668   -0.0007958579
 N    1.1442864958   -0.6858735624    0.0387345496
 H    1.0713027570   -1.6937804733    0.0158022282
 H    2.0360324806   -0.2419053001   -0.0929318660
 C   -1.2235035649   -0.7600952831    0.0090965684
 N   -1.2735896592   -2.1164558919   -0.0067799448
 C   -2.5924614651   -2.2963015104    0.0136743138
 N   -3.3195409904   -1.1433860821    0.0394825403
 N   -2.4306675163   -0.1544132233    0.0378786223
 H    0.7412158115    1.8931970784    0.0912288470
 H   -0.9917629972    1.7141113154   -0.0135722757
 H   -3.0659305989   -3.2685013817    0.0106079620