15

 C    0.0578819302    1.5303774655   -0.0519877902
 C   -0.0369312394    0.0434880137   -0.0461367735
 N   -1.0559602401   -0.6419858648    0.2820922237
 C   -0.6769700616   -2.0644655850    0.1239686227
 C    0.8135794042   -2.0111623678   -0.3468054872
 O    1.0954141279   -0.6028593796   -0.4409467950
 C   -0.8633642294   -2.8284669869    1.3537580309
 C   -0.9888996231   -3.4771114270    2.3571914664
 H    0.8622198546    1.8583995721    0.6136469100
 H    0.2994408613    1.8899489528   -1.0569772705
 H   -0.8882188640    1.9595246122    0.2750234914
 H   -1.3122254239   -2.5035765659   -0.6553504173
 H    1.4986452825   -2.4609358934    0.3750880735
 H    0.9671956220   -2.4643320079   -1.3290634297
 H   -1.1138426113   -4.0428468780    3.2472225647