12

 O   -0.0681317087    0.0466306295   -0.2758723132
 C   -0.0261544006    1.1847184144    0.1170666792
 C    1.2251645851    2.0010658828    0.0683794565
 C    1.2500671121    3.4801906830   -0.1387535610
 O    0.0458302074    4.0879133697    0.3964799548
 C    0.4341396757    3.7197098202    1.6881249773
 O   -0.0821884019    4.0201228581    2.7099009183
 C    1.6537465404    2.9678658511    1.2090047633
 H   -0.9170724649    1.6912859002    0.5366753906
 H    2.0705266628    1.4651317745   -0.3549820573
 H    1.7897580089    4.0255253231   -0.8994803497
 H    2.6072854237    2.8736938835    1.7063338212