15

 C   -0.1533799279    1.4215474457    0.0944814822
 N   -0.1828190638   -0.0304754661    0.1385387174
 C    0.6296924781   -0.6318973832    0.8863018814
 O    1.5361997398    0.0646077171    1.6584740350
 C    2.4193143378   -0.6260402651    2.4447421786
 C    2.4333959713   -1.9493427168    2.5061926858
 O    1.5648493752   -2.7306762790    1.7890964181
 C    0.6368771585   -2.1341606641    0.9643696771
 N   -0.1773685225   -2.8277544518    0.2977706937
 H    0.8458246096    1.8054363107   -0.1471996725
 H   -0.8598901243    1.7681894241   -0.6618866122
 H   -0.4379333971    1.8537358999    1.0625677634
 H    3.0880179344    0.0166501733    2.9972200103
 H    3.1149317274   -2.5245146672    3.1142407526
 H   -0.0192997264   -3.8208971375    0.4807232492