22

 C    0.1830999895    1.5243254902    0.2655039452
 C   -0.0017595555    0.0189685994    0.0076427079
 C    0.5511404839   -0.7615757971    1.2167879077
 C   -1.5062292728   -0.2729480219   -0.1607006836
 C    0.7407728839   -0.4541348706   -1.2691288854
 C    0.8629883519    0.4080835760   -2.5193886699
 C    2.0853523472    0.1179051289   -1.7008224727
 C    0.5853242506   -1.8668240281   -1.5377139603
 N    0.4586992122   -2.9977390457   -1.7494357830
 H    1.2305744837    1.7965332991    0.4244626783
 H   -0.2175707347    2.1403624321   -0.5447558260
 H   -0.3606269071    1.7978594186    1.1749429506
 H    0.0261200962   -0.4683748040    2.1315215974
 H    0.4258730173   -1.8405578125    1.0881692529
 H    1.6178868204   -0.5603433000    1.3607741007
 H   -1.9219728755    0.2803215797   -1.0093606010
 H   -1.6911690293   -1.3377703936   -0.3291708305
 H   -2.0549010266    0.0259598465    0.7381669530
 H    0.7530989818   -0.0859599268   -3.4772215486
 H    0.4416490281    1.4046459475   -2.4765672667
 H    2.5003190630    0.9159242619   -1.0979359297
 H    2.8181407618   -0.5761868996   -2.0943387662