15

 O   -0.0275852545    0.0107855582   -0.2831021143
 C    0.0005207050    1.1499355163    0.1205238837
 C    1.2183448462    1.9924664640    0.1097313080
 C    1.2384982933    3.4858030505   -0.1851817227
 C    0.0037795934    4.2110769541    0.3700710041
 C    0.3738301041    3.6934789678    1.8003161656
 C    1.5971459275    2.9845899338    1.2005034072
 H   -0.9175933007    1.6235357980    0.5285472823
 H    2.0734336835    1.4641785111   -0.3025194383
 H    1.8858884670    3.8562444878   -0.9708421029
 H    0.1009626739    5.2960732938    0.2959934339
 H   -0.9686567974    3.9266852704   -0.0402919089
 H    0.6616261327    4.5116779178    2.4635405332
 H   -0.3570358186    3.0711602772    2.3232666836
 H    2.5695380648    2.9007315193    1.6706293655