16

 N   -0.4072314334    1.1321548360    0.1588838006
 C   -0.5353633156   -0.0944297963    0.4134127098
 O   -0.5613207877   -0.9833116485   -0.6118385102
 C   -0.7529969962   -2.3498974705   -0.2875609188
 C   -2.2356986834   -2.7068618807   -0.1677831129
 C   -2.6052079144   -4.1766494918    0.1095740546
 O   -3.2331971099   -3.7911730340    1.3749087819
 C   -2.9020907187   -2.4728416885    1.1956139138
 O   -3.0923705835   -1.5665429506    1.9412346945
 H   -0.3968052117    1.6657245302    1.0256929571
 H   -0.6322680727   -0.5578084412    1.4015310445
 H   -0.3096027297   -2.9144261543   -1.1129122794
 H   -0.2126205697   -2.6173798903    0.6307303155
 H   -2.7876725335   -2.2488377541   -0.9916744932
 H   -3.3318394857   -4.6327527979   -0.5643024069
 H   -1.7687202142   -4.8566644575    0.2895864490