17

 C   -0.0809805767    1.5061906049    0.0331497932
 C    0.1405721795    0.0216551494   -0.0400175443
 O   -0.5316198551   -0.7852141223    0.9465226159
 C    0.9038983160   -0.7899796364    0.9255599677
 C    1.5075381773   -1.9729667910    0.1884953755
 N    1.0978527140   -1.8822168249   -1.2334161560
 C   -0.3369485185   -2.0250639592   -1.5114795393
 C    0.2616558809   -0.6703721961   -1.3846280628
 H    0.6929193238    2.0416107908   -0.5267349115
 H   -1.0524583518    1.7748495577   -0.3955390129
 H   -0.0615979278    1.8459383249    1.0712321916
 H    1.3869989223   -0.3790750069    1.8109523571
 H    2.6015355144   -1.9134346935    0.2323015144
 H    1.2061057182   -2.9332423713    0.6197407908
 H   -0.5607746714   -2.4274761231   -2.4961238296
 H   -0.9974437482   -2.3419710755   -0.7111011151
 H    0.4466479631   -0.0446208175   -2.2536796044