16

 O   -0.0050617939    1.4302890043   -0.0597183193
 C   -0.0102362187    0.0197184927    0.0612998062
 C   -1.4202948602   -0.4621341471    0.0836037070
 C   -2.5608419163    0.2408199889    0.0458719966
 C   -3.7210846036   -0.6888612613    0.0287818453
 C   -3.8668196444   -1.6123293343   -1.1401093022
 N   -3.1870126777   -2.0519219559    0.0957158914
 C   -1.7474955630   -1.9140526321    0.0283360872
 O   -0.9805924295   -2.8367247237   -0.0787723281
 H    0.9081916934    1.7294450020   -0.0349647223
 H    0.5177968592   -0.4725734345   -0.7717233882
 H    0.4960038369   -0.3147555727    0.9818177095
 H   -2.6439286341    1.3191277873    0.0403919939
 H   -4.5903900346   -0.4747482212    0.6441487886
 H   -4.8207251797   -2.0945280396   -1.3342410498
 H   -3.2504676237   -1.4201521227   -2.0146707957