19

 C   -0.0844485037    1.5115761257    0.0991000517
 C   -0.0105599137    0.0208274081    0.0173308114
 C    0.0354477325   -0.7261423187   -1.0919343255
 C    0.0940353667   -2.2053682147   -0.8230091836
 C    1.2789715283   -2.9763428532   -1.4484936104
 O    1.2059526408   -4.3548804584   -1.1736018561
 C    0.1769498906   -2.2555342187    0.7081018996
 O    0.4089885066   -3.2485428571    1.3586287948
 C    0.0033542052   -0.8392939789    1.2603587881
 H    0.7628571899    1.9194090828    0.6647970372
 H   -0.0835006558    1.9684542703   -0.8941798392
 H   -0.9923056765    1.8353889848    0.6238739285
 H    0.0258368620   -0.3209814004   -2.0986486382
 H   -0.8195737230   -2.7273491033   -1.1448379140
 H    1.2551638500   -2.8609410788   -2.5377512943
 H    2.2242478011   -2.5318113722   -1.0940112898
 H    1.0907620735   -4.4363591018   -0.2158080881
 H    0.8088017604   -0.5994645731    1.9660671516
 H   -0.9309679247   -0.7737876123    1.8363658764