19

 O   -0.0715964154    1.4520075689    0.0277310387
 C    0.0380612381    0.0482512652    0.0433862982
 C    0.2831240203   -0.6784596577    1.3960014231
 C   -0.8119282095   -1.6953942593    0.9892756186
 C   -0.4341598839   -3.1399098071    0.4886162978
 C   -1.4211140064   -3.6988162033    1.5220959900
 O   -0.9915213508   -3.2338335524    2.8069262240
 C   -1.7690250619   -2.3480024826    1.9887854409
 C   -1.3176065251   -0.6782779599   -0.0671136658
 H    0.8101917723    1.8260165404    0.1234709076
 H    0.7399602836   -0.3045048455   -0.7261919623
 H    1.2824475569   -1.0649230741    1.6087363155
 H   -0.0468079188   -0.0474587377    2.2271486827
 H   -0.7423410914   -3.3145744971   -0.5458878009
 H    0.6032635994   -3.4575371633    0.6237557282
 H   -2.0040617426   -4.6119841696    1.4942463153
 H   -2.6824392571   -1.9477535563    2.4164248810
 H   -2.1061232969   -0.0379280945    0.3416348674
 H   -1.6293662107   -1.0523272540   -1.0452437497