21

 C   -0.1370175270    0.9620799315   -1.8880103072
 C    0.0047480740   -0.2730036114   -1.0251118740
 C    1.3410590470   -0.7245970139   -0.4473997357
 C    2.6322281700    0.0262366436   -0.6908126269
 C    0.2747291790   -0.1452192839    0.4611701917
 O    0.4902540687    1.1561463820    0.9799696366
 C   -0.0514891810    1.2408471639    2.2992727898
 C   -0.6300421982   -0.1208059243    2.5730240180
 C   -0.4353072139   -0.9004902196    1.5132112870
 H    0.4262658594    1.8041364801   -1.4823062166
 H    0.2090422670    0.7742323855   -2.9104943001
 H   -1.1865279192    1.2705491419   -1.9434871039
 H   -0.6673583012   -1.0835910694   -1.2994724602
 H    1.4633364496   -1.8036385337   -0.3783273552
 H    2.4974520762    1.1041971491   -0.5869859860
 H    3.3930567173   -0.2770187835    0.0364283541
 H    3.0282891730   -0.1785739688   -1.6916649731
 H    0.7447303495    1.5147273028    3.0093990547
 H   -0.8087986907    2.0397557102    2.3377531325
 H   -1.1202662026   -0.3843629412    3.5008789978
 H   -0.7331489069   -1.9341040108    1.3942030966