21

 C   -0.0897033253    1.5577360549   -0.0010896145
 C    0.0415766497    0.0337326038    0.1008896052
 C    0.8458779792   -0.3813630785    1.3402851703
 C   -1.3545164371   -0.6099556060    0.0801910393
 C   -1.3836029743   -2.1415659395    0.1429048718
 O   -2.7096311510   -2.6412433477    0.0579824738
 O    0.6709121374   -0.4884406584   -1.1172236159
 C    1.9300775938   -0.1550304850   -1.4357322792
 O    2.4669849020   -0.5595742790   -2.4262267190
 H    0.8851539395    2.0535605200    0.0056555448
 H   -0.6128553071    1.8355330445   -0.9202040331
 H   -0.6610521308    1.9402555753    0.8498897903
 H    0.2662828434   -0.1706065167    2.2441209280
 H    1.0762783199   -1.4490574479    1.3215901432
 H    1.7871651659    0.1694785377    1.4182852469
 H   -1.9400753640   -0.2088520649    0.9146568454
 H   -1.8532803867   -0.2898616882   -0.8434361556
 H   -0.7398873894   -2.5604833043   -0.6416297675
 H   -1.0031507635   -2.4961591376    1.1057594922
 H   -3.0305483983   -2.4730865281   -0.8337006582
 H    2.4185776969    0.5173123656   -0.7093065482