19

 O   -0.1299438354    1.4562910845   -0.0416436162
 C    0.0134129074    0.0712160891    0.0653062031
 C   -0.1752404094   -0.7920192850   -1.1488661766
 C   -1.2128246450   -0.8068617304   -0.0304573560
 C   -1.1365296266   -1.9110265055    1.0133875619
 C   -0.6498194506   -3.2924725964    0.5341058952
 O    0.7209118681   -2.9551422859    0.8534419268
 C    0.2915399285   -1.7953107231    1.6150376524
 C    0.9109166942   -0.4658948519    1.1805392731
 H    0.6115412791    1.7941592228   -0.5553677458
 H   -0.4767960678   -0.2843286522   -2.0590215219
 H    0.4745834114   -1.6493267157   -1.2852824088
 H   -2.1727256121   -0.3556754297   -0.2518225309
 H   -1.9889935948   -1.8972847483    1.6939790800
 H   -1.0083409233   -4.1322650305    1.1441916423
 H   -0.7800417792   -3.5311221471   -0.5268434623
 H    0.3957528263   -1.9847804555    2.6900991224
 H    1.9561391929   -0.6015593587    0.8810419823
 H    0.8864741764    0.2482868296    2.0110762888