18

 C    0.0413286490    1.3431959414   -0.1152302384
 N   -0.1813647689   -0.0729984696    0.1047007657
 C    0.5635474568   -0.6943496371    1.0986094634
 C    1.2474921859   -0.1679264555    2.1551805399
 O    1.7911759327   -1.1636965230    2.9221771278
 C    1.4629277770   -2.3496393093    2.3375810831
 C    0.7145912789   -2.1205685370    1.2227389529
 O    0.1725147199   -2.9671552919    0.3131983486
 C    0.4277001089   -4.3396332092    0.5486587564
 H    1.0974100247    1.5981473634   -0.3035962761
 H   -0.5583117691    1.6763162150   -0.9654125583
 H   -0.2864700410    1.9089130237    0.7645871371
 H   -0.2170364711   -0.6230317445   -0.7418457173
 H    1.4230278239    0.8375309372    2.4946871334
 H    1.8260748903   -3.2390327925    2.8210488257
 H    1.5064239108   -4.5471267628    0.5394607206
 H    0.0136984707   -4.6562305049    1.5154388211
 H   -0.0580205794   -4.8955004437   -0.2546676358