16

 C    0.0632479774    1.5190005630   -0.0850215892
 C    0.0084148875    0.0061392533    0.0821229115
 O    0.5962076955   -0.4270753847    1.2925298597
 C   -1.4714896939   -0.5535776282    0.0487787807
 N   -2.1615825815   -0.1008250318    1.2586475655
 C   -2.1791413005   -0.0435720404   -1.1388698202
 N   -2.7177155482    0.3666543111   -2.0740811047
 C   -1.4114546723   -2.0344679716   -0.0517036670
 N   -1.3766442205   -3.1889424018   -0.0773554954
 H    1.1001344933    1.8500825021    0.0179787044
 H   -0.2991923947    1.8264470393   -1.0682920484
 H   -0.5522017660    2.0107147234    0.6746766208
 H    0.5537948069   -0.4890614469   -0.7273637634
 H    0.5312079798    0.2915820261    1.9305136650
 H   -3.1335081668   -0.3943618022    1.2433077221
 H   -1.7170475460   -0.5571368109    2.0505649486