17

 C    0.3895446187    1.5335275864    0.1979355196
 C    0.1789477392    0.0365567896    0.0347842575
 O    0.7735262042   -0.6051876045    1.1453516895
 C   -1.3264199152   -0.3297471754   -0.0229245252
 O   -1.8781608863    0.2842581572   -1.2025082358
 C   -3.1755666793    0.6611189430   -1.1601328326
 O   -3.7277185301    1.1549235777   -2.0941608624
 C   -1.5179552532   -1.7786643730   -0.0593319821
 C   -1.6335079468   -2.9749023360   -0.0885813340
 H    1.4597730582    1.7518588525    0.2202568511
 H   -0.0660862606    2.0809119432   -0.6295462955
 H   -0.0475902018    1.8776318887    1.1410324063
 H    0.6276880731   -0.3018450072   -0.9111756949
 H    0.6707223674   -1.5572001118    1.0287375467
 H   -1.8114648987    0.0833004614    0.8719739469
 H   -3.6479892198    0.4709704736   -0.1774944170
 H   -1.7611351989   -4.0296672854   -0.1175542882