23

 C    0.2099991546    1.3881302638   -0.0103368829
 O    0.1801839027   -0.0172683850   -0.0364882741
 C    0.5762106252   -0.6007394231    1.1868339172
 C    0.5408975419   -2.1064716576    1.0403077795
 C    1.6031910749   -2.7699352176    0.1130814118
 C    1.8625587040   -3.7991359394    1.2216863008
 C    1.7574520107   -5.2895455273    1.0739986492
 C    3.0747567123   -4.6474055411    1.4530444907
 C    1.0806905693   -2.9502035783    2.2346186349
 H    1.2221738867    1.7735174283    0.1936843116
 H   -0.1099156179    1.7428477369   -0.9933794763
 H   -0.4699695040    1.7991829713    0.7534641093
 H    1.5959785766   -0.2702830555    1.4564530488
 H   -0.0932649385   -0.2761538083    2.0038981319
 H   -0.4704202829   -2.4143109527    0.7602322542
 H    1.2497843189   -3.1495590843   -0.8488523113
 H    2.4592612019   -2.1101704907   -0.0673443945
 H    1.2222776764   -5.8451781447    1.8381716873
 H    1.6585678406   -5.7000459335    0.0737018727
 H    3.8653266029   -4.6253012371    0.7091137970
 H    3.4278556824   -4.7702987462    2.4724924036
 H    1.7350403422   -2.3670719492    2.8935244648
 H    0.3387402190   -3.4654110187    2.8510085135