19

 C    0.0019101909    1.5684602493    0.1502247300
 C    1.2849664615    0.7978121138   -0.0360876534
 C    2.3289917922    0.7006367356    1.0696569341
 C    2.7844840881   -0.7245791554    1.3009014542
 C    1.9835620030   -1.7228356020    1.6813023316
 C    0.5323469643   -1.6297134629    1.9796455823
 O    0.0079063504   -0.3949651555    2.5112376417
 C   -0.4234600346   -0.7894462586    1.2129518827
 C   -0.0320085700    0.0580266199    0.0464216519
 H   -0.1759178116    1.9915725970    1.1333808896
 H   -0.3928082637    2.1514608303   -0.6744818217
 H    1.7110926336    0.8228965847   -1.0351702304
 H    3.1850953895    1.3293716681    0.8047936714
 H    1.9187476607    1.0995555052    2.0007141836
 H    3.8352442444   -0.9491877052    1.1347832448
 H    2.4038124858   -2.7177075832    1.8063059953
 H    0.1171502957   -2.5080438659    2.4747564745
 H   -1.4592687688   -1.1360348791    1.1839297985
 H   -0.4041042413   -0.3443783759   -0.8924256206