18

 O   -0.0269765021    1.4302895852    0.0424185448
 C    0.0050862326    0.0395216760   -0.0262603693
 C    0.4653801078   -0.7274001870   -1.2789821826
 N   -0.5151174883   -1.8173166273   -0.9355758717
 C   -0.0989636290   -2.5632102670    0.3336691108
 C    1.1991807990   -2.0371237147    0.9817401570
 C    0.4185033553   -0.7443904080    1.2946115474
 C   -0.9259144315   -1.5615820602    1.2044853207
 C   -1.2938711842   -0.8143204048   -0.0872759776
 H    0.8482042989    1.7455438758    0.2958974024
 H    0.1283880665   -0.2314447643   -2.1949824491
 H    1.5088677472   -1.0333308930   -1.3985652844
 H   -0.2761461634   -3.6366864580    0.2566299826
 H    1.3955651067   -2.5976827573    1.9021176909
 H    2.1225442377   -1.9913952626    0.3963881884
 H    0.6876021491   -0.1066293021    2.1374234221
 H   -1.5635843825   -1.8170078866    2.0480313010
 H   -2.2677778397   -0.4717373539   -0.4378575033