15

 O   -0.3353672899    1.2831094363    0.0728325511
 C    0.0331885122   -0.0709591877   -0.0054534050
 C    0.8359607715   -0.3514518531   -1.2180710224
 N    1.4638118404   -0.5612434970   -2.1645795139
 C    0.7544231750   -0.5712712801    1.2513229918
 C   -0.0914811017   -1.1009311441    2.3983650273
 C    0.7191728542   -2.0550416984    1.5765200367
 C    1.9344068494    0.1884805562    1.5760407234
 N    2.8596207783    0.8415443395    1.8127957067
 H    0.4666790808    1.8192644097    0.1255619426
 H   -0.9047526038   -0.6298352727   -0.0958070951
 H    0.2421501270   -0.8732531639    3.4032118521
 H   -1.1660193061   -1.0683972071    2.2577907244
 H    0.2107903883   -2.6914953353    0.8603851281
 H    1.6118946544   -2.4880542624    2.0102804822