15

 C   -0.1494826746    1.5621582508    0.0225680500
 C    0.0652265056    0.0474078507   -0.0201318296
 C    0.8904797200   -0.4877865423   -1.2069268508
 C    1.9266283548   -1.4328011727   -0.6018392472
 O    2.7134459454   -2.1415228688   -1.1739340505
 N    1.8138621626   -1.3131414301    0.7803733188
 C    0.8149177313   -0.4531877792    1.2212458625
 O    0.5937762086   -0.1762604778    2.3726621792
 H    0.8053034001    2.0955111229   -0.0349414184
 H   -0.7723370598    1.8897835448   -0.8144204824
 H   -0.6394424958    1.8453441014    0.9570373242
 H   -0.9135914901   -0.4469685089    0.0082128601
 H    0.3044654335   -1.0200271362   -1.9590935505
 H    1.4279681429    0.3121270221   -1.7276725413
 H    2.4251594955   -1.8054378866    1.4168980159