24

 C   -0.2149322337    1.5055664792   -0.9735551009
 C   -0.0219673888    0.2250728477   -0.1523134000
 C   -1.3290482464   -0.3960686685    0.3119069599
 C   -1.3386742741   -1.5709259681    1.2280574434
 N   -1.8824921713   -0.2895377728    1.6690938627
 C   -1.1922514171    0.4055055452    2.7612001797
 C   -1.4549016508    1.9102320131    2.6853923763
 C   -1.7591788411   -0.1942866238    4.0596005159
 O   -3.1642680644   -0.0596318625    4.1247636058
 H    0.7469458708    1.9058846902   -1.3077872243
 H   -0.8202745079    1.3080028639   -1.8649478284
 H   -0.7226282389    2.2869650929   -0.4005305902
 H    0.4992680731   -0.5156314984   -0.7725035479
 H    0.6365614082    0.4147418018    0.7019354762
 H   -2.1108309751   -0.3597043548   -0.4475636825
 H   -2.0480510943   -2.3840423838    1.0964709909
 H   -0.3759673294   -1.8753333006    1.6399020618
 H   -0.1044654148    0.2187295551    2.7529820664
 H   -2.5254858278    2.1081429716    2.7740934176
 H   -0.9424945900    2.4237545893    3.5050158672
 H   -1.0966110971    2.3347681262    1.7450018094
 H   -1.4552461074   -1.2522794347    4.1284216271
 H   -1.3396417124    0.3271353722    4.9268638349
 H   -3.4758024491   -0.2876516004    3.2376958087