17

 O   -0.7339727934    1.0128605970   -0.6169900175
 C    0.0529167285    1.1614936221    0.2806399877
 C    1.3707943008    1.9111230231    0.1499903748
 C    1.5058816562    2.7278159222   -1.1148986525
 C    1.8332846748    3.9967387742   -0.8733292630
 C    1.9537126504    4.2934295289    0.5955562803
 C    0.6707319953    4.8393468459    1.2746257678
 O    0.3082152364    3.5166235264    1.7314667328
 C    1.5595271733    2.9557959528    1.2742401473
 H   -0.1256946947    0.7175718156    1.2845898341
 H    2.1539067747    1.1368488771    0.2194187370
 H    1.3264203503    2.2968208596   -2.0916380409
 H    1.9738122409    4.7578489094   -1.6330658307
 H    2.8891328896    4.7763988570    0.8865273352
 H    0.8502996138    5.5188717401    2.1172896495
 H   -0.0878876630    5.2684648802    0.6115534172
 H    2.1662174059    2.6005233683    2.1133120908