14

 O   -0.4559973474    0.6931733931    0.7733485757
 C    0.2064280510    0.9723601873   -0.1936916372
 C    1.3614714998    1.9111525592   -0.1483603015
 C    1.8716291240    2.4351687177    1.1813476434
 O    2.4904207520    3.7026929476    0.9034341128
 C    2.1561921992    4.1632045731   -0.3397129911
 O    2.3679264440    5.2824890355   -0.6980444265
 C    1.5296202257    3.0409584210   -1.1266127761
 N    2.3215257477    1.8174493392   -1.2483778840
 H    0.0119791801    0.5486140752   -1.2005698968
 H    1.0424731797    2.5751388021    1.8801668323
 H    2.6201335676    1.7841165008    1.6420772530
 H    0.8573241014    3.2812307386   -1.9410409986
 H    3.2760240353    1.9478368996   -0.9162366455