19

 C   -0.2577792050    1.5085881363    0.6073188721
 N    0.0523718672    0.0965041557    0.5959447045
 C   -1.0037235759   -0.8539975293    0.1986918940
 C   -0.4563614751   -1.8342153883    1.2490738220
 C    0.2320229068   -0.5975331080    1.8869058641
 O   -1.4652074120   -2.5086431461    1.9706034236
 C   -1.0001172005   -3.5112428479    2.8345272492
 C   -0.2921414882   -2.9895830157    4.0224011239
 N    0.2643637688   -2.5813419810    4.9489524784
 H    0.5937879415    2.0710997449    1.0041082202
 H   -0.4420396061    1.8559916585   -0.4149170462
 H   -1.1465710374    1.7534649164    1.2195785473
 H   -2.0195477838   -0.5320546947    0.4819750831
 H   -0.9974169126   -1.1535993001   -0.8540594362
 H    0.2623914987   -2.5533932303    0.8361633937
 H    1.2660892849   -0.6823905901    2.2332604781
 H   -0.3936691119   -0.1918607140    2.6979922940
 H   -1.8761229426   -4.0725533281    3.1732501791
 H   -0.3272166669   -4.2141511783    2.3189474651