19

 C    0.1244841070    1.6648268400   -0.9928475936
 C    0.3242183715    0.1677439996   -1.2099949779
 C    0.3656466919   -0.6243979356    0.0827077868
 O    0.1116514656   -0.1469118242    1.1652574191
 C    0.6635779390   -2.1069497816   -0.0051681144
 O    1.0980645425   -2.6596557465   -1.2486119702
 C    2.0219850339   -2.6667102342   -0.1498446049
 C    3.2761648553   -1.8460547723   -0.3172121900
 O    4.1845906322   -2.4846261646   -1.1958923053
 H   -0.7848659366    1.8569945259   -0.4185908330
 H    0.9587754392    2.0946890484   -0.4315328332
 H    0.0497393463    2.1863984347   -1.9507546687
 H   -0.4923063937   -0.2637060419   -1.8083978738
 H    1.2236177641   -0.0516566732   -1.7954093889
 H   -0.0572565228   -2.7105998035    0.5476932547
 H    2.1930766537   -3.6611666293    0.2649238453
 H    3.0325504315   -0.8283765470   -0.6524575303
 H    3.7866433587   -1.7627478232    0.6480993067
 H    3.7318862308   -2.5995978416   -2.0389982282