21

 C    0.0936092199    1.5069429077    0.0675837633
 C   -0.0424709990   -0.0298345639   -0.0361609527
 C   -1.5201715977   -0.4285531992   -0.0264017578
 C    0.7416776091   -0.5900787755   -1.2426026557
 O    0.5614516982    0.2353850533   -2.3780727890
 C    2.2026923676   -0.7075428250   -0.7582211668
 C    2.0710032798   -1.1719861178    0.6992674725
 C    0.7116444801   -0.6338178660    1.1641121942
 O    0.2945957699   -0.6717231932    2.2933995679
 H    1.1376830596    1.8335291736    0.0917181315
 H   -0.3825049254    1.9811454941   -0.7931150663
 H   -0.3895748229    1.8536290715    0.9850299717
 H   -2.0462976304    0.0339579517   -0.8670738736
 H   -1.6401466998   -1.5142831018   -0.1053770806
 H   -1.9924965604   -0.1080424379    0.9059803518
 H    0.3608293821   -1.6047934626   -1.4501569829
 H    1.0292268203   -0.1637288161   -3.1182264230
 H    2.7923322351   -1.3892586260   -1.3784398472
 H    2.6735512819    0.2792983465   -0.8148707361
 H    2.0303844150   -2.2660214244    0.7765855271
 H    2.8719523970   -0.8412328491    1.3648808618