20

 C   -0.0952178516    1.3480511797   -0.2202223267
 C    0.2118768322   -0.1109907583    0.0248337662
 C    1.6222770552   -0.6146099965    0.0904633326
 C    0.7714642428   -0.6171374810    1.3566869214
 C    1.1105178709    0.3794465433    2.3456584605
 N    1.3685834212    1.1720260575    3.1486358860
 C    0.2437884509   -1.8945892263    1.9620503422
 C    0.2977171023   -3.2191952522    1.2443104933
 C    1.1778608815   -2.9760642513    2.4440418324
 H    0.6302276115    1.9985639033    0.2759480645
 H   -0.0703713953    1.5686221620   -1.2925788008
 H   -1.0892408901    1.6114797442    0.1552409792
 H   -0.5031293626   -0.8075920274   -0.4047949805
 H    1.8674683542   -1.5722500348   -0.3535664743
 H    2.4225953092    0.1158063138    0.0475983315
 H   -0.6409049011   -1.7320119451    2.5714936737
 H   -0.5572742486   -3.8770991273    1.3521916462
 H    0.7714893376   -3.2759181008    0.2709249836
 H    2.2377173327   -2.8342770283    2.2627233625
 H    0.9459698972   -3.4802899146    3.3749128365