20

 O    0.2425389689    0.0813836061   -0.4544048922
 C    0.0520644210    1.2337897374   -0.1744796426
 C   -1.1612039861    2.0989640110    0.2475933199
 C   -0.1756060346    3.3053577087    0.2140234959
 C    0.0415132001    4.0708146887    1.5159978365
 C    1.2073478786    5.0354078305    1.4535991142
 C    1.0309198470    6.4145808182    0.8643278434
 C    1.2528651865    6.2470651272    2.3476310205
 N    0.8776586585    2.3329269147   -0.1299515685
 H   -1.9673273823    2.1224081331   -0.4874517784
 H   -1.5671225425    1.8583661307    1.2324209568
 H   -0.3799120207    4.0048179218   -0.6056145149
 H   -0.8779934330    4.6241732346    1.7486361026
 H    0.1942839503    3.3485493518    2.3286423407
 H    2.1666830740    4.5597012662    1.2627259848
 H    1.8330741845    6.8325447462    0.2662909859
 H    0.0377155789    6.7005770168    0.5326003673
 H    0.4095237655    6.4196756483    3.0085038137
 H    2.2084654634    6.5470281788    2.7629296606
 H    1.8283615521    2.4536315492   -0.4471935960