19

 C    0.2889653629    1.5660698652   -0.3899268645
 C    0.1802059533    0.1243185328   -0.2233107509
 C    0.0867289055   -1.0701541238   -0.0955678459
 C   -0.0560931546   -2.4955898548    0.0798238798
 C    0.3757058091   -3.2070090357    1.4260603820
 C    0.4601226060   -2.2811915649    2.6323405391
 C   -0.9239461998   -4.0697565347    1.3778930555
 C   -1.4679296273   -3.1136722660    0.3080625684
 O   -2.5544176568   -2.8625586938   -0.1150040531
 H    1.1808335620    1.8369918766   -0.9658083442
 H   -0.5823817441    1.9676632234   -0.9189596543
 H    0.3510495797    2.0752373518    0.5781798583
 H    0.3903361436   -3.0368799824   -0.7662295347
 H    1.2981731153   -3.7815105756    1.3212161072
 H   -0.4647965018   -1.7079218273    2.7594085910
 H    0.6286320515   -2.8572368075    3.5480206257
 H    1.2775193198   -1.5632221116    2.5208501199
 H   -0.7736717191   -5.0771770573    0.9762499237
 H   -1.5155759452   -4.1435150845    2.2939859768