17

 O   -0.0368517587    0.0626259356   -0.4301001161
 C   -0.0295448407    1.1809463749    0.0032736395
 O   -1.1875794145    1.7610165898    0.4083378751
 C   -1.1905595683    3.0587554040    1.0390230087
 C    0.0954593819    3.8315628097    0.7807025302
 C    0.3410247010    4.1544224510   -0.7162698125
 C    1.2426578381    2.9828151041   -1.1857065513
 C    1.2211895903    2.0584786914    0.0521857118
 O    1.1683404913    2.9611330399    1.1528408886
 H   -2.0688844209    3.5866795837    0.6545428837
 H   -1.3177482336    2.8994305612    2.1152201784
 H    0.1298959108    4.7113123578    1.4279357677
 H   -0.5962415118    4.2083626938   -1.2753921745
 H    0.8468644764    5.1154277815   -0.8244778505
 H    0.8798139453    2.4861520901   -2.0876605011
 H    2.2661271634    3.3172193993   -1.3677934925
 H    2.0939799199    1.4152796221    0.1572474148