14

 O    0.7167298142    1.1536369970   -0.2574854149
 C    0.2306850649   -0.0992794045   -0.1185167688
 C   -0.1370653685   -0.9815689034   -1.1005960364
 O   -0.5571596903   -2.0963048835   -0.4913439179
 N   -0.4370763650   -1.8806409381    0.9116373393
 N    0.0225969004   -0.7072338678    1.0759622572
 N   -0.2359845460   -0.8836636688   -2.4704478619
 C    0.8957646695   -0.3436358995   -3.2272199815
 C    0.5447568827   -1.7874675824   -3.3231079538
 H    0.8742064159    1.5012738654    0.6284532687
 H    0.6210110457    0.3391924474   -4.0241993009
 H    1.7878108731   -0.0738602964   -2.6701255169
 H    1.1955791262   -2.5022842311   -2.8280322996
 H    0.0113585572   -2.1645024542   -4.1890295829