20

 C    0.3150092147    1.7078717246   -0.1544751560
 C    0.1997837519    0.1837369567   -0.3065461528
 C    0.7106146199   -0.5405490712    0.9455651514
 N   -1.1616185717   -0.1222596266   -0.7406405658
 C   -1.8931299243   -0.9056780379   -0.0684166788
 N   -3.1906477281   -1.1709380593   -0.4833488575
 C   -4.0217448816   -2.0671247078    0.1759217074
 N   -5.2636591545   -2.2048366463   -0.4144464383
 O   -3.6750971863   -2.6971278206    1.1543719514
 H    1.3521560359    2.0046267296    0.0308670097
 H   -0.0376170228    2.2082952007   -1.0598463168
 H   -0.2968411025    2.0558646281    0.6851822595
 H    0.8462636479   -0.1070272446   -1.1475923417
 H    0.6662174898   -1.6287915334    0.8353109506
 H    1.7541793031   -0.2679935701    1.1289919781
 H    0.1356746529   -0.2632955792    1.8365565044
 H   -1.6388999132   -1.4389899433    0.8478271216
 H   -3.4709676015   -0.7398899338   -1.3518720423
 H   -5.6489350955   -1.4334221745   -0.9368196523
 H   -5.9251996141   -2.7012392911    0.1619514382