20

 C    0.0882588477    1.5608959290   -0.0455197725
 C   -0.0059756768    0.0341499719    0.0204229742
 C    0.7633658807   -0.6707150913   -1.0765482546
 C    1.2072347352   -2.0199114277   -0.6528204810
 C    1.1659015957   -2.0026489244    0.8815598588
 C    2.1400473999   -0.8556733517    0.8177241116
 N    2.1985111357   -0.8943226401   -0.6953199544
 C    0.7088450934   -0.5853495120    1.2168052373
 C    0.3604520184   -0.2274418403    2.6382311620
 H    1.1334022472    1.8863393226   -0.0298335285
 H   -0.3696607218    1.9429543800   -0.9634779450
 H   -0.4273222841    2.0289233869    0.7990775662
 H   -1.0597186176   -0.2750944822   -0.0028837727
 H    0.6091732221   -0.4313733759   -2.1233634361
 H    1.3032988440   -2.8889300491   -1.2934171897
 H    1.1026499211   -2.8439793056    1.5574776082
 H    3.0250564303   -0.6113575528    1.3906950536
 H    0.4827044344    0.8453868326    2.8232103438
 H   -0.6772542196   -0.4914481529    2.8722173082
 H    1.0029553040   -0.7588149869    3.3477123305