19

 C   -0.0240785084    1.4554142198    0.0757861602
 C   -0.0297592328    0.0004419437    0.0571238978
 C   -0.0444899418   -1.2024238320    0.0425017713
 C   -0.0338451887   -2.6576987388    0.0285406910
 O   -1.3539436467   -3.1561380242   -0.1062206094
 C   -1.3930364920   -4.5652757540   -0.1577487572
 C   -2.8257324388   -4.9960837080   -0.3042042016
 C   -3.2645929659   -6.3301700496    0.1197514033
 O   -3.5767486278   -5.1752825114    0.8966793097
 H    0.5333702011    1.8649464162   -0.7737052923
 H   -1.0448556797    1.8495524888    0.0235348978
 H    0.4331154594    1.8414329354    0.9934072151
 H    0.5956652575   -3.0221252095   -0.8026833859
 H    0.4232127219   -3.0406287545    0.9575429688
 H   -0.8040169202   -4.9370356895   -1.0157534852
 H   -0.9703242869   -5.0112199057    0.7575472172
 H   -3.3702103514   -4.4945957717   -1.1045002141
 H   -4.1054110918   -6.8051718646   -0.3833729050
 H   -2.5479131170   -7.0168246203    0.5698587086