23

 C    0.3117090790    1.1966539114    0.4168269176
 O    0.2061581514   -0.1824185183    0.1626394901
 C    0.5179551691   -0.5532965266   -1.1781843559
 C    2.0522755667   -0.6153738902   -1.4231688602
 C    2.4372532228   -2.1215056377   -1.4018727210
 C    1.1954702853   -2.8457129884   -0.8519460467
 C    0.0323461400   -1.9978007458   -1.3898692601
 C   -1.3340354413   -2.3010747287   -0.7951321288
 O   -1.6903055074   -3.6209326617   -1.1948696403
 H    1.3374379661    1.5738718562    0.2868675130
 H   -0.3511553115    1.7820253754   -0.2406515022
 H    0.0124823132    1.3601231256    1.4554262869
 H    0.0194816229    0.1512362831   -1.8612538430
 H    2.3252101743   -0.1428249336   -2.3712755986
 H    2.5641205109   -0.0599742659   -0.6325148630
 H    2.6472102824   -2.4684411101   -2.4197703154
 H    3.3369609348   -2.3141982122   -0.8114907789
 H    1.1310562904   -3.8921036804   -1.1562489266
 H    1.1870178759   -2.8140347671    0.2442805907
 H   -0.0358013262   -2.1599196706   -2.4747228720
 H   -1.2897426510   -2.2096655573    0.2976508919
 H   -2.0717941702   -1.5661006521   -1.1571464434
 H   -2.5048384176   -3.8583893452   -0.7429545243