18

 C    0.0472186252    1.5217357498   -0.0832644091
 C   -0.0841283219    0.0275023055   -0.0468291118
 O    0.3150434150   -0.6412912030   -1.2304537087
 C   -0.5002899876   -1.7994561296   -0.8275813202
 C    0.4146730274   -2.6931358023   -0.0495827224
 C    0.9629073440   -2.0774456857    1.0073890547
 C    0.3596581957   -0.7369131435    1.3189508070
 N   -1.1119871909   -0.9312273199    1.5677925331
 C   -1.3491317879   -0.8258251295    0.1398992393
 H    1.1014183675    1.8085778403   -0.1643213925
 H   -0.4860332434    1.9347532997   -0.9444452111
 H   -0.3611032093    1.9602009003    0.8313745720
 H   -1.0032475297   -2.2465905691   -1.6852555877
 H    0.6529395609   -3.6999026006   -0.3724992850
 H    1.7319284564   -2.5114278780    1.6377425334
 H    0.8742438119   -0.1598431750    2.0892834018
 H   -1.3345860155   -1.8324799344    1.9894460129
 H   -2.3585997279   -0.5817550551   -0.1974973157