16

 O    0.0121222702    0.0171865026    0.3643833552
 C    0.0585301303    1.1584931408    0.0073718107
 O   -1.1222469474    1.7846999307   -0.3529101592
 C   -1.1181082867    3.1255642113   -0.6814640249
 N   -0.1359595009    3.8521720463   -0.9755894832
 C    1.1737007780    3.2119811994   -0.9812469748
 C    1.2670475899    2.0257760845   -0.0378517160
 C    1.9792731042    2.1678700619    1.3084755632
 C    2.5956590156    1.3559010697    0.2147558671
 H   -2.1373226244    3.5020297455   -0.6765459183
 H    1.3867701944    2.8988923348   -2.0137922222
 H    1.9320595603    3.9588631053   -0.7251985516
 H    2.3892554962    3.1470091806    1.5320421567
 H    1.5533688496    1.6415101897    2.1545416612
 H    2.5795675097    0.2771870450    0.3124094915
 H    3.4505090208    1.7652091917   -0.3130641555