17

 O   -0.3824577646    1.1949926056   -0.0127072216
 C   -0.1369944243   -0.1289446864    0.0802285650
 N   -0.2890156792   -0.9378833010   -0.9570833878
 N    0.0275197370   -2.1722355801   -0.4691762357
 C    0.3867819139   -2.1173422736    0.8370588799
 C    0.2871541356   -0.8047325302    1.2447792735
 C    0.1012171757   -3.2946330129   -1.3498973436
 C   -0.5619696155   -4.5814754017   -0.9325056921
 C   -1.1532922606   -3.7473162132   -2.0406399770
 H   -0.6544505882    1.3661264880   -0.9231060012
 H    0.6801748089   -3.0083721671    1.3695158066
 H    0.4747576678   -0.3932781250    2.2217976740
 H    1.0314232243   -3.3627008460   -1.9079132720
 H   -0.0590886195   -5.5084378878   -1.1825049329
 H   -1.0814042441   -4.5901512823    0.0184296523
 H   -2.0546374803   -3.1873222298   -1.8250492878
 H   -1.0643908670   -4.0955587964   -3.0628095996