16

 C   -0.3071878638    1.5716289159   -0.4209284467
 C    0.0730332252    0.1013012747   -0.1393572193
 C   -1.0898105480   -0.6607732171    0.3179240917
 N   -2.0094951176   -1.2617554995    0.6765127487
 C    0.7291724570   -0.5372353543   -1.3629269700
 C    0.3249267611   -1.8437337728   -1.9310206164
 O   -0.0467401270   -0.6252896303   -2.5613719874
 C    2.1518158977   -0.1259869264   -1.6153397467
 O    2.8442166620    0.4408022383   -0.8099278729
 H    0.5913251694    2.1396610065   -0.6711059390
 H   -1.0109144234    1.6269537181   -1.2542548379
 H   -0.7688673981    2.0218091215    0.4601930411
 H    0.8248564440    0.0807171239    0.6582182750
 H    1.0539591358   -2.4461775719   -2.4712789429
 H   -0.4783118906   -2.3867224719   -1.4391308854
 H    2.5100101064   -0.3964091648   -2.6317428818