17

 C   -0.0587416037    1.5105773846   -0.0130563933
 C    0.0036039338    0.0047344283    0.0029400010
 C    0.0157600743   -0.7337777440   -1.1711317961
 N    0.0675467156   -2.0768591795   -1.1977358734
 C    0.1144105222   -2.7196287546   -0.0542425087
 O    0.1588502561   -4.0801288450   -0.0703102774
 C    0.1125626551   -2.0961868270    1.2133432929
 N    0.2233710037   -2.8690981476    2.3655768548
 C    0.0508278253   -0.7097407871    1.2094895232
 H    0.8206050143    1.9559412421    0.4665597639
 H   -0.1060542989    1.8901597654   -1.0373515922
 H   -0.9396854603    1.8841647069    0.5216911917
 H   -0.0207208416   -0.2380736666   -2.1374447910
 H    0.1361829293   -4.3325033269   -1.0031031942
 H   -0.0607203020   -3.8298585942    2.2398073534
 H   -0.1721877904   -2.4551169800    3.1970091533
 H    0.0427846773   -0.1758874047    2.1567647322