19

 C   -0.0170293802    1.5844370104    0.0354183339
 C    1.4565300469    2.0113744316   -0.1973520523
 N    2.1489007014    0.8564034331   -0.8155024230
 C    2.4256688643   -0.3865440829   -0.0638299044
 C    1.9705080109   -0.6922145120    1.3527946685
 N    1.3978154517    0.4043028069    2.1654454616
 C    0.5047872591   -0.5086125632    1.4119029637
 C    0.0388243012    0.0379487011    0.0451444205
 C    1.2116568638   -0.2566962958   -0.9274310768
 H   -0.4264524117    1.9905993134    0.9630446857
 H   -0.6453936925    1.9259056218   -0.7938513871
 H    1.5214729683    2.8372569437   -0.9135904510
 H    1.9483234407    2.3121272125    0.7257713479
 H    3.3356655456   -0.8807973580   -0.3932760962
 H    2.4786121792   -1.5057699706    1.8612205794
 H    1.4090511465    0.1281458671    3.1450839442
 H   -0.1454186154   -1.1725470454    1.9726190419
 H   -0.9030090626   -0.4226399682   -0.2591139916
 H    1.0575190527   -0.7271713154   -1.8952645449