20

 C   -0.1421632536    1.3517716176   -0.4365691536
 C   -0.0158821219    0.0494997968    0.2891672214
 C   -1.0603820655   -0.7819158751    0.5439322953
 C   -1.7194455746   -1.3248484210   -0.7342532168
 N   -0.7520394604   -2.5027050594   -0.6142700582
 C    0.6330726657   -2.1813091819    0.0346883427
 C    1.2567285453   -0.7846095596    0.1867686423
 C   -0.5890225172   -2.2157856728    0.8422733809
 C   -1.0226764147   -3.1370589772    1.9380019777
 H    0.3430309643    1.3226625954   -1.4222726879
 H   -1.1911534306    1.6329186612   -0.5679359693
 H    0.3452530995    2.1627505289    0.1208460017
 H   -2.7239962711   -1.7512958102   -0.6513301025
 H   -1.6440448296   -0.7151053538   -1.6399363867
 H    1.2656257444   -3.0569110014   -0.0851006461
 H    1.8337354200   -0.4356810097   -0.6779722007
 H    1.9504229567   -0.7952325624    1.0404819130
 H   -0.5965115999   -2.8291039372    2.8992350547
 H   -2.1130291123   -3.1402399400    2.0436423639
 H   -0.6965245544   -4.1599190482    1.7272441683