15

 N   -0.3069831196    1.3226533315    0.0130919624
 C   -0.0665354556    0.0903298153    0.0033128690
 O   -1.1446585153   -0.7688416258    0.0088938459
 C   -0.8997177802   -2.1128758760   -0.0014034711
 O    0.1951687952   -2.6068075636   -0.0146649124
 C   -2.2073230822   -2.8701120938    0.0067203425
 C   -1.9692930631   -4.3879734438   -0.0022831525
 C   -3.2239196470   -5.1357644653    0.0046400075
 N   -4.2231376465   -5.7154715963    0.0102779115
 H    0.5664240141    1.8477414971    0.0074784499
 H    0.8904625090   -0.4306048780   -0.0093760696
 H   -2.7821929861   -2.5619679417    0.8862245106
 H   -2.7972939036   -2.5541500024   -0.8599477410
 H   -1.3861659328   -4.6721956499   -0.8836519785
 H   -1.3717277764   -4.6803921272    0.8666591857