16

 C   -0.0633710739    1.5677963857   -0.0213176093
 N    0.0402528658    0.1122778457   -0.0736334930
 C   -1.2093024721   -0.5811848507    0.0808038713
 C   -1.1653819470   -2.0190291240   -0.4056766969
 O   -0.5322431894   -2.4471782263   -1.3313829189
 C   -2.0515486918   -2.8179333075    0.5458407681
 O   -2.2693088724   -1.9718117598    1.6790382777
 C   -1.7041208743   -0.7344552003    1.5213962012
 O   -1.6702678539    0.0626223139    2.4081053892
 H    0.9270405606    2.0008859552   -0.1824523483
 H   -0.7547751407    1.9885663579   -0.7730682884
 H   -0.4125054523    1.8676372063    0.9690489319
 H    0.4631795423   -0.1968365699   -0.9433132773
 H   -2.0624987143   -0.1130561075   -0.4638438588
 H   -3.0103029524   -3.0690426566    0.0771554569
 H   -1.5607114442   -3.7429820220    0.8615616246