15

 O    0.0684840762    1.3702866992   -0.1330607435
 C    0.0891280070   -0.0391079320   -0.0404873966
 C    0.6971527317   -0.5377500576    1.2638888912
 C   -0.1582110565   -1.2635606473    1.9846777423
 C   -1.4739402793   -1.3590050898    1.2793916299
 O   -2.1046552666   -0.0718537759    1.0689423416
 C   -1.3323355834   -0.6495801485   -0.0069111626
 C   -2.0184218401   -0.9813424287   -1.2176084553
 C   -2.5558967512   -1.2503819798   -2.2585689809
 H   -0.5462537715    1.6699287075    0.5501620632
 H    0.6405632994   -0.3933930083   -0.9171961635
 H    1.6958687782   -0.2404685151    1.5615925628
 H    0.0257016661   -1.7027467154    2.9573785771
 H   -2.1618827378   -2.1862259814    1.4200982971
 H   -3.0403855121   -1.4874199470   -3.1735341328