16

 N   -0.0341580819    1.2562072606   -0.0656364607
 C   -0.2568122866   -0.1030503686   -0.2560120991
 O    0.2555142456   -0.7363388565   -1.1611383878
 N   -1.0854092898   -0.6769848934    0.6829050041
 C   -1.2316265475   -2.1249601922    0.7234962093
 C   -2.2144674663   -2.6364015584   -0.3521362013
 C   -2.4117955073   -4.0769444825   -0.2708581860
 C   -2.5548707254   -5.2662913400   -0.1703929283
 H    0.3785364087    1.6927078216   -0.8762388786
 H   -0.7754090049    1.7973905923    0.3540900135
 H   -1.2388158049   -0.1752301188    1.5419584765
 H   -0.2607881572   -2.6068350079    0.5718493439
 H   -1.5976779182   -2.3993213628    1.7158722153
 H   -3.1734930109   -2.1163391366   -0.2384813217
 H   -1.8129948624   -2.3616479224   -1.3330161062
 H   -2.6870547607   -6.3173303944   -0.1006076628