18

 N    0.0441891146   -1.1259481780    0.0403242396
 C    0.0230082580    0.0301217395    0.0139891984
 C   -0.0017245995    1.4772401054   -0.0192148408
 C   -0.9821226780    2.1790428802    0.9944923925
 C   -1.4800581201    3.0526862027   -0.1555693921
 C   -0.3130776473    3.5902673800   -0.9689048539
 C    1.0747829518    3.6361757706   -0.3294142761
 C    1.3858477070    2.1547045335    0.0111947170
 C   -0.7804714946    2.1796403757   -1.1814421419
 H   -1.7533166663    1.4884402065    1.3400168227
 H   -0.5140816413    2.6616467232    1.8591547185
 H   -2.4613054200    3.5069518923   -0.2165347765
 H   -0.5771971225    4.3292084907   -1.7171013223
 H    1.8142379458    4.0457790385   -1.0229366395
 H    1.0886658947    4.2702623200    0.5629996519
 H    1.8754207602    2.0266129674    0.9805899827
 H    2.0292542902    1.7049842095   -0.7512105016
 H   -1.1243009928    1.7284531623   -2.1015188286