16

 N    0.0963201675    1.1853291045    0.5815513273
 C    0.1007767443    0.0523794459    0.0135042284
 O    1.2364125234   -0.4696625850   -0.5116825735
 C    1.2376203076   -1.5953714819   -1.3985154942
 C    0.0414398226   -2.4822182030   -1.2910395220
 C   -1.0596180261   -2.1119433090   -0.6523147406
 C   -1.1796667001   -0.7651798931   -0.0108486372
 C   -1.7740252229   -0.8450103892    1.4092234129
 O   -2.3082590202   -1.8288297066    1.8451442820
 H    1.0239398435    1.6105185902    0.5388352749
 H    1.3534150584   -1.2165272747   -2.4252449249
 H    2.1523399153   -2.1508157102   -1.1621901264
 H    0.1232231087   -3.4538940520   -1.7688314312
 H   -1.9131235135   -2.7725458573   -0.5536619655
 H   -1.9152411222   -0.1523216513   -0.5580217875
 H   -1.6814163363    0.0975956827    1.9811028076