21

 C   -0.1394130249    1.5568655501    0.1337076336
 C    1.3852032601    1.4075344370    0.0007393491
 O    1.7373653701    0.6972063076    1.2127277874
 C    0.7110475613   -0.3343211277    1.2830504999
 C   -0.0461120940   -0.0113973719    0.0035359996
 C   -1.0954703605   -0.8061867909   -0.7360461899
 C   -0.9926749317   -0.2444837849   -2.1864515068
 C    0.4479776101    0.3601538487   -2.3566865122
 C    1.1422652529    0.2386072911   -0.9850028711
 H   -0.5167406217    1.9699460809    1.0721970083
 H   -0.6227965897    2.0352946681   -0.7172587456
 H    2.0878909412    2.2275785302   -0.1434792546
 H    1.1764889768   -1.3272817764    1.2750339691
 H    0.1323630269   -0.2171463877    2.2071240286
 H   -0.8354296586   -1.8721748819   -0.7148079906
 H   -2.1060753217   -0.7092892443   -0.3272943121
 H   -1.1981763086   -1.0186945199   -2.9307034517
 H   -1.7471316416    0.5334189866   -2.3371210048
 H    1.0174679603   -0.1909242695   -3.1091448397
 H    0.3923133471    1.3927034541   -2.7138986139
 H    1.9429574461   -0.5066763396   -0.9843309827