19

 O    0.0387460121    1.4394529074    0.2448354160
 C   -0.0002969075    0.0613221623    0.1317004641
 C   -0.8223029773   -0.7048689847   -0.9110193378
 C   -1.1751903673   -1.7610957754    0.1902989048
 C   -0.3737536391   -0.9502784908    1.2182770638
 C    1.0461879494   -0.8125684133    0.7518884654
 C    2.0494622102   -1.8049607665    0.1647713469
 O    3.1143584883   -1.2032253049    0.9357452736
 C    2.2108164545   -0.2762912430    1.5771306974
 H    0.7653574179    1.7723650832   -0.2949289924
 H   -1.7000150186   -0.1364515093   -1.2258311147
 H   -0.2901581959   -1.0582335027   -1.8007064182
 H   -2.2442529672   -1.7942829052    0.4075613862
 H   -0.8230618228   -2.7821252895    0.0139374342
 H   -0.6430538100   -0.7878076396    2.2558403334
 H    1.8936757034   -2.8579993595    0.4353442028
 H    2.2354521094   -1.7373458984   -0.9154561316
 H    2.4893060116    0.7703727205    1.3952379367
 H    2.1511559290   -0.4423305905    2.6609384093