16

 C   -0.0627267695    1.5882392395   -0.0698488372
 C    0.0483220367    0.0526946722   -0.0180063422
 C    0.6818307574   -0.4855454441   -1.2184590928
 C    1.1870790206   -0.9296760876   -2.2138075378
 C    0.8002617499   -0.4475303951    1.2557157649
 N    2.1446403251    0.1144297019    1.3448750771
 C   -0.0228345682   -0.1832680272    2.4582179375
 N   -0.6339517212    0.0511393450    3.4117552210
 H    0.9240525809    2.0460551908   -0.1760437223
 H   -0.6628064812    1.8901887306   -0.9308986690
 H   -0.5433054184    1.9693825650    0.8363441652
 H   -0.9670119605   -0.3594596455    0.0474858063
 H    1.6366028286   -1.3205835769   -3.0929754861
 H    0.9018149471   -1.5335780855    1.1641104738
 H    2.1039092055    1.0902119361    1.6216170360
 H    2.6780985673   -0.3682402692    2.0605144358