13

 O    0.0096358972    0.0021583184   -0.0920921118
 C   -0.0375524036    1.1913228470    0.0135581034
 C   -1.2594602041    2.0936560373    0.1666798983
 C   -0.6429558452    3.4545166235    0.4952310730
 O    0.6454606375    3.4468696162   -0.1470010599
 C    1.1922639718    2.1575427028   -0.0082435345
 C    1.9752447315    2.0079294895    1.2320285579
 N    2.5629416585    1.9026177293    2.2214105252
 H   -1.7901774943    2.1125724667   -0.7916437915
 H   -1.9387833013    1.6961198322    0.9230553942
 H   -1.1914624700    4.3055718870    0.0909009888
 H   -0.5236698405    3.5903067138    1.5785002638
 H    1.8301686626    1.9383582962   -0.8693316869