17

 O   -0.0757791703    1.2318790855   -0.8102590821
 C   -0.0387848274    0.0825819870    0.0026496221
 C   -1.4137904684   -0.5890094851    0.0524175499
 O   -1.8764847951   -0.8149178122   -1.2811870148
 C   -1.4130838404   -1.8745595623    0.8958276630
 C   -2.7968198287   -2.5096253683    0.9138011666
 O   -3.6486864316   -2.1828908691    1.7095538915
 C   -3.0444568432   -3.5209747099   -0.1003781282
 C   -3.2258180682   -4.3747153191   -0.9299994594
 H   -0.6023771966    0.9855848696   -1.5821406420
 H    0.7043705068   -0.6514429838   -0.3621658713
 H    0.2728630195    0.3946991897    1.0054242056
 H   -2.1355326052    0.1168069651    0.4771847803
 H   -1.3914384924   -1.5636244590   -1.6491011203
 H   -0.6729742639   -2.5800974509    0.4994543505
 H   -1.1461873379   -1.6260481058    1.9274268999
 H   -3.4132053471   -5.1274957716   -1.6571347912