21

 C   -0.0472619756    1.5505675161   -0.0580294065
 C    0.0430744975    0.0252064069   -0.0042372384
 C    0.6732379353   -0.5560712903   -1.2758359459
 O    0.6942886019   -1.9738610827   -1.2655726681
 C    1.4535729073   -2.4913405096   -0.1856794935
 C    0.8877491390   -2.0478644286    1.1640853188
 C    0.8094976826   -0.5018052181    1.2432142441
 C    2.1427361390    0.0871970934    1.3748887184
 C    3.2449018234    0.5559280271    1.4886888783
 H    0.9463577802    2.0030465221   -0.1303560569
 H   -0.6352547074    1.8761801582   -0.9224827321
 H   -0.5284865670    1.9483457998    0.8416854054
 H   -0.9709168592   -0.3894919064    0.0679014399
 H    0.0912614075   -0.2666962901   -2.1563532304
 H    1.6946436784   -0.1572051930   -1.3974072119
 H    1.4203030454   -3.5803228137   -0.2829537901
 H    2.5055023402   -2.1733890060   -0.2719189561
 H   -0.1239034962   -2.4533049088    1.2786179294
 H    1.5031266526   -2.4417776316    1.9791055999
 H    0.2352468905   -0.2251578876    2.1372326811
 H    4.2148517947    0.9747442828    1.5961292347