17

 C   -0.1251848069    1.3734391745   -0.1119252109
 O   -0.0827332316   -0.0334077431   -0.0875214117
 C    0.7587959371   -0.5777030477   -1.0796578190
 C    0.7027795490   -2.0883333145   -0.9746121696
 C   -0.6080871788   -2.7417185296   -1.4611401376
 O    0.0558315185   -3.3272402759   -2.6031158983
 C    1.3410256615   -2.8560434423   -2.1525324777
 H    0.8689859413    1.8151107326    0.0617679911
 H   -0.5051681036    1.7545614341   -1.0730818085
 H   -0.7983172244    1.6950014785    0.6864145506
 H    0.4309989302   -0.2567229494   -2.0846750273
 H    1.7961067461   -0.2212701948   -0.9489202141
 H    1.0296350352   -2.4006539564    0.0192445221
 H   -1.0264551786   -3.5067893177   -0.7953867021
 H   -1.4058908656   -2.0485785854   -1.7531027975
 H    1.8455370233   -2.2425530625   -2.9110892489
 H    2.0061453571   -3.6813303102   -1.8676078007