22

 C   -0.2206033184    1.4356217298    0.0124727518
 C    0.0914411515   -0.0340473094    0.0011208310
 N    1.2841743993   -0.4662667973   -0.0131339756
 O   -1.0668356392   -0.7524609755    0.0084680480
 C   -0.9788553519   -2.1748008862   -0.0006356854
 C   -2.3955556371   -2.7308004041    0.0104034437
 C   -2.4142855213   -4.2615928713    0.0017082048
 C   -3.8270875421   -4.8305582297    0.0124340313
 O   -3.7244398799   -6.2455561835    0.0031704180
 H    0.7069191229    2.0061618453    0.0085799041
 H   -0.8227503530    1.7007273121   -0.8621893036
 H   -0.8091492480    1.6901442911    0.8994179214
 H    1.3356911352   -1.4841062343   -0.0195452137
 H   -0.4363582730   -2.5097034273   -0.8960538186
 H   -0.4185122684   -2.5199637255    0.8797690380
 H   -2.9144892185   -2.3477281300    0.8972939063
 H   -2.9322101478   -2.3375321393   -0.8613498120
 H   -1.8944953562   -4.6451200937   -0.8848803709
 H   -1.8770400191   -4.6553279937    0.8732885032
 H   -4.3640361679   -4.4738461626    0.9068437735
 H   -4.3816699011   -4.4635128007   -0.8669085127
 H   -4.6131023261   -6.6126822040    0.0099829374