19

 C   -0.0365719928    1.5771340191   -0.5824096138
 C    0.0293257811    0.2147828756    0.1169738289
 C   -1.3299266415   -0.4407279698    0.2539655948
 C   -1.9376878651   -1.2404823436   -0.9000914305
 C   -1.4761600633   -1.9177100444    0.3415153398
 C   -0.4716367087   -3.0346063526    0.5809934687
 C   -1.5618952666   -3.5665463707    1.5174842955
 O   -1.7345524876   -4.4915859971    2.2418818616
 O   -2.4254908837   -2.5277606743    1.2590546137
 H    0.9584394382    2.0231328497   -0.6724033784
 H   -0.4576842264    1.4827708007   -1.5885963170
 H   -0.6673471759    2.2765773965   -0.0235070461
 H    0.6984115226   -0.4522030774   -0.4420675250
 H    0.4773657928    0.3327366560    1.1120741855
 H   -2.0535302061    0.1170649029    0.8444529916
 H   -3.0072545244   -1.1667603030   -1.0625165694
 H   -1.3468907866   -1.3734982120   -1.8018466429
 H   -0.2527728839   -3.6868573831   -0.2664004295
 H    0.4556959478   -2.7587130724    1.0868169526