15

 C   -0.0699285062    1.5891618839    0.0566092228
 C    0.0123074870    0.0634209986   -0.0134466099
 C    0.8546898125   -0.4645457441   -1.2257947861
 O    2.0986655129   -0.7896698243   -0.6377273395
 C    1.7628670936   -1.2656162586    0.6384341834
 O    0.7414106872   -0.4101668950    1.1212268563
 C   -1.3394805238   -0.5328116776   -0.0213246648
 N   -2.3991306766   -0.9927119788   -0.0474709721
 H    0.9420063755    1.9972716737   -0.0054714529
 H   -0.6732678880    1.9848664939   -0.7649557426
 H   -0.5188685544    1.8979648976    1.0030868670
 H    0.3802267684   -1.3467067315   -1.6756926865
 H    1.0129384474    0.2974545509   -1.9903158701
 H    1.4000534784   -2.3070390434    0.5909799226
 H    2.6320986563   -1.1890831953    1.2953438625