20

 C    0.0638544436    1.5335539392    0.0149582054
 C   -0.0052651720    0.0336697959    0.0721360996
 C    1.1563037383   -0.8582588061   -0.2754846517
 C    0.5513853413   -0.9677730422    1.1013017963
 C    1.3451742636   -0.7349554333    2.3457261257
 O    2.1117868612   -1.9049089386    2.6209878995
 C   -0.7338071903   -1.8003682085    1.0134408013
 C   -1.3033736046   -0.7832275775   -0.0286524559
 H    1.0537941731    1.9021897935    0.3032997795
 H   -0.1359438115    1.8967899287   -1.0010409495
 H   -0.6743633005    1.9971917598    0.6800163812
 H    1.0444650773   -1.6716126856   -0.9900402939
 H    2.1243500043   -0.3670123015   -0.3144836470
 H    1.9982515032    0.1432384509    2.2100219304
 H    0.6663819509   -0.5096127868    3.1849952428
 H    2.5410216707   -1.7840317330    3.4735602101
 H   -0.6105027653   -2.8354365203    0.6799316108
 H   -1.3045467189   -1.8027804660    1.9459968338
 H   -2.1739931004   -0.2431841834    0.3536013996
 H   -1.5477542239   -1.1732203351   -1.0227651780