15

 N   -0.2052135251    1.2724077947    0.1258948134
 C    0.0389220004   -0.0553704312   -0.0814820400
 O    1.1050723607   -0.5348776068   -0.3876190498
 O   -1.1107681423   -0.7621775370    0.0711127494
 C   -0.9870742871   -2.1739590528   -0.1455844057
 C   -2.3727560152   -2.7418965039   -0.2346229282
 C   -2.6432217799   -4.1297612386    0.1575244571
 O   -3.0302187084   -3.0433595286    0.9970904272
 H    0.6035320708    1.8578093191    0.2438832472
 H   -1.0550442490    1.5404335451    0.5926101192
 H   -0.4260828351   -2.3531401473   -1.0682380142
 H   -0.4392053262   -2.6313256749    0.6848224585
 H   -3.0150040207   -2.2775404875   -0.9834200548
 H   -3.4568088177   -4.6728405300   -0.3204643059
 H   -1.8332005652   -4.7504474603    0.5391040565