19

 O   -0.1051492905    1.4396984218   -0.1116517018
 C   -0.0569859889    0.0705207745    0.2585529738
 C   -1.4324194072   -0.5086205206   -0.0062982901
 C   -1.8197845664   -0.6809891827   -1.4873510816
 O   -1.9094151151   -2.1175452155   -1.3313679968
 C   -1.5880156962   -2.0444543319    0.0609464983
 C   -0.5227847916   -3.0159677840    0.6099241010
 O   -1.4262857744   -3.4927070656    1.6265388235
 C   -2.5250872984   -2.7473463631    1.0621430966
 H    0.7679862332    1.8208553185    0.0194986312
 H    0.6969164741   -0.4767593770   -0.3310222135
 H    0.2046608569   -0.0509160293    1.3219687378
 H   -2.1727815496    0.0330909875    0.5878640423
 H   -2.7771799794   -0.2435075796   -1.7897285115
 H   -1.0482552711   -0.3935799146   -2.2106537248
 H   -0.2583960018   -3.7938982737   -0.1184398420
 H    0.3925182149   -2.5903897078    1.0379602357
 H   -3.0236024104   -2.1151615760    1.8072491915
 H   -3.2636726481   -3.3935243209    0.5701776505