19

 O   -0.0763616070    1.3988266952    0.0463835415
 C   -0.0454383046   -0.0239590142    0.0273420642
 C   -1.4595086169   -0.5189448540    0.0802383179
 C   -2.5106499624   -0.3209734410    1.1945412336
 C   -3.2484834584   -1.1487802925    0.1238138595
 C   -2.5433219101   -0.4029184038   -1.0556548473
 C   -2.0930172061   -1.7105486760   -1.7422003309
 C   -1.9487887250   -1.9702777573   -0.2279199452
 O   -1.4380683600   -3.0742533062    0.4308340305
 H    0.8305973086    1.7153010812    0.0924383807
 H    0.4491542188   -0.4017702970   -0.8827414434
 H    0.5114733289   -0.4233533081    0.8898496969
 H   -2.3084949692   -0.8192424076    2.1473530601
 H   -2.8604812188    0.7022891696    1.3554462926
 H   -4.2730029525   -1.5251135818    0.1149056171
 H   -2.8794848351    0.5259657056   -1.5092214405
 H   -2.8694929369   -2.2761807763   -2.2688984765
 H   -1.1729691799   -1.6756379105   -2.3340057822
 H   -1.9997213331   -3.8328053253    0.2378030714