17

 C   -0.0576548958    1.4995960442    0.1541444306
 C   -0.0258559815   -0.0084259751   -0.0176802967
 O   -1.3480312965   -0.5038217592    0.1148089917
 C   -1.4316322814   -1.9010788843   -0.0355099352
 C   -2.8730224894   -2.2851402299    0.0710991742
 N   -3.2726571539   -3.4388182598    0.5319511214
 O   -4.6373546494   -3.4233204082    0.4441999509
 N   -5.0894892341   -2.2401924669   -0.0669080075
 C   -4.0219634670   -1.5308637095   -0.3026054838
 H    0.9506175226    1.9126587773    0.0584777619
 H   -0.6947884492    1.9601561878   -0.6060814660
 H   -0.4502018557    1.7655524050    1.1394254554
 H    0.3796516742   -0.2814036487   -1.0062021135
 H    0.6261091118   -0.4738142385    0.7394696051
 H   -1.0353488395   -2.2106169121   -1.0183074221
 H   -0.8475222784   -2.4340565064    0.7297091964
 H   -4.0808099268   -0.5333556958   -0.7059672627