14

 C    0.0915708067    1.4078802703   -0.0204309439
 N    0.0384201737   -0.0363150519    0.0092145945
 N    0.0867855796   -0.7816756217   -1.1371113360
 C    0.0973447177   -2.0333653877   -0.7682632115
 N    0.0670161300   -2.1373319474    0.6082380453
 C    0.0518725319   -2.9138541211    1.7514850512
 N    0.0196402858   -2.1325546584    2.8042854646
 N    0.0127905856   -0.8034007364    2.4103467443
 C    0.0391385127   -0.8525891023    1.0988459584
 H    1.1131579336    1.7658027394   -0.1846100194
 H   -0.5526002444    1.7737817761   -0.8216608108
 H   -0.2688878502    1.7789440280    0.9404108338
 H    0.1205094938   -2.8675085920   -1.4481853665
 H    0.0642575634   -3.9902681649    1.7545708260