15

 C   -0.0739483947    1.6512237160   -0.1439371537
 C   -0.0103475957    0.1346041169   -0.0235282030
 C    1.0620543235   -0.6556176032   -0.8404305642
 O    1.2291933858   -0.8562775644   -2.0038198482
 C    1.6898477148   -1.2111434207    0.4387425736
 O    1.9978672588   -0.0690941998    1.2425243420
 C    0.6411852894   -0.4797813070    1.2363903288
 C    0.0025450231   -0.9735648669    2.4834000409
 O    0.5850441798   -1.1668569367    3.5181679671
 H    0.8785756742    2.0987447536    0.1493945370
 H   -0.2837343776    1.9353262476   -1.1791263289
 H   -0.8642833021    2.0668733012    0.4884997193
 H   -0.9829775850   -0.3275453201   -0.2375866354
 H    2.2144604182   -2.1355515099    0.6528594081
 H   -1.0876655623   -1.1644986266    2.3721993366