17

 O    0.1581773293    1.4334419809    0.1674048808
 C    0.0142165459    0.0564266224   -0.0057170391
 C   -1.3798898581   -0.6311398870   -0.0934257697
 C   -2.3356573558    0.1932626740   -0.9502911904
 N   -1.6101370570    0.6731516231   -2.1303192913
 C   -0.3749970095    0.1801468027   -2.4924722369
 O    0.1592051993    0.4299491300   -3.5507585278
 C    0.2478324257   -0.6517098048   -1.3748575348
 N   -0.7839328542   -1.6826674601   -0.9870209117
 H   -0.2912669361    1.8769259943   -0.5629346660
 H    0.6219219095   -0.4229185002    0.7669742513
 H   -1.8722638758   -0.9852976047    0.8146122142
 H   -3.1882414118   -0.4303710633   -1.2450840752
 H   -2.7144179533    1.0456597447   -0.3727589668
 H   -2.1253883423    1.1278166756   -2.8709657048
 H    1.2325066192   -1.0100179567   -1.6715265044
 H   -0.3223131149   -2.3761184509   -0.4003088576