21

 C   -0.5733714977    1.3600599603   -0.1588955354
 C    0.1436374458    0.0139155231   -0.1889994486
 C    1.3813833562   -0.0509614857   -1.1182777415
 C    2.2628712981   -1.0713861236   -0.4416489593
 C    1.8461743035   -1.3491845363    0.7922562254
 C    0.6287813836   -0.5512726969    1.1721433328
 C    0.7745090885    0.3563522660    2.4317609563
 C   -0.2806410637   -0.5671806005    3.0604740728
 O   -0.4130825233   -1.3225919750    1.8409269754
 H    0.0971592140    2.1718464634    0.1447501273
 H   -0.9627454537    1.6131387843   -1.1505471946
 H   -1.4220940622    1.3415286575    0.5328845100
 H   -0.5675975045   -0.7467454042   -0.5348934236
 H    1.1226915396   -0.3227090777   -2.1484011702
 H    1.8879461090    0.9236533890   -1.1776084693
 H    3.1431165002   -1.4925845529   -0.9158472042
 H    2.3192436734   -2.0292037759    1.4923021678
 H    1.7620099721    0.3396964119    2.8958708180
 H    0.4623208916    1.3920232377    2.2939220226
 H    0.0743837760   -1.1886838265    3.8926108432
 H   -1.2263780164   -0.0959117781    3.3544961952