16

 N   -0.0728667504    1.4190889880    0.1810510713
 C   -0.0211886115   -0.0080551794   -0.0134525138
 C   -0.6497813393   -0.8596827279    1.0768286760
 C   -1.3422622842   -0.7446446398   -0.2468293741
 C   -2.6233123889    0.0618407233   -0.3859420047
 C   -3.7847888313   -0.6656516993    0.1259235163
 N   -4.6948636897   -1.2488794259    0.5339020864
 C    1.1443351116   -0.5370261806   -0.6932087519
 N    2.0865058294   -0.9154054468   -1.2486209694
 H    0.6364902195    1.7137033271    0.8452986222
 H    0.1081973596    1.9096652792   -0.6897410079
 H   -0.1714204342   -1.7960018439    1.3352441451
 H   -1.0601397049   -0.3005768441    1.9104567418
 H   -1.2771718630   -1.6105535805   -0.8966444321
 H   -2.5201541840    1.0070315468    0.1551514418
 H   -2.8052891787    0.3123090638   -1.4374394170