20

 C    0.0698052420    1.6378532677    0.4431241317
 N    0.0752937098    0.2201263861    0.1648070077
 C   -1.1946944640   -0.5286895149    0.1952412686
 C   -0.4327102881   -1.7328900255    0.7938997390
 C    0.6630811056   -0.6926346447    1.1744740744
 C    2.0709507808   -1.0168137247    1.0221421240
 C    3.2436530335   -1.2738131113    0.9089482387
 C    4.6483142514   -1.6353502172    0.7286112183
 O    4.9863291434   -1.9616596020   -0.6125657058
 H    1.0998264035    2.0062654968    0.4862397853
 H   -0.4452814422    2.1716455580   -0.3624418868
 H   -0.4296004022    1.8921141014    1.3981849630
 H   -1.9265731130   -0.1115236539    0.9080754189
 H   -1.6803210870   -0.6510912824   -0.7779259457
 H   -0.8993743425   -2.2753280767    1.6156093171
 H   -0.0809361847   -2.4317459108    0.0344302731
 H    0.4869350028   -0.3298055271    2.2039980484
 H    5.2941186299   -0.7929085490    1.0012472982
 H    4.8986439125   -2.4595034012    1.4166652709
 H    4.3252931787   -2.5850048885   -0.9311449291