23

 C   -0.4530073190    1.6550550695   -0.0687312863
 O   -0.2722625383    0.3248778809    0.3627338063
 C   -1.3742388353   -0.5123638407    0.1085830782
 C   -1.4713056586   -1.2378320003   -1.2803850098
 C   -0.2206220210   -1.1853873479   -2.1531016331
 C   -1.6827717251   -2.5787582595   -0.5108163014
 C   -1.3113692787   -1.8836756385    0.8309303041
 C    0.0467011493   -2.2617928617    1.4002147095
 O   -0.0560316840   -3.6043058487    1.8613806403
 H    0.4455406703    2.2124415336    0.2077637108
 H   -0.5903422125    1.7266303202   -1.1573659628
 H   -1.3244718532    2.1202494891    0.4182863640
 H   -2.3061331969    0.0237434063    0.3433956256
 H   -2.3374122097   -0.9245112385   -1.8718253345
 H    0.6813115853   -1.4358154747   -1.5878487587
 H   -0.3081789991   -1.8992956819   -2.9794881574
 H   -0.0697018279   -0.1917262230   -2.5875541369
 H   -2.7111020087   -2.9454218335   -0.5414573304
 H   -1.0197053381   -3.3985727868   -0.7992743271
 H   -2.0507998423   -2.0040368366    1.6278368790
 H    0.8295469587   -2.1658468954    0.6338047945
 H    0.3083420365   -1.5733778805    2.2169036723
 H    0.8038305984   -3.8681971116    2.2010625737