16

 O    0.3036293553    1.2348516920   -0.3336211589
 C    0.0422946577   -0.1029437097   -0.1374553358
 C    0.1543394761   -0.6508974792    1.3443085578
 N   -1.1587552279    0.0518534145    1.5570569701
 C   -1.4929838317   -0.5177299922    0.2047348485
 C   -2.6393069635    0.0489854433   -0.5660765339
 O   -3.2451389770   -0.5659320420   -1.4089082710
 C   -1.3092767700   -2.0216547615    0.3443169018
 C   -0.2196471034   -2.1140299825    1.1180663758
 H   -0.1100408688    1.6975074949    0.4103875686
 H    0.5186714228   -0.6807015852   -0.9287802931
 H    0.9852089727   -0.3859292423    1.9980824304
 H   -1.7124749554   -0.3755072975    2.3018704911
 H   -2.8838507139    1.1060642135   -0.3235672512
 H   -1.9051070013   -2.7753569577   -0.1475960154
 H    0.3329565084   -2.9837844386    1.4428536052