20

 C    0.1060108921    1.5564314242    0.0841426806
 C    0.0638459848    0.0269352861    0.0464463579
 C    0.5800913790   -0.5450008338   -1.2802403876
 O    1.9281627768   -0.1187212913   -1.5034755397
 C    2.7723695662   -1.2406657512   -1.7445156010
 C    1.8792749207   -2.4374798219   -1.6024512453
 C    0.6307536707   -2.0569593936   -1.3453233493
 C   -0.5852568828   -2.9074596142   -1.1643304933
 H    1.1259633116    1.9135611980   -0.0786008910
 H   -0.5291063205    1.9878312681   -0.6980131672
 H   -0.2446804405    1.9382583437    1.0477488550
 H    0.6696595140   -0.3896168689    0.8606077644
 H   -0.9650885622   -0.3228805641    0.2003090030
 H   -0.0555165958   -0.1483196535   -2.0942612216
 H    3.2173598355   -1.1683727613   -2.7508617689
 H    3.6069514028   -1.2385036110   -1.0256800537
 H    2.2303877911   -3.4562870898   -1.7149616407
 H   -0.3555730757   -3.9669660111   -1.3031135687
 H   -1.0190462561   -2.7831563582   -0.1649056038
 H   -1.3691689419   -2.6320014764   -1.8812892993