19

 C   -0.1486159383    1.5018653562    0.0894575260
 C   -0.0658623969   -0.0109279263   -0.0144231676
 O   -1.3739318797   -0.5430249787    0.0867249229
 C   -1.4150066720   -1.9526081231   -0.0046485913
 C   -2.8488854241   -2.3779035484    0.0431256798
 N   -3.2982528351   -3.6021644144    0.2064111027
 C   -4.6701809595   -3.4935981177    0.1475726108
 C   -5.0449378114   -2.1909529970   -0.0492795235
 N   -3.8633192343   -1.4863249484   -0.1195783770
 H    0.8499301641    1.9424681169    0.0169318744
 H   -0.7656847896    1.9102645478   -0.7162135757
 H   -0.5895558610    1.7981728030    1.0454445856
 H    0.3896191865   -0.3118049395   -0.9724413734
 H    0.5686399252   -0.4214686225    0.7879204415
 H   -0.9449330459   -2.2910715606   -0.9439745426
 H   -0.8599838382   -2.4272886851    0.8190929306
 H   -5.3066954934   -4.3588112122    0.2540243252
 H   -6.0042434459   -1.7093733423   -0.1371625214
 H   -3.7313932005   -0.4947272675   -0.2276091970