22

 C    0.0577188605    1.5359800791    0.0826129145
 C   -0.0082108815    0.0068293218   -0.0248080629
 C   -1.4221379137   -0.5236932163   -0.0371119801
 C   -2.5737435068   -0.2661919561   -1.0203875147
 C   -2.5051342485   -0.7291385577   -2.4628725193
 N   -3.2543702141   -1.2217585289   -0.0391842900
 C   -1.9200284901   -2.0000142929    0.1377668161
 C   -2.0215217197   -1.9076988310    1.6625089733
 C   -2.4769744133   -0.5510222061    1.1224779383
 H    1.0934076716    1.8883463916    0.0801593227
 H   -0.4593871667    2.0152982395   -0.7552803763
 H   -0.4138127461    1.8872888391    1.0063999543
 H    0.5036837727   -0.3220539932   -0.9390421719
 H    0.5409050180   -0.4473149750    0.8106068312
 H   -3.0238457333    0.7341132331   -0.9599467269
 H   -2.0425951400   -1.7165274523   -2.5562403076
 H   -3.5110274444   -0.7868339475   -2.8916974185
 H   -1.9222341787   -0.0265053694   -3.0684955501
 H   -1.6923706612   -2.8673711050   -0.4837716573
 H   -2.7954857593   -2.5230822098    2.1287402547
 H   -1.0875018685   -1.9345901458    2.2290485250
 H   -2.9121496267    0.3037025828    1.6451998954