25

 C   -0.0953209344    1.5992211449    0.0184610676
 C    0.0376136419    0.0747933731   -0.0122965200
 C    0.7303210110   -0.5164756855    1.2407881992
 C    0.0015525328   -0.1310182301    2.4527901909
 C   -0.6282797501    0.1786998583    3.4327267289
 C   -1.3757065575    0.5579034105    4.6245948256
 C    0.9118709115   -2.0637914407    1.1721845458
 C    1.6621390154   -2.5100204341   -0.0913400638
 C    1.6330190583   -2.5902163818    2.4207434957
 H    0.8873590684    2.0795010245    0.0894824737
 H   -0.5788319739    1.9659000315   -0.8923972094
 H   -0.6888227175    1.9271311806    0.8760796888
 H   -0.9542596922   -0.3834155712   -0.1130375445
 H    0.6110992148   -0.2137767188   -0.8982357523
 H    1.7397003256   -0.0772746942    1.2956076140
 H   -0.9163562240    0.1487352194    5.5314342716
 H   -1.4181361867    1.6468411326    4.7394755316
 H   -2.4073589314    0.1907911061    4.5835285144
 H   -0.0949473787   -2.5029055852    1.1496124653
 H    2.6365620547   -2.0116003705   -0.1669330621
 H    1.8479864935   -3.5884701701   -0.0587820637
 H    1.1061220950   -2.3028039889   -1.0088989060
 H    1.1104937528   -2.3014519099    3.3355106257
 H    1.7041666177   -3.6824158832    2.3950058305
 H    2.6544329030   -2.1935927474    2.4764117624