23

 C   -0.0473693391    1.4465946151   -0.0887689815
 O   -0.0307937108    0.0605531679    0.1531755052
 C   -1.2916490169   -0.5912842483    0.0373228206
 C   -1.7280730105   -0.7381404398   -1.4243366377
 C   -1.1667732979   -1.9407971515    0.7526492641
 C   -0.0557472810   -2.8753489856    0.1905652670
 C    0.4841665720   -3.5557840575    1.4246812265
 C    0.0488116881   -2.9860907790    2.5465175277
 C   -0.8641287113   -1.8167417057    2.2726429341
 H    0.9491826421    1.8267228743    0.1511032070
 H   -0.2682287706    1.6941738180   -1.1374021046
 H   -0.7842946526    1.9617938586    0.5477217604
 H   -2.0480032976    0.0119135196    0.5703917532
 H   -0.9925257164   -1.3176729363   -1.9899471170
 H   -2.6928748495   -1.2522471559   -1.4826534462
 H   -1.8434359321    0.2345859845   -1.9106681236
 H   -2.1300229271   -2.4516209484    0.6400194461
 H   -0.4417788596   -3.5835289864   -0.5516945325
 H    0.7319130072   -2.2940339962   -0.3062099987
 H    1.1805066429   -4.3860152805    1.3729435615
 H    0.3353462586   -3.2805515125    3.5504640488
 H   -0.3548161171   -0.8686020400    2.4902071207
 H   -1.7777461508   -1.8330492045    2.8789497588