20

 O    0.1920299169    1.5884888063   -0.2723922643
 C    0.0026349932    0.2193794395    0.0187422493
 C    0.8641601053   -0.5467179294   -0.9847154772
 C    2.3466540036   -0.1270327424   -0.9230782007
 C    3.1730196906   -0.8672168046   -1.8723723956
 N    3.8131918511   -1.4645735887   -2.6268199373
 C    0.1841447696   -0.2440762482    1.4997959430
 C   -1.0733821353   -1.1391799611    1.3377695211
 C   -1.4590157402   -0.3195971202    0.0773107128
 H   -0.3201576460    2.1072338590    0.3557868227
 H    0.7738191527   -1.6220158939   -0.8031860901
 H    0.4794160724   -0.3551179491   -1.9918217987
 H    2.4294576430    0.9433897857   -1.1303736457
 H    2.7507872070   -0.2865323502    0.0831507184
 H    1.1272323804   -0.7210115663    1.7799066485
 H    0.0036550506    0.5887411910    2.1875955477
 H   -0.8176102087   -2.1740668068    1.0984994147
 H   -1.7864718892   -1.1451918701    2.1636382012
 H   -2.1575118217    0.4894675055    0.3149384920
 H   -1.8339736053   -0.8547556061   -0.7990651719