17

 C   -0.0264182433    1.5379299814    0.0106418993
 C    0.0173107396    0.0099477164    0.0022942565
 C    0.7253532077   -0.5413039491   -1.2424898761
 O    0.8402698444   -1.9563143880   -1.1805151868
 C    1.5125378124   -2.3565230630   -0.0169271480
 O    0.8505543524   -1.9687961516    1.1567398383
 C    0.7362615128   -0.5545323891    1.2348357639
 H    0.9829141895    1.9658945570    0.0084099466
 H   -0.5526327508    1.9235141777   -0.8687106936
 H   -0.5447244650    1.9140847834    0.8987328463
 H   -1.0042455668   -0.3896086007    0.0046596027
 H    0.1701525142   -0.3118435719   -2.1565466908
 H    1.7286253073   -0.0861994049   -1.3304953235
 H    1.5439780658   -3.4477642656   -0.0228928746
 H    2.5408506169   -1.9423917429   -0.0192400890
 H    1.7402932839   -0.1003517937    1.3188599283
 H    0.1891431588   -0.3348726056    2.1561449705