17

 O    0.1151156160    1.3271841057   -0.2893661809
 C    0.0184341070   -0.0431848997   -0.0326027747
 C    0.3255517141   -0.9919679120   -1.2476011097
 C   -1.1269714034   -1.5378454742   -1.2022369056
 C   -1.3934393056   -0.6813679557    0.0820391281
 C   -1.3176157681   -1.4698263390    1.3595292934
 C   -0.1439247210   -1.3478015425    2.0011355081
 C    0.7269990991   -0.4034682533    1.2753483289
 O    1.7799309596    0.0895665330    1.6214252751
 H    0.9376391230    1.6150241340    0.1344320454
 H    0.5577962648   -0.4059529914   -2.1384663332
 H    1.1190134418   -1.7251935248   -1.0863319371
 H   -1.7360652499   -1.2311069647   -2.0544125544
 H   -1.2315095160   -2.6168311403   -1.0693080066
 H   -2.2502972451   -0.0056342834    0.0370815374
 H   -2.1354058271   -2.1054938595    1.6862943631
 H    0.1412995308   -1.8198489822    2.9325543426