16

 C    0.0138108580    1.5133523249   -0.0472323033
 C   -0.0119704995    0.0062323035    0.0315988742
 O    0.6734705915   -0.6140055103   -1.0771752056
 C    0.4349455130   -1.9631494645   -0.6538163183
 C    1.0228913900   -1.9055505871    0.7807739220
 C    0.7394913190   -0.6811788647    1.2091078223
 C   -1.1105810729   -1.9366906440   -0.5214354109
 C   -1.3877492047   -0.7126952657   -0.0879792129
 H    1.0437543750    1.8803563795   -0.0398599072
 H   -0.4710548342    1.8578045244   -0.9647222005
 H   -0.5142388907    1.9487115314    0.8070347493
 H    0.8678965591   -2.6836637915   -1.3459960133
 H    1.4921289750   -2.7291278505    1.2994633476
 H    0.9174579230   -0.2272803400    2.1739314906
 H   -1.7687475537   -2.7766580381   -0.6910655524
 H   -2.3365424380   -0.2755713372    0.1900391683