20

 O    0.0066870094    1.2907810188   -0.3280730449
 C    0.0329311532   -0.0748524928    0.0392888664
 C    0.3589819264   -1.0365165885   -1.1498410128
 C   -1.1263181839   -1.4997002188   -1.1720667869
 C   -1.4016592196   -0.6769694369    0.1242379222
 C   -1.4451460272   -1.4064473848    1.4537280750
 C   -0.4590633421   -2.4871292600    1.7203530623
 N   -0.2189404406   -1.1411638475    2.2520028746
 C    0.6831639234   -0.3173342698    1.4256760044
 H    0.9058466609    1.5574692519   -0.5491251330
 H    0.6931922687   -0.5123473445   -2.0485922607
 H    1.0833540210   -1.8209451595   -0.9140437042
 H   -1.6757559902   -1.1256041173   -2.0380694064
 H   -1.2992306853   -2.5745128688   -1.0908554826
 H   -2.2021147871    0.0607137087    0.0486668316
 H   -2.3784202487   -1.3998038125    2.0094770146
 H   -0.6738935856   -3.2403481025    2.4738706896
 H    0.1588320161   -2.8472675889    0.9009257959
 H    1.6725070405   -0.7849140287    1.3645242842
 H    0.7925435907    0.6547998425    1.9174281807