16

 C    0.2035798144    1.1407385581   -0.3430109284
 C   -0.1451441513   -0.2573034175    0.1956969439
 C    0.4415477064   -0.4849374012    1.5232525223
 N    0.9316425855   -0.6437945980    2.5573218646
 N   -1.5946283449   -0.5073614067    0.2092150290
 C   -2.1661607328   -1.1505019214   -0.8889721698
 N   -1.4536398012   -1.5214964249   -1.8720741372
 C   -2.4077871952   -0.0570137448    1.2436886518
 O   -3.6075325096   -0.1785555310    1.2680025970
 H    1.2880546572    1.2699651031   -0.3803362280
 H   -0.1990208799    1.2398350881   -1.3530796939
 H   -0.2185653667    1.9234096565    0.2924044433
 H    0.2656510712   -1.0071751353   -0.4873682772
 H   -3.2429352832   -1.2674349878   -0.7651445982
 H   -2.0253303177   -1.9835502939   -2.5757403909
 H   -1.8267485123    0.4204963568    2.0503568516