18

 C    1.0379514450    0.2472198253    0.3281369602
 C   -0.2956538822   -0.2420890197   -0.1663616560
 C   -1.1544185703   -1.1126743087    0.7218585217
 N   -0.5581260466   -2.4143964349    0.9926808718
 C    0.1666921736   -2.6429954515    2.1409582667
 N    0.7723831536   -3.8928825704    2.1827494119
 O    0.2908614768   -1.8235881673    3.0349278770
 N   -0.7887345140    0.0168974697   -1.3175294294
 O    0.0696699363    0.8256985452   -2.0779403661
 H    1.8451193689   -0.1062633552   -0.3220027630
 H    1.0697975028    1.3411500839    0.2892563838
 H    1.2200010246   -0.0857438591    1.3504385359
 H   -1.2914824992   -0.6350486658    1.6957126359
 H   -2.1304667105   -1.2469238333    0.2485347955
 H   -0.3890716241   -3.0108933691    0.1977751887
 H    0.3024112615   -4.6568975830    1.7203293142
 H    1.1140618445   -4.1208444354    3.1041517892
 H   -0.4334330106    0.9479799593   -2.8898704180