13

 O    0.0024343820    0.0207347475    0.1792527853
 C    0.0276423270    1.1990751743    0.0011470732
 O   -1.1028791736    1.9789984767   -0.0604244425
 C   -0.7192390077    3.2901470757   -0.4318925118
 C    0.3558552638    3.9983499278    0.3683883357
 N    1.0753047419    2.9845454949    1.1608991084
 C    1.2080890396    2.1653820709   -0.1169312008
 C    0.6752128983    3.3401826907   -0.9734618673
 H   -1.5295155927    3.8564535950   -0.8696200191
 H    0.2790248628    5.0338841068    0.6781668617
 H    1.9997363880    3.3479498610    1.3793062877
 H    2.1713407498    1.6979589630   -0.2958305326
 H    0.9896709708    3.6892668755   -1.9485103880