19

 O    0.2891867583   -0.2172329268    0.1077997856
 C    0.1364856882    0.9762562816    0.0760748947
 C    1.2447417562    2.0003333609    0.0085527931
 C    1.0593695635    2.9893145741   -1.1715098494
 C    1.5547557906    4.3461771740   -0.6358807786
 C    1.0605276104    4.3478531809    0.8183209796
 C    1.2683739288    2.9053871806    1.2658048245
 C    0.9884855278    2.4200810950    2.6236824288
 O    2.3300978648    2.6510279061    2.1871748548
 H   -0.8868704050    1.4241341027    0.1018052830
 H    2.1982458318    1.4694252899   -0.0466546020
 H    1.5822161898    2.6559158703   -2.0705671497
 H   -0.0064721548    3.0638227317   -1.4259632718
 H    2.6498431543    4.3814864253   -0.6581776830
 H    1.1837526732    5.1914876659   -1.2208618872
 H    1.5891916669    5.0404438925    1.4768349458
 H   -0.0081321335    4.5959767618    0.8507213300
 H    0.6131233701    3.1137402734    3.3757691906
 H    0.7258480987    1.3753070102    2.7861279814