19

 C   -0.0434412189    1.4104460331    0.1899184114
 C   -0.0140070439   -0.0577605258   -0.0894200795
 C    0.8203213376   -0.8860092400   -1.0952565682
 C    0.1302374062   -1.8707210819   -0.1343881733
 O    0.5033110006   -0.9682473379    0.9932435789
 C   -1.2056343807   -1.0729693176   -0.2385457808
 O   -2.0496816427   -1.1628280679    0.8774551365
 C   -2.1128568241   -1.1382105923   -1.4553434235
 O   -2.8759772505   -2.3301355324   -1.4424494249
 H    0.9488630383    1.7705263486    0.4768048873
 H   -0.3670005256    1.9573181466   -0.7013398031
 H   -0.7454718780    1.6280132001    1.0007148492
 H    0.5415570527   -0.8805217064   -2.1498262014
 H    1.8970239114   -0.8070176452   -0.9451442813
 H    0.2967374355   -2.9375533301    0.0106117799
 H   -1.4482190134   -1.1864590511    1.6373009730
 H   -2.7593993836   -0.2454418458   -1.4518306866
 H   -1.5463514629   -1.1359057152   -2.3883205117
 H   -3.2412641380   -2.3942376588   -0.5515941918