17

 O    0.6891588214    0.2973875457    1.1276955788
 C    0.0915570568   -0.2940980322   -0.0249247671
 C   -1.3491135492    0.2103096850   -0.0086131569
 O   -2.1691174603   -0.4661794918   -0.9607621159
 C   -2.0975595492   -0.1717579083   -2.2821985682
 O   -2.8224928737   -0.7432360933   -3.0476016584
 C   -1.0920270529    0.8886674208   -2.7258424669
 C    0.3547763544    0.5840326772   -2.4026403457
 C    0.8457952035    0.0685491732   -1.2772918443
 H    1.6271731675    0.0828809357    1.1279042317
 H    0.0663090491   -1.3919121223    0.0811854941
 H   -1.7890308296   -0.0110710570    0.9647346019
 H   -1.3709147017    1.2954180194   -0.1517341528
 H   -1.2214315291    0.9719132082   -3.8053379579
 H   -1.3856410070    1.8592608125   -2.3027513835
 H    1.0504969735    0.8013687626   -3.2089029457
 H    1.9182092765   -0.1202620953   -1.2268764531