16

 N    0.0351433856    1.3754949130    0.1944508331
 C    0.0328983701   -0.0132170800    0.0706397149
 N   -1.1407153421   -0.6424686732    0.1331532709
 C   -1.1316469913   -1.9764688174    0.0510451494
 C    0.0205527410   -2.7310896044   -0.1073043791
 C    1.2437804664   -2.0581086262   -0.1583735861
 O    2.4474972505   -2.6888061644   -0.2935531197
 C    1.2708769809   -0.6705802024   -0.0587014107
 N    2.4648805438    0.0742632157   -0.1256101428
 H    0.7079930531    1.8335385816   -0.4083641732
 H   -0.8963363680    1.7561429283    0.0925802684
 H   -2.1005527479   -2.4660865802    0.1030378089
 H   -0.0236426354   -3.8131074770   -0.1832492299
 H    2.3038294960   -3.6398010418   -0.3247447892
 H    3.2800605123   -0.5245039745   -0.0850925839
 H    2.5134500150    0.7715666229    0.6101624690