23

 C    0.0091260966    1.5799388063   -0.0454256871
 C    0.0258969341    0.0489659824   -0.0298078758
 C    0.7161420270   -0.5510662367   -1.2589887345
 C    0.7324280536   -2.0730765983   -1.2428302467
 O    1.3855476862   -2.5341308651   -2.4086505581
 C    1.4551730599   -3.9371841047   -2.4930581753
 C    2.1833013581   -4.2866568714   -3.7958745789
 C    2.3136363111   -5.7243890708   -3.9883371140
 C    2.4067346343   -6.9151431618   -4.1217404523
 H    1.0263589794    1.9858752440   -0.0708687564
 H   -0.5195806049    1.9602177237   -0.9263633229
 H   -0.4886691493    1.9827627957    0.8420398664
 H    0.5306291446   -0.3019038456    0.8800979874
 H   -1.0039041096   -0.3273667295    0.0308163910
 H    0.2126757266   -0.2162082265   -2.1742917280
 H    1.7502750832   -0.1907554933   -1.3232908254
 H    1.2536847468   -2.4431079331   -0.3427602968
 H   -0.2973400851   -2.4688313196   -1.2014980718
 H    1.9996434386   -4.3592102231   -1.6328064277
 H    0.4479360577   -4.3844669898   -2.4932353090
 H    1.6357096601   -3.8380308884   -4.6332034359
 H    3.1720157602   -3.8128947577   -3.7813561361
 H    2.4953109506   -7.9647857867   -4.2528954622