23

 C    0.1266612234    1.5166955547    0.0026541603
 C    0.0667072715    0.0646147126    0.0962565813
 C    0.0284040994   -1.1364092145    0.1775848638
 C   -0.0555166873   -2.5903390734    0.2617550398
 C   -1.3962974394   -3.1530463218   -0.2611414064
 C   -1.4490681427   -4.6632552579   -0.1700307362
 C   -1.8591528791   -5.3552358457    1.1118356002
 C   -2.7413496304   -5.4477938916   -0.1107805131
 C   -4.1075042356   -4.7967661249   -0.1440433840
 H    0.9684254966    1.8432032619   -0.6184455233
 H   -0.7877456875    1.9263195814   -0.4412341896
 H    0.2477120211    1.9768862238    0.9898270927
 H    0.7697258503   -3.0418346104   -0.3056580326
 H    0.0848833117   -2.9136510443    1.3014977737
 H   -2.2105726520   -2.7000957607    0.3128714069
 H   -1.5330996222   -2.8292718927   -1.3001200909
 H   -0.6485433481   -5.1525283648   -0.7221091425
 H   -1.3121925576   -6.2327677137    1.4393446261
 H   -2.2080563017   -4.7239185539    1.9245941589
 H   -2.7074977284   -6.4021866625   -0.6310668125
 H   -4.1337319711   -3.8668447990    0.4308356076
 H   -4.4154276256   -4.5618692236   -1.1693025020
 H   -4.8632125852   -5.4647751894    0.2839836418