20

 C   -0.0424450385    1.4918018495    0.1244837564
 C    0.0015339149    0.0058485581   -0.0340459466
 C   -0.0081221411   -0.7144331734   -1.1779983343
 C   -0.0661612041   -0.1730314791   -2.5780388165
 C    0.0478327104   -2.1508714890   -0.8478870232
 C    0.1019741504   -2.3064083529    0.6652741953
 C    0.0645633234   -0.8604139518    1.2020921543
 N    0.0576867812   -3.2106090115   -1.5654853820
 O    0.0050445401   -2.9523929378   -2.9509243798
 H    0.8403106030    1.8476302472    0.6719300579
 H   -0.0871132029    2.0253115411   -0.8264805005
 H   -0.9138173598    1.7903620568    0.7221012125
 H    0.8013578379   -0.4959656175   -3.1598362866
 H   -0.9448720534   -0.5497244969   -3.1083893351
 H   -0.0998195154    0.9188334663   -2.5836324142
 H   -0.7418042950   -2.9035908345    1.0209087724
 H    1.0109542065   -2.8353814121    0.9640286883
 H    0.9471435485   -0.6152041974    1.8076016613
 H   -0.8013710727   -0.6773950758    1.8521303527
 H    0.0209762564   -3.8434406292   -3.3138546422