20

 C   -0.1002922053    1.6295527500   -0.1030006386
 C    0.0086467153    0.1114625381   -0.0617564834
 C    1.1148553902   -0.5832803006   -0.9372082802
 C    1.7039636263   -1.2263892922    0.3272086002
 C    2.2728995619   -2.6028785657    0.4708828703
 N    2.0746771085   -0.1347035141    1.2128398594
 C    0.6422213266   -0.5220965773    1.1844347068
 C    0.0277411899   -1.1263927080    2.3632414961
 O    0.6622795209   -1.5753738356    3.2985878419
 H    0.8609851706    2.0867068802    0.1456358518
 H   -0.3986264569    1.9723987299   -1.0994211100
 H   -0.8469797732    1.9918167435    0.6121148224
 H   -0.9637128193   -0.3524278888   -0.2582857202
 H    0.7059935888   -1.3107026872   -1.6416931466
 H    1.8004241063    0.0884574530   -1.4605034308
 H    3.3101479223   -2.6285468074    0.1159384212
 H    2.2621651796   -2.9153381027    1.5196463220
 H    1.7017504191   -3.3299288190   -0.1147515254
 H    2.4464629383   -0.5410142104    2.0745097263
 H   -1.0819350598   -1.1880304756    2.3385024969