13

 O    0.1444689673    1.3774051904   -0.0684468430
 C    0.1039825575    0.0224022088   -0.0637945226
 C    0.0858843663   -0.7845524901   -1.1581407180
 O    0.0978400549   -0.5789509460   -2.4973965453
 N    0.0455156999   -2.0884397731   -0.6604870224
 C    0.0158201409   -3.2744173348   -1.3987799852
 O   -0.0183809227   -4.3642755006   -0.8930026235
 C    0.0417789124   -1.9721040866    0.7221386515
 N    0.0765342421   -0.7228400306    1.0948167948
 H    0.1457662417    1.6597707213    0.8536287344
 H    0.1376778480    0.3716628793   -2.6504319684
 H    0.0276030785   -3.0845167109   -2.4833622798
 H    0.0126757834   -2.8443891573    1.3529172975