18

 C    0.0579916332    1.4522639423   -0.0606317136
 C    0.0335449166   -0.0389832540   -0.0689281211
 N    0.1326117882   -0.8238944448   -1.1272152586
 C    0.0454998861   -2.0871328874   -0.6041081279
 C    0.1386404430   -3.3176222794   -1.4448682508
 C    1.5469332245   -3.5147443802   -2.0322067152
 O    1.6367732540   -4.6728529859   -2.8441634132
 N   -0.0983676453   -2.1250417592    0.7117040383
 N   -0.1044048671   -0.8061925894    1.0350790311
 H    0.8526364969    1.8393514972    0.5858111720
 H    0.2333272128    1.8056168593   -1.0770880124
 H   -0.8916873541    1.8687368019    0.2923091098
 H   -0.1316844013   -4.1902734229   -0.8454053675
 H   -0.5788132194   -3.2394108311   -2.2718700931
 H    1.8455743326   -2.6080904134   -2.5777209560
 H    2.2657481154   -3.6613836695   -1.2196058225
 H    1.0852609502   -4.5305781098   -3.6200590509
 H   -0.2109019165   -0.5291926639    1.9970064916