15

 O   -0.1175056176    1.3983799574    0.2668330034
 C   -0.0053390328    0.0064099611   -0.0045442287
 C   -1.3880324544   -0.5651652593    0.0177982617
 N   -1.7086919236   -1.8343984630    0.0658731932
 C   -3.0960297321   -1.8627449414    0.0296485850
 C   -3.5912442384   -0.5773547272   -0.0362150726
 N   -2.4888062579    0.2365131378   -0.0488916370
 C   -3.8418435910   -3.0654838944    0.0638191963
 C   -4.4872388337   -4.0814995217    0.0914242632
 H    0.7334425565    1.8104243538    0.0958836999
 H    0.4535179534   -0.1711788675   -0.9893489558
 H    0.6097785923   -0.5147647955    0.7418008021
 H   -4.5971627694   -0.1953041338   -0.0664575407
 H   -2.4562213940    1.2427175867   -0.0584029653
 H   -5.0496906673   -4.9812333429    0.1170315752