18

 C   -0.2353566633    1.5692194605   -0.0770648604
 C    0.1039031042    0.0847703956   -0.0557954403
 N    0.9983478469   -0.3027410788   -1.1610482049
 C    1.8591382388   -1.1014428096   -0.6665049256
 N    1.7662789649   -1.4030594270    0.6816068477
 C    2.8490726731   -1.9716324066    1.4591196958
 C    0.8207963813   -0.4405734632    1.2514331442
 C    1.5164457428    0.6105800900    2.0217809123
 N    2.0796272696    1.4122313527    2.6355185570
 H    0.6659833368    2.1794550138    0.0220920448
 H   -0.7122126932    1.8136638096   -1.0292050643
 H   -0.9219018087    1.8319647881    0.7339281008
 H   -0.8233745785   -0.4941587951   -0.1632173916
 H    2.6364823785   -1.5890377086   -1.2485808689
 H    3.4601123802   -2.5975670872    0.8043802046
 H    3.4915393247   -1.2041651388    1.9121295870
 H    2.4523014204   -2.6059142951    2.2584888004
 H    0.1134638415   -0.9292716801    1.9288648514