18

 C   -0.6581081674    1.1961521799    0.0899898469
 C    0.1707328093   -0.0700976630   -0.1013835326
 C    1.3091854398    0.0231420044   -1.1469940807
 C    2.3365866811   -0.9483340869   -0.6289332740
 C    2.0976210958   -1.3121800234    0.6291976807
 C    0.8892510088   -0.5799174735    1.1881002722
 O    1.2705311658    0.5497260021    1.9741383614
 C    0.0167221344   -1.4564092593    1.9981316521
 N   -0.6477911400   -2.1440179967    2.6478668592
 H   -0.0358270794    2.0260205726    0.4319925104
 H   -1.1287943512    1.4819268201   -0.8559825259
 H   -1.4520284529    1.0426168501    0.8270504341
 H   -0.4887106575   -0.8860092024   -0.4158848360
 H    0.9581109378   -0.2210073814   -2.1552693244
 H    1.7284420690    1.0372880497   -1.1973264028
 H    3.1850890831   -1.2791352038   -1.2178659826
 H    2.6949386248   -1.9807824739    1.2379133955
 H    1.8273024687    0.2415041752    2.6979813066