19

 C   -0.3404750248    1.3575472566    0.6411366751
 O   -0.2661596588   -0.0264582929    0.8943683963
 C    0.9380385575   -0.6038451184    0.4476814413
 C    0.9072745100   -2.0800278001    0.7464253698
 C   -0.3420626166   -2.9314855829    0.4616382998
 O   -0.2045556183   -3.6113757007    1.7395418142
 C    0.9225758950   -2.8038905929    2.1113044437
 C    2.2634561554   -3.3848909955    1.6414851782
 O    2.1310444450   -2.7322289209    0.3479242570
 H   -0.2811348274    1.5774500890   -0.4362299603
 H   -1.3024926152    1.7073046291    1.0224163537
 H    0.4665751220    1.9081858803    1.1489602354
 H    1.0730006370   -0.4611387745   -0.6393963576
 H    1.8103268655   -0.1456122297    0.9421952142
 H   -1.2773427160   -2.3646618868    0.4134365972
 H   -0.2530719591   -3.6113288586   -0.3922745827
 H    0.8310358960   -2.3601128933    3.1038598722
 H    3.1478050044   -3.0185166739    2.1780753932
 H    2.2948247183   -4.4763139338    1.5631890093