14

 C   -0.0198095481    1.4535419966    0.0131056555
 N   -0.0004655180    0.0003908297    0.0696994534
 N   -0.0650067314   -0.6586219577   -1.1466091881
 N   -0.0522177840   -1.9040376319   -1.1676532293
 C    0.0291890656   -2.6838732338    0.0496572844
 N    0.0409254005   -3.9536265785   -0.0139571044
 N    0.0922305032   -2.0111334778    1.2649022395
 C    0.0748950683   -0.7315916497    1.2165245979
 O    0.1311833916    0.0115523303    2.3263860400
 H    0.8924023153    1.8706958193    0.4469611839
 H   -0.0849440626    1.7228871900   -1.0411118902
 H   -0.8836080864    1.8511837534    0.5517311783
 H   -0.0135723524   -4.2281758292   -0.9956989838
 H    0.1815726384   -0.6181103208    3.0625207131