21

 C    0.7139678458    1.2782704762   -0.1731200962
 C    0.7682921061   -0.1956018266    0.2157629833
 C    0.2255526805   -0.4850717175    1.6028550907
 O   -0.2460964815    0.3710689879    2.3170010552
 C    0.3568023656   -1.9265779699    2.0962964215
 C    1.6283054571   -2.0835835269    2.9285431813
 C    2.0649033209   -3.5086613255    3.3355164023
 C    3.3629476397   -3.1749711454    2.5739657596
 O    2.8329373546   -1.9032632401    2.1410861700
 H    1.2999372478    1.8853468611    0.5218596631
 H    1.1100029703    1.4285478370   -1.1813848026
 H   -0.3124454698    1.6532584012   -0.1441728327
 H    0.2070098803   -0.8186763614   -0.4959459062
 H    1.7925032392   -0.5929191020    0.1942515367
 H   -0.5044080334   -2.1485884717    2.7349333827
 H    0.3824630493   -2.6355049942    1.2620692063
 H    1.6022675868   -1.3687526440    3.7613639691
 H    2.1641459680   -3.6912243697    4.4061734376
 H    1.4658233908   -4.3045018238    2.8881479768
 H    4.2521150277   -3.0492648780    3.2039172163
 H    3.6172611244   -3.8225117769    1.7272791851