18

 N    0.0041225899    1.3653692724    0.1787856842
 C    0.0264635331    0.1114452229    0.0129416451
 C   -1.2832847120   -0.6731759905   -0.0483426512
 O   -1.8923409221   -0.7690056795   -1.3256251873
 C   -1.0640648847   -1.2589466390   -2.3782451059
 C   -0.3823978191   -2.5508699498   -2.0147091318
 C    0.7949400393   -2.5987492891   -1.3893429578
 C    1.6346509377   -1.3817510418   -1.0754325057
 O    1.2086624332   -0.5956328074    0.0568932787
 H    0.9619280876    1.7230977819    0.2285726782
 H   -1.1119974750   -1.6647564798    0.3877834831
 H   -2.0070568008   -0.1315304410    0.5620999510
 H   -1.7374075409   -1.3897751444   -3.2290498516
 H   -0.3235475484   -0.4937706808   -2.6555132064
 H   -0.9382985529   -3.4692849275   -2.1860157112
 H    1.1946214562   -3.5572320640   -1.0685696394
 H    2.6482576676   -1.6866426889   -0.8091025012
 H    1.7080886612   -0.7222066938   -1.9487270707