18

 O    0.1427428597    0.2066708922    0.5981392477
 C    0.0251863577    1.2780641460    0.0494880888
 C   -1.2666497501    2.0718693445   -0.0004606278
 C   -0.9861522614    3.3673896378    0.8125657686
 C    0.1785976832    4.1196699335    0.1678687175
 C    1.6830303771    3.9004596317    0.3650120316
 C    2.0552346452    2.4550912280    0.7013883355
 N    1.1517051090    1.9935127782   -0.4063107120
 C    0.9669151229    3.3865131179   -0.8678737763
 H   -1.5380909658    2.3463188124   -1.0253499086
 H   -2.0672633420    1.4704363163    0.4313489233
 H   -1.8767871781    4.0023927152    0.8160407683
 H   -0.7847468092    3.1078442645    1.8577609977
 H   -0.0197852497    5.1584263615   -0.0833580333
 H    2.3516230421    4.7486476136    0.4403074420
 H    3.1026178715    2.2293266988    0.4826634868
 H    1.7951791124    2.0512290780    1.6843887424
 H    1.0686697455    3.6377768298   -1.9164507621