17

 C   -0.3040642311    1.2315992296   -1.3737929120
 C    0.2445630743   -0.1106358175   -0.9231286998
 O    1.6479199045   -0.3051687803   -1.2585150080
 C    2.0264960939   -0.5642425933    0.1230737743
 C    3.1147009879    0.3623107858    0.6335429628
 C    0.5963628595   -0.3026741256    0.5354815101
 N    0.0367794480   -0.2565177442    1.6658965236
 O   -1.3344899950    0.0392302565    1.5411620865
 H    0.2854229928    2.0538161792   -0.9596150676
 H   -0.2722612603    1.2971090996   -2.4656185649
 H   -1.3405290542    1.3393677777   -1.0427631348
 H   -0.3696078484   -0.9296357967   -1.3249161000
 H    2.3266426606   -1.6145310046    0.2490105052
 H    2.8166397321    1.4087308892    0.5289014415
 H    3.3144454311    0.1577763055    1.6900235734
 H    4.0375273953    0.2028991930    0.0676283244
 H   -1.6253110610    0.0491963460    2.4594508753