20

 C    0.4036111347    1.3524918037    0.2569377717
 C   -0.2332975389    0.0024174752   -0.0972279297
 C    0.4275230165   -0.6375417245   -1.2999447802
 N    1.8412718869   -1.1650032403   -1.2610705363
 C    1.9717136108   -1.8774339348   -0.0064533687
 O    2.7803514898   -1.7268729221    0.8567523662
 C    0.8433909742   -2.8787451951   -0.2886972296
 C    0.6184707027   -2.0724105384   -1.5722924587
 C    0.4436836309   -2.6957473475   -2.9246741240
 H    1.4577820018    1.2255568545    0.5191239662
 H    0.3489308603    2.0490832396   -0.5863857975
 H   -0.1077168400    1.8128224957    1.1070215232
 H   -0.1958744848   -0.6593802687    0.7735542163
 H   -1.2960339425    0.1392451846   -0.3347099666
 H    0.3171831452   -0.0368503133   -2.2026173987
 H    1.2460452225   -3.8772354750   -0.4818786584
 H    0.0320642885   -2.9580121811    0.4386234108
 H   -0.5629845241   -3.1173927381   -3.0270677661
 H    0.5831814066   -1.9554806513   -3.7172347193
 H    1.1644880788   -3.5049079731   -3.0817785806