21

 C    0.0214848995    1.3069191022    0.1340191820
 O    0.1276920780   -0.0960542772    0.0801319165
 C    0.6139330895   -0.5679952957   -1.1693115976
 C    0.5841606574   -2.0591928534   -1.1213607948
 C    1.7180001755   -2.9069394729   -0.6111717738
 C    1.2141592994   -3.1394231794   -2.0075407975
 C   -0.0710363968   -3.9778007902   -1.9472306245
 C   -0.7205316667   -2.8634264608   -1.0739652207
 O   -1.1784959333   -3.2960321459    0.1875835974
 H    0.9990343756    1.7957163551   -0.0030833442
 H   -0.6651878953    1.6954716281   -0.6350022249
 H   -0.3678664395    1.5697853697    1.1206571450
 H   -0.0297081146   -0.1874554977   -1.9821714387
 H    1.6335697112   -0.1908930206   -1.3572505697
 H    2.6693771536   -2.3901604173   -0.5320429920
 H    1.5360989012   -3.6452757912    0.1647888427
 H    1.8443406780   -3.0086621410   -2.8791562122
 H   -0.5722046956   -4.1069977329   -2.9084666342
 H    0.0230559863   -4.9503050126   -1.4560055033
 H   -1.5167430199   -2.3402459719   -1.6244142476
 H   -1.2357649134   -2.5113325445    0.7450300120