16

 O   -0.2175227987    1.4681425094   -0.2128611670
 C    0.0073943853    0.0733943209   -0.0534837891
 C   -1.3719123055   -0.5594451145    0.1307893219
 N   -2.2564167018   -0.2340682418   -0.9966860700
 C   -2.2886581375   -1.3487634804   -1.8069199605
 N   -1.8503790512   -2.4530109560   -1.3309710387
 C   -1.3972473097   -2.1257814325    0.0419379676
 C   -0.1146567286   -2.7622532882    0.3585325637
 N    0.9001420757   -3.2421452122    0.6318024719
 H    0.6259021913    1.8955692740   -0.3873400746
 H    0.4987945194   -0.3587792888   -0.9378290659
 H    0.6343905987   -0.1434427080    0.8217851299
 H   -1.8035307226   -0.2050015231    1.0700653690
 H   -2.1285874446    0.6816125305   -1.4068364394
 H   -2.7228090436   -1.2716567809   -2.7995166789
 H   -2.1367472366   -2.5189451182    0.7518264400