20

 C   -0.1035317668    1.5732787108    0.0092896216
 C    0.0079913320    0.0478927572    0.0019211983
 O   -1.3199567795   -0.4604527651    0.1238643443
 C    0.6565692406   -0.4353941231   -1.3102169123
 C    0.6821911065   -1.9560284497   -1.4967890913
 N    1.5389067156   -2.7409194848   -0.6147308836
 C    1.5007506613   -2.6526773208    0.6383295855
 O    0.7598501268   -1.8210606616    1.4463852667
 C    0.8268526468   -0.4054292018    1.2156024847
 H    0.8779535244    2.0442666685   -0.1035962845
 H   -0.7391925146    1.9003719900   -0.8179752632
 H   -0.5575967971    1.9205077331    0.9416312182
 H   -1.2526302550   -1.3301624692    0.5359863033
 H    0.0871506360   -0.0115560195   -2.1453365522
 H    1.6768076513   -0.0381860862   -1.3812856956
 H   -0.3452199816   -2.3350634514   -1.4058705952
 H    0.9982809645   -2.1721909516   -2.5216097725
 H    2.0791844004   -3.3485515755    1.2473139253
 H    1.8749729699   -0.0986045465    1.1152093598
 H    0.4122671984    0.0373431571    2.1249311826