16

 O    0.2029632514    0.8430196134   -0.8928788096
 C   -0.0822623723    0.1054025735    0.2872994832
 C   -1.4116339349   -0.5055056108    0.2933627878
 C   -2.5455177817   -0.9237345081    0.2766146937
 C   -3.8498076405   -1.5106734868    0.2586793705
 C   -4.4688895967   -1.9328243677   -1.0802908204
 C   -3.9485892567   -2.9799375924   -0.1452279382
 O   -2.7991747545   -3.6967816359   -0.4461041253
 H   -0.5248577779    1.4584239798   -1.0302851009
 H    0.6923316667   -0.6670468064    0.3474591345
 H    0.0265180341    0.7298699484    1.1887600210
 H   -4.5358037846   -1.1647550716    1.0256890556
 H   -5.5400247241   -1.8046181330   -1.1909065263
 H   -3.8813608982   -1.7341420131   -1.9689116805
 H   -4.6712511266   -3.5815216064    0.3989657824
 H   -2.0395069834   -3.1158160730   -0.3040095975