21

 C    0.1151789975    1.3459047359    0.3873273931
 C    0.0405779303   -0.1467955515    0.1174853096
 O    1.0305286106   -0.8413539808    0.1002323907
 C   -1.3639978428   -0.7250416545   -0.1184132042
 C   -1.3402997032   -2.1790391318   -0.6491355861
 C   -1.5870927291   -3.0775691317    0.5868514810
 C   -2.1862620242   -2.1352433684    1.6097986088
 C   -2.7784431015   -2.6371011371    2.8880912469
 C   -2.0805723004   -0.8640469192    1.2155911577
 H    1.1333638615    1.6261100171    0.6598260778
 H   -0.1852016200    1.8970616038   -0.5118423379
 H   -0.5780137252    1.6366536607    1.1833456826
 H   -1.8980343686   -0.0391698003   -0.7897447774
 H   -2.1511035236   -2.3090742809   -1.3714603680
 H   -0.3971422070   -2.4051174573   -1.1480566630
 H   -2.2490969775   -3.9235944942    0.3654157428
 H   -0.6532646149   -3.5095878742    0.9707461320
 H   -2.0359936305   -3.1994699133    3.4688377807
 H   -3.1519827141   -1.8216934589    3.5134045828
 H   -3.6080201354   -3.3290643418    2.6949604085
 H   -2.4184827018   -0.0077339918    1.7898380917