20

 C    0.0358364049    1.4973260823    0.0436092979
 C   -0.0527160817   -0.0251549421   -0.0147319611
 C   -1.5162332953   -0.4931454566   -0.0176654214
 C    0.6989868797   -0.5623168167   -1.2455758283
 O    0.8423245511   -1.9722940409   -1.1981379716
 C    1.5698418753   -2.3602238288   -0.0432103359
 C    0.8539768302   -1.8830012933    1.2140522828
 O    0.6314563051   -0.4827085838    1.1677683779
 H    1.0794670787    1.8162003457    0.1139225156
 H   -0.4119306985    1.9481866323   -0.8474267031
 H   -0.4943157529    1.8717913598    0.9238779138
 H   -2.0757158452    0.0183704192   -0.8072772021
 H   -1.5943934030   -1.5670815057   -0.2008570652
 H   -1.9851326766   -0.2613018310    0.9427922620
 H    0.1523231740   -0.3340008625   -2.1656738065
 H    1.6911845747   -0.0844016053   -1.2979173883
 H    1.6456202080   -3.4517305393   -0.0642644946
 H    2.5864938089   -1.9340478737   -0.0768959787
 H   -0.0923320783   -2.4318206744    1.3310147237
 H    1.4653917610   -2.0680161555    2.1035121432