19

 C    0.2290107312   -1.0306126948    1.8525318244
 C    0.0098654074   -0.4756034848    0.4396165726
 C   -1.4014342475   -0.6717394130   -0.0972933777
 C   -2.4914295512    0.0789325937    0.6331184898
 O   -2.2190983933    1.4730331900    0.5400552677
 C   -1.5771782568   -0.8408242562   -1.5865215000
 C   -1.7722161659   -2.0214625794   -0.6662421504
 H    1.2732869809   -0.9134478282    2.1587473251
 H   -0.3868016643   -0.5098621815    2.5927574523
 H   -0.0185017534   -2.0965226555    1.9031113896
 H    0.2422659106    0.5948944332    0.4244185264
 H    0.7144107052   -0.9584284358   -0.2483961629
 H   -3.4671294919   -0.1647306684    0.1828123664
 H   -2.5313870966   -0.2412085406    1.6861290968
 H   -2.8308174597    1.9367550471    1.1190888858
 H   -2.4543034022   -0.4025952660   -2.0506385093
 H   -0.6892559923   -0.8186607745   -2.2093668857
 H   -1.0123368713   -2.7960377487   -0.6588064116
 H   -2.7806033089   -2.3931406566   -0.5145318090