17

 C    0.0046044971    1.4213720667   -0.0763931860
 C    1.2593076095    0.6520666324    0.0491754128
 N   -0.0956591163   -0.0403080817    0.0668461221
 C    0.2355999160   -0.5916442130   -1.2965499025
 C    1.6557379811    0.0198132398   -1.2759639387
 C    2.3220741110    0.7986630129   -2.4265093935
 O    3.4655792219   -0.0792971699   -2.4236460888
 C    2.9010347322   -0.8837460489   -1.3699000993
 H   -0.3429691257    1.9588537763    0.8005201295
 H   -0.2635623878    1.8815976696   -1.0262438597
 H    1.8896298472    0.7001441086    0.9326545866
 H    0.2349939853   -1.6842834817   -1.2717653209
 H   -0.4437778129   -0.2496957360   -2.0859059279
 H    1.7856583208    0.7715976659   -3.3846157126
 H    2.5940160185    1.8374105195   -2.1979585163
 H    3.5415673443   -0.9059452418   -0.4782796233
 H    2.7074634779   -1.9149439485   -1.6951421315