19

 N    0.5432325777   -1.0635795556   -0.7045597875
 C    0.2884298815    0.0158082739   -0.3765224969
 C   -0.0461765058    1.3582793290    0.0558156478
 C    0.3820097742    1.7244735484    1.4814764205
 C    1.1133025929    2.2991455940    0.3019878148
 N   -1.2566718531    1.8383794762   -0.5392385792
 C   -1.6637661283    3.2557989371   -0.5111457501
 C   -3.1377832303    2.7805296986   -0.4551237496
 C   -2.5743346416    1.4034831069   -0.0294282579
 H   -0.2884118542    2.3761307439    2.0310046487
 H    0.8702726638    0.9636400654    2.0783498531
 H    2.1085977755    1.9364727286    0.0760019478
 H    0.9467526289    3.3419041819    0.0560614875
 H   -1.3776373554    3.7951114920    0.4061922244
 H   -1.3392456340    3.8409016369   -1.3773930771
 H   -3.7920624201    3.2894989453    0.2521724762
 H   -3.6076544041    2.7570860021   -1.4391514231
 H   -2.9750577204    0.5064146882   -0.5099915505
 H   -2.5898514372    1.2620480571    1.0627000711