21

 C   -0.0606848287    1.5482281620   -0.0481373414
 C    0.0064473960    0.0135891784    0.0307407499
 N    0.7817028435   -0.3596252392    1.2230195014
 C   -1.3999333515   -0.6371857625    0.1281283857
 C   -2.2145658318   -0.1801232122    1.3193893175
 C   -3.2280520835    0.9319319042    1.1883226909
 C   -3.6889439165   -0.4923680153    1.3686193691
 C    0.6537472730   -0.4953016647   -1.2066752930
 N    1.1828873990   -0.9142449230   -2.1461526658
 H    0.9422082751    1.9707672314   -0.1617347118
 H   -0.6606840312    1.8684925385   -0.9033374439
 H   -0.5054072291    1.9379466127    0.8686646461
 H    0.9225617736   -1.3660494197    1.2458152376
 H    1.7059755916    0.0605712260    1.1822645346
 H   -1.9435998827   -0.4350384064   -0.8017753747
 H   -1.2586781301   -1.7254939590    0.1686812832
 H   -1.6800169856   -0.2321500087    2.2619000543
 H   -3.3470144414    1.6225182192    2.0160109790
 H   -3.3633461631    1.3850076953    0.2115072540
 H   -4.1301965234   -0.9926637053    0.5124221061
 H   -4.1216259929   -0.7802216618    2.3201888010