14

 C   -0.2386320695   -0.8647244670   -1.0032462854
 C   -0.0811107339    0.0718602655   -0.2667720959
 C    0.1421778242    1.2153664427    0.6130451736
 C    1.4683455925    1.8950571284    0.3850526138
 C    2.0536677580    2.9897645282    0.9933441196
 C    3.2961983623    3.1360254139    0.3421436723
 N    3.4790022383    2.2115690489   -0.5974363220
 N    2.3543100608    1.4735610124   -0.5482443498
 H   -0.4021083185   -1.6968483151   -1.6429459994
 H   -0.6700026168    1.9411743610    0.4760214809
 H    0.0738183826    0.8863591335    1.6581714592
 H    1.6407132420    3.5897476494    1.7883597372
 H    4.0627992650    3.8760757860    0.5200345055
 H    2.2335637330    0.6907156221   -1.1707839296