19

 O   -0.0028815956    1.4431527288   -0.0518719948
 C    0.0204034230    0.0295727476    0.0336657876
 C    0.6884742888   -0.5466461804    1.3088458371
 C   -0.0439986293   -1.8603006507    1.5546057360
 C   -1.4601988572   -1.7547152840    2.0869440534
 O   -1.9529418521   -0.4704323910    2.3678187285
 C   -2.2913873858    0.1556560889    1.1208132567
 C   -1.4186083490   -0.5273950973    0.0531869150
 C   -1.2507650795   -1.9471065252    0.6191266738
 H    0.9028571580    1.7637729670   -0.0077424291
 H    0.5274430027   -0.3967936050   -0.8468709592
 H    1.7625088218   -0.7023969748    1.1719657887
 H    0.5454152043    0.1520051028    2.1403717713
 H    0.5190392275   -2.7536866606    1.8017410776
 H   -1.8540702817   -2.5304318235    2.7351328623
 H   -3.3581902116    0.0002076625    0.9039943599
 H   -2.0938566895    1.2254990507    1.2105267472
 H   -1.8821527681   -0.4912839846   -0.9342667002
 H   -1.5383679767   -2.8346578512    0.0709651482