18

 O    0.0573694966    0.3486751570   -1.0057468760
 C    0.0373553218    1.2740586309   -0.2391075749
 C   -1.3233292074    1.8635891373    0.1743795863
 C   -1.4735302109    2.9138657411    1.2837092797
 C   -0.6937454808    4.1735548600    0.9726737730
 N    0.1323260477    4.7435723352    2.0491910814
 C    0.7846615525    4.0768482843    0.9043784340
 C    1.4110493352    2.7402128014    1.2135803336
 O    1.2327303928    1.7787155928    0.1622632419
 H   -1.7226626593    2.2705952328   -0.7637445667
 H   -1.9454758140    0.9901752637    0.3905386259
 H   -2.5392471115    3.1454960137    1.3903646517
 H   -1.1535748874    2.5199450616    2.2515931268
 H   -1.1698629382    4.8668112420    0.2821762753
 H    0.2017216410    5.7523770018    1.9459458705
 H    1.3079696459    4.6914231133    0.1765131332
 H    2.4962955024    2.8237807562    1.3096523818
 H    1.0239450336    2.3556998452    2.1603293725