19

 O   -0.3479875620    1.3315849007   -0.2081863932
 C    0.0234444750    0.0018744075   -0.0941505410
 C    0.7708712601   -0.7485377204   -1.2433866092
 C    0.1101319336   -1.9810987412   -0.6481867911
 C    0.7433425844   -2.9891044998   -0.0409792322
 C    0.4153491203   -3.1829619992    1.4156989772
 C    0.7057936415   -1.7649475346    2.0323449119
 C   -0.1181315371   -0.6993483830    1.2930422561
 C   -0.9248500696   -1.1487103748    0.0993681146
 H    0.3706894944    1.8749819923    0.1332170754
 H    0.3439616334   -0.3912122532   -2.1870481375
 H    1.8649906048   -0.7306720216   -1.2941670717
 H    1.7024607188   -3.3440598257   -0.4121505420
 H   -0.6354258186   -3.4337826809    1.5914961114
 H    1.0257796587   -3.9548343553    1.8913847875
 H    0.4338569869   -1.7475673218    3.0950705683
 H    1.7834021716   -1.5733351105    1.9829746740
 H   -0.6554177903   -0.0132701280    1.9462548753
 H   -2.0042418960   -1.1949267807    0.0339283561