12

 C   -0.0463790543    1.4278158340   -0.0106301007
 N   -0.0273365786   -0.0175249121    0.0442120459
 N   -0.1856753946   -0.7723189052   -1.0808323013
 N   -0.1241695349   -2.0185611656   -0.7237491108
 C    0.0726687711   -2.1028415379    0.6217483152
 C    0.1351122120   -0.8195433862    1.1167696715
 O    0.3083314547   -0.2641494492    2.3335237203
 H    0.9016599382    1.8410294622    0.3443704793
 H   -0.2006157956    1.7038023299   -1.0535026401
 H   -0.8595844022    1.8275624923    0.6012922264
 H    0.1549733464   -3.0458641260    1.1370283798
 H    0.4086953576   -0.9644830461    2.9861298444