17

 C    0.0132886921    1.5681589311    0.0046055851
 C   -0.0149080682    0.0312098911    0.0025989471
 C    0.7650215968   -0.5962583362   -1.1957009014
 N    1.9148750525   -1.2747455277   -0.5726278916
 C    2.9439847900   -1.8691778153   -1.2397071953
 O    3.8704549262   -2.4500003843   -0.7127653888
 C    1.7711368963   -1.2551408217    0.8217134858
 C    0.6933030726   -0.5698045905    1.2017032471
 H    1.0439664123    1.9375208725    0.0201705204
 H   -0.4839056892    1.9727536201   -0.8837472100
 H   -0.4987185848    1.9665721329    0.8862954840
 H   -1.0626759207   -0.2899519765   -0.0355635135
 H    0.1502075336   -1.3213048258   -1.7392779734
 H    1.1038043976    0.1634996204   -1.9066482008
 H    2.8392989311   -1.7594644246   -2.3369034808
 H    2.5162452522   -1.7734341560    1.4062833396
 H    0.3809763798   -0.4108287994    2.2240292067