16

 N   -0.2180637933    1.3928351830   -0.0857307905
 C    0.1779998417    0.0612127009   -0.0483224508
 O    1.3274869090   -0.2970150320   -0.0335002422
 N   -0.9303135896   -0.7946221338    0.0286177227
 C   -0.9055423937   -2.1729926389    0.0410835497
 N    0.0286545674   -2.9645533833   -0.2813880789
 C   -0.5007118719   -4.3156643155   -0.0655115040
 C   -1.9854691019   -4.1070010483    0.3431527124
 O   -2.1131562372   -2.6725932155    0.4498714277
 H    0.5501996596    2.0129829033   -0.2936456720
 H   -1.0720082985    1.6198808062   -0.5733331457
 H   -1.8183967905   -0.3981754795    0.2926018399
 H   -0.4043040924   -4.9122352769   -0.9785464655
 H    0.0751733950   -4.8248096772    0.7158875077
 H   -2.6961715995   -4.4599498339   -0.4104592253
 H   -2.2453003540   -4.5455311687    1.3097542846