17

 C    0.0580609075    1.4219342770   -0.0194544554
 N    0.0198141247   -0.0263074414   -0.0453159945
 C   -1.0961671763   -0.6382224347    0.0548424246
 C   -1.1401892330   -2.0975674883    0.0293579527
 C   -2.3120766358   -2.7241569943    0.1348727593
 O   -3.4958275358   -2.0470083065    0.2682965829
 C   -3.4166197231   -0.6789634275    0.2883401424
 C   -4.7745479513   -0.0706047500    0.4380134001
 N   -2.3508966147    0.0079019518    0.1947949179
 H    0.7073098041    1.7440573032    0.8044085781
 H    0.5322888384    1.7798461833   -0.9419640944
 H   -0.9201470213    1.9020629890    0.0884684450
 H   -0.2169220711   -2.6514221904   -0.0752411511
 H   -2.4691473623   -3.7945604873    0.1287995739
 H   -5.2442176616   -0.4167532156    1.3643585597
 H   -4.6865910239    1.0144501228    0.4511257729
 H   -5.4215388746   -0.3812519210   -0.3886730740