13

 N   -0.0556591069    1.2357672893    0.2911393117
 C   -0.4416096997    0.0603904906   -0.2609147797
 O   -0.7722229037   -0.1170663759   -1.4043445979
 O   -0.4080423198   -0.9020967834    0.7261454300
 C   -0.7707335167   -2.1846059459    0.4672361029
 N   -0.5988963104   -3.0299331841    1.4561821560
 O   -1.0493600929   -4.2470419746    0.9618652595
 C   -1.4709520993   -4.0806504539   -0.2993664184
 C   -1.3286658681   -2.7916744889   -0.6953937429
 H    0.0757138507    2.0190679929   -0.3231714293
 H    0.3106392529    1.2650199118    1.2261706940
 H   -1.8460920953   -4.9653735669   -0.7904469134
 H   -1.5635315908   -2.3321648410   -1.6353479024