17

 C   -0.0671460805    1.4910328985    0.1890952185
 C    0.0160502869    0.0394419339    0.3060670842
 C    0.0962337386   -1.1599218091    0.3813990465
 C    0.2276067416   -2.5876645849    0.4806891929
 C   -0.8724853686   -3.4401364985    0.9740853809
 O   -0.5612610966   -3.3951658524   -0.4116284861
 C    1.1968029975    2.1108532128   -0.3838461828
 C    1.6053070624    3.4745085627   -0.0306556260
 O    2.2661893405    2.3369252383    0.5290753985
 H   -0.9154921746    1.7565445783   -0.4565078099
 H   -0.2625346031    1.9404578456    1.1703135150
 H    1.2449204612   -2.9540276132    0.6147180838
 H   -0.6323682312   -4.3720778391    1.4846696427
 H   -1.8117546100   -2.9713588645    1.2612361816
 H    1.5076777643    1.7079176367   -1.3480019312
 H    2.1942068077    4.0636647231   -0.7317772209
 H    1.0004086240    4.0526405116    0.6672345522