20

 C    0.1350539156    1.4275312529   -0.4206775020
 C    1.4818629146    1.6679407842    0.3224000487
 C    1.4322672436    0.2148628235    0.8246996240
 C   -0.0167145903    0.0638079417    0.3141780256
 C    2.3910428872   -0.9324438709    0.6783400095
 C    3.8402741117   -0.6129150344    1.1429239625
 N    3.9188836944    0.8167896196    1.5548726987
 C    3.3566340867   -0.2075952653    2.4745039399
 C    1.8876116753   -0.5012163336    2.0643386273
 H   -0.6586742004    2.1572997539   -0.2455797676
 H    0.2610494860    1.3115633320   -1.5001317229
 H    2.3427802315    1.9296710081   -0.2913566506
 H    1.4107756249    2.3950791106    1.1353052303
 H   -0.7533464308    0.0929249824    1.1235240942
 H   -0.2273528303   -0.8104558027   -0.3089599604
 H    2.1397929518   -1.8270988939    0.1205564024
 H    4.7273878617   -1.1619454720    0.8549879137
 H    4.8812815113    0.9796800952    1.8525450652
 H    3.7799482549   -0.3738102026    3.4566401347
 H    1.1872493107   -1.0144273986    2.7130802767