20

 C   -0.0419243479    1.6374143990   -0.0303397070
 C    0.1063611574    0.1226788264   -0.0077429279
 C    0.7684804844   -0.6299751991   -1.1481504927
 C    2.2695951691   -0.7569511623   -1.0368969549
 C    3.0209730276    0.1520334008   -0.1306613039
 C    2.3925104268    0.1820710485    1.0449624894
 C    1.1287120507   -0.6375537833    0.9358130083
 C    0.5972869916   -1.2770417481    2.1968465956
 N    1.3998147744   -1.6293952165   -0.2172664089
 H    0.9177693374    2.1354585731   -0.1870633153
 H   -0.7143662916    1.9398917762   -0.8409166715
 H   -0.4713807233    2.0085165851    0.9071791779
 H   -0.8708276052   -0.3433547962    0.1605893108
 H    0.2632573797   -0.9432194231   -2.0584858779
 H    2.7711991678   -1.2499184298   -1.8647284853
 H    3.9100572034    0.6970176750   -0.4203967270
 H    2.6385420013    0.7943106823    1.9038726550
 H    0.2957945914   -0.5138720291    2.9232093029
 H   -0.2717314761   -1.9041080725    1.9769456257
 H    1.3617979810   -1.9082860065    2.6612907668