21

 O    0.7755037316    0.8947043719   -0.4200284476
 C    0.2218653566   -0.2073583850    0.2532415065
 C   -0.2336072909   -0.0853315176    1.7271407425
 C   -1.3774142492   -1.0793647099    1.3920061576
 C   -1.1964512613   -0.7452876815   -0.1225586942
 C   -2.1989016487    0.3314042994   -0.6217246360
 C   -3.1241987904   -0.4418350014   -1.5307134253
 C   -2.6463411901   -1.6510663173   -1.8164272991
 C   -1.3207601490   -1.9012263992   -1.1410452690
 H    0.2210718149    1.6620518890   -0.2443640191
 H    0.9574491897   -1.0116657193    0.1433833009
 H    0.4795504550   -0.3487717031    2.5113698896
 H   -0.6228471902    0.9182927071    1.9335302367
 H   -1.0959714229   -2.1129332127    1.6143165710
 H   -2.3597718985   -0.8845399800    1.8286587317
 H   -2.7241685758    0.8331082640    0.2002351553
 H   -1.6859634654    1.1194125709   -1.1943234840
 H   -4.0411569369   -0.0171635552   -1.9244302280
 H   -3.1132201404   -2.3699773008   -2.4808184120
 H   -0.5000102612   -1.8710839441   -1.8738014489
 H   -1.2609447067   -2.8827773352   -0.6546995085