24

 C   -0.2237121097    1.5063615026   -0.1639188931
 C   -0.0065313694    0.0202231469    0.0168326797
 C    1.3244428237   -0.6074783355   -0.2315676210
 N    0.7768459310   -0.5456627948    1.1195374104
 C    1.4129535771    0.3168315663    2.0738634937
 C    0.7375624358    0.4878659715    3.4142100406
 C    2.0279576043   -0.2987378813    3.3164884872
 C    1.9656547139   -1.8015814816    3.5033315518
 C    3.2880781358    0.3522440692    3.8543019111
 H    0.6953886069    2.0820074628   -0.0302273642
 H   -0.5963003441    1.7072778662   -1.1740372708
 H   -0.9669668587    1.8854547965    0.5458488671
 H   -0.8885260858   -0.5786459019   -0.2090210020
 H    1.4107049805   -1.5978208625   -0.6721528264
 H    2.1455084897    0.0672410963   -0.4750307318
 H    1.9381174666    1.1900640829    1.6803516995
 H    0.7520078087    1.4680915883    3.8797982662
 H   -0.1790176816   -0.0723716555    3.5648208401
 H    1.0821385418   -2.2210398540    3.0194266994
 H    2.8477559705   -2.2865352941    3.0678828634
 H    1.9401970940   -2.0583598700    4.5689527456
 H    3.3804354397    0.1949775766    4.9357026782
 H    4.1833128598   -0.0691305543    3.3812699552
 H    3.2926925195    1.4326333092    3.6764041503