21

 C   -0.0825830633    1.0807069742    0.5804751126
 O   -0.2008136670    0.0653564992   -0.4026194322
 C   -1.3715499392   -0.6636120951   -0.2933240023
 C   -1.4362789358   -1.9832884157   -0.9649937969
 C   -0.2861008667   -2.5237826719   -1.7863749163
 C   -1.3649795299   -1.9504899517    0.5757602814
 C   -0.1037780872   -2.3632737958    1.3029320687
 C   -2.6388584476   -2.2266961634    1.2758758556
 O   -2.7377768029   -2.7162272659    2.3760921348
 H    0.8555955858    1.6042308362    0.3859993764
 H   -0.9140304954    1.7970889254    0.5129340163
 H   -0.0621189435    0.6616462272    1.5949858358
 H   -2.2752421731   -0.0524736959   -0.2582129765
 H   -2.4189456289   -2.2399109211   -1.3557786834
 H    0.6747525923   -2.1444998369   -1.4370130961
 H   -0.2617463097   -3.6175410735   -1.7542677774
 H   -0.3999361755   -2.2216884065   -2.8325602749
 H    0.7675304928   -1.8273160778    0.9235457975
 H   -0.2120533777   -2.1563660775    2.3706535904
 H    0.0795038083   -3.4374192693    1.1986818091
 H   -3.5500297258   -1.9315403643    0.7005893674