17

 O    0.0390307279    0.0473644861    0.5509014012
 C   -0.0203200736    1.1380286468    0.0548513920
 C   -1.3315500015    1.8959414127   -0.1111165940
 C   -1.3199168773    3.0307696119   -1.1376890394
 C   -0.0348181283    3.8581130403   -0.9568457668
 C    1.1650628311    2.9174459436   -1.1417172888
 O    1.1338877039    1.7680431904   -0.2865534100
 C    0.0596451330    4.9741654173   -1.8886552719
 C    0.1477131241    5.8756960708   -2.6784194427
 H   -2.1048909103    1.1545861372   -0.3227807430
 H   -1.5586590267    2.2992662980    0.8848557720
 H   -1.3409122555    2.6316477768   -2.1583709695
 H   -2.2058292302    3.6611434226   -1.0241425392
 H   -0.0099452229    4.2467740312    0.0709986132
 H    1.2057244693    2.5801898970   -2.1847514848
 H    2.1029649105    3.4270634104   -0.9126568332
 H    0.2215991665    6.6814052669   -3.3665941851