21

 C    0.0641018169    1.4414731695    0.0932164682
 C   -0.0046384969   -0.0546190008    0.0055898696
 C   -1.2515258985   -0.9092027594   -0.2354295887
 C   -0.4020255192   -2.1205103916    0.2344874764
 C   -1.0178784380   -3.3514794791    0.8395569192
 C    0.5843197910   -1.0835476567    0.9414503183
 C    1.1939403789   -0.9001954163   -0.4413113745
 C    0.6665283142   -2.2546684925   -0.9005224682
 O    1.5798462812   -3.3170621322   -0.7217815855
 H    1.0510709079    1.7754461837    0.4311092749
 H   -0.1278351796    1.9071830450   -0.8806137381
 H   -0.6786446882    1.8293406090    0.7997159382
 H   -2.0427603553   -0.6616483463    0.4806426902
 H   -1.6772438876   -0.9550581724   -1.2465654028
 H   -1.7222868259   -3.8137988395    0.1375764113
 H   -0.2510060603   -4.0969430250    1.0728138876
 H   -1.5667117127   -3.1185112791    1.7581475526
 H    0.9963051699   -0.9902874609    1.9368389462
 H    2.1403178429   -0.4394290252   -0.6997232042
 H    0.2864785685   -2.3621930967   -1.9229929553
 H    2.0539330608   -3.1509367036    0.1022155746