15

 C   -0.0255237787    1.3949072110    0.0271489706
 O   -0.0053549073   -0.0327540252    0.0091124430
 C    0.5989518976   -0.5923669176   -1.0476040787
 C    0.7220213899   -1.9633016226   -1.2477588136
 N    1.3943811583   -2.0717849389   -2.4301870826
 C    1.6498537458   -0.8102171431   -2.8937511014
 C    2.3616377674   -0.6052567841   -4.1482025580
 O    2.6353313323    0.4630981481   -4.6415280679
 N    1.1659697938    0.1040019480   -2.0534944543
 H    0.9900763406    1.8020165743    0.0327382165
 H   -0.5541436656    1.7912939673   -0.8450032217
 H   -0.5484231075    1.6702604790    0.9437361116
 H    0.3992940936   -2.8112857897   -0.6696653893
 H    1.6576868142   -2.9320658166   -2.8840576630
 H    2.6490214958   -1.5655427398   -4.6418521711