19

 C   -0.0646219801    1.4485937004   -0.0762036901
 N   -0.0123992934    0.0172259576    0.1275746799
 C   -1.2297798993   -0.6712778146    0.6087606515
 C   -0.3139645532   -1.6273132118    1.4230354904
 O    0.0190278275   -2.8227827643    0.7440341197
 C    0.7501536366   -0.5030677900    1.2832297407
 C   -0.7706477435   -1.9461267747    2.8427791092
 N   -0.7677356111   -3.2621829453    3.1618606108
 O   -1.1055746697   -1.0558142634    3.6043296939
 H    0.9310123018    1.8220140986   -0.3386235682
 H   -0.7390776151    1.6800955050   -0.9075381782
 H   -0.4153833898    1.9989923399    0.8161685256
 H   -1.8504627661   -0.0582630904    1.2775840619
 H   -1.8496913709   -1.1316442161   -0.1685672381
 H    0.2993763306   -2.5796502846   -0.1452380953
 H    1.7750330951   -0.8238426323    1.0661113061
 H    0.7362703160    0.1615404056    2.1586953712
 H   -0.4797539099   -3.9470306049    2.4844622299
 H   -1.0593149055   -3.5380241147    4.0841555192