14

 C    0.1686315016    1.4086571524   -0.0115760362
 N   -0.3885057570    0.1186215820    0.4166184542
 C    0.4261288222   -0.6956016439    1.1723754180
 C    0.8677999687   -1.9495196197    1.0650341145
 O    0.7958914692   -2.8506462517    0.0756459159
 O    1.5688485685   -2.2866764290    2.2257428964
 C    1.5788745134   -1.1778514277    3.0209792882
 O    2.1032013062   -1.0841998287    4.0836004440
 O    0.8801107925   -0.1877871276    2.3877304280
 H    1.0298507301    1.3078164733   -0.6874864013
 H   -0.6163470522    1.9772045501   -0.5145481749
 H    0.4829660922    1.9683554940    0.8714663840
 H   -0.7932286478   -0.4030244763   -0.3499581725
 H    0.3333044322   -3.6422145171    0.3832710317