19

 O    0.0663150644    1.3849082771   -0.1075288965
 C   -0.0156441648   -0.0007469382    0.0128187007
 C   -0.4296991041   -0.6998436400    1.2838611368
 C   -1.2009582511    0.1509279214    2.2758914376
 O   -2.1674186154    0.8716615918    1.4935684494
 C   -2.5333538010    0.0445840272    0.3977701443
 C   -3.9307827153   -0.5104694731    0.3536826670
 C   -3.5131931454    0.6312720049   -0.5628633654
 C   -1.3201495652   -0.7625580339    0.0410503083
 H   -0.6988160486    1.7574935767    0.3522833106
 H    0.7912659300   -0.4658379817   -0.5444545400
 H    0.1202677075   -1.5579138041    1.6531820261
 H   -1.6994663161   -0.4798629652    3.0258041801
 H   -0.5936724335    0.8999422762    2.7937018753
 H   -4.0928978696   -1.4933150941   -0.0764595937
 H   -4.5810043534   -0.2600447276    1.1843359849
 H   -3.9000110044    1.6179163818   -0.3336458747
 H   -3.3766408652    0.4292146655   -1.6193175444
 H   -1.4496524087   -1.6666705547   -0.5424408266