18

 C   -0.0066670628    1.5610600503   -0.2163655235
 C   -0.0881997729    0.0524495974    0.0286111707
 C    0.9149760979   -0.4342087987    1.0811502877
 C    0.8215792994   -1.9213764291    1.3517440134
 C    1.5358438375   -2.4888575539    2.5928625000
 C    0.1168498865   -2.8073302749    3.0654258090
 O   -0.4105484086   -3.3060335561    4.0061252508
 O   -0.4810608201   -2.2942468103    1.9430313612
 H    0.9893239067    1.8547453231   -0.5664293840
 H   -0.7320791159    1.8792998369   -0.9709555328
 H   -0.2134706519    2.1225914582    0.7013086630
 H   -1.0984060839   -0.2196064133    0.3544424942
 H    0.0870369396   -0.4845965353   -0.9128765871
 H    1.9409140465   -0.2128619560    0.7558715162
 H    0.7602131614    0.1072536207    2.0238075347
 H    0.9695680373   -2.5073774794    0.4394973917
 H    2.1647700154   -3.3671880844    2.4399228157
 H    2.0635237579   -1.7619276051    3.2135543392