23

 C    0.0998158617    1.3787904591    0.3926820763
 C   -0.0113315879   -0.0487732408   -0.1601658448
 C   -1.4244234010   -0.5618286241   -0.1954604138
 C   -2.1242827188   -1.1337375652    1.0265851865
 C   -1.9699917516   -1.9807323068   -0.2114132302
 C   -3.0314741931   -1.6155375927   -1.2552788954
 C   -2.5023505850   -0.1416080379   -1.2110279427
 O   -1.2398353757   -3.1508756189   -0.2083371915
 C   -1.9137828363   -4.2396984133    0.3991514760
 H    1.1387038656    1.7232054651    0.3916289959
 H   -0.4853154494    2.0830530386   -0.2085902973
 H   -0.2737822717    1.4313831432    1.4205692219
 H    0.4096225758   -0.0808765163   -1.1741536079
 H    0.5996589491   -0.7298297813    0.4444531520
 H   -1.4531021725   -1.4100088997    1.8346797231
 H   -3.0945731264   -0.7596016839    1.3489534628
 H   -2.8363028197   -2.0903785989   -2.2197320741
 H   -4.0784485682   -1.7809667269   -0.9802896401
 H   -3.2133920864    0.6164421284   -0.8669425662
 H   -2.0844841010    0.1792121209   -2.1689168107
 H   -1.2356631410   -5.0955218968    0.3649154731
 H   -2.1682488667   -4.0204983497    1.4456279217
 H   -2.8379086395   -4.4975601220   -0.1374251045