21

 C   -0.0976623976    1.4896427039    0.0751910654
 C    0.0413997559   -0.0130266194    0.0524782667
 C    0.9984100741   -0.7780141097   -0.9269977098
 C    0.7369215642   -1.9201776103    0.0841482395
 C    1.4679226620   -3.2336343314    0.1546097430
 O    0.9694485795   -4.0401890308    1.2066737755
 C    0.7277072346   -0.8383083612    1.1926314567
 O   -0.6762623413   -2.1893647922   -0.1039350290
 C   -1.2307928269   -0.8578020032   -0.1288279852
 H    0.8733623485    1.9751423694    0.2144267240
 H   -0.5263861006    1.8625893464   -0.8622114651
 H   -0.7527760593    1.8137009753    0.8920865476
 H    0.6708149948   -0.9380327103   -1.9577323013
 H    2.0200796978   -0.3938886625   -0.8951604028
 H    1.3863901135   -3.7422851494   -0.8200728377
 H    2.5301824243   -3.0612775348    0.3547652802
 H    0.0095058880   -4.0290903914    1.1108310101
 H    1.7245615706   -0.4665042893    1.4384229434
 H    0.1559722181   -1.0536083185    2.0982819841
 H   -1.9531081740   -0.7296826860    0.6870613374
 H   -1.7383033162   -0.6785985346   -1.0848174826