21

 C   -0.1268679209    1.5901676734    0.1505876911
 C   -0.0640811966    0.0773230462    0.0811442249
 C   -1.3501696186   -0.5961377884   -0.3586817217
 O   -1.7354108821   -0.2250136526   -1.6775573575
 C    1.2440099349   -0.5796290539   -0.3812526075
 C    0.8095359720   -0.6634565343    1.0468797416
 C    1.4924268966   -0.1845508833    2.3245642204
 C    1.0173484370   -1.5385426936    2.8945272517
 O    0.4139030278   -1.9089344949    1.6325819288
 H    0.8437457269    2.0282611547    0.4019647975
 H   -0.4472200489    1.9971414453   -0.8132806064
 H   -0.8500761366    1.9193008342    0.9065010385
 H   -1.2587805472   -1.6854238663   -0.2547709753
 H   -2.1780071869   -0.2768875785    0.2846395783
 H   -1.0182512481   -0.4842828020   -2.2660787858
 H    1.1754526450   -1.4970342171   -0.9595552344
 H    2.0866692631    0.0561693963   -0.6363755396
 H    2.5749464186   -0.0605352956    2.2578512500
 H    1.0541352712    0.7014465734    2.7880227862
 H    1.8083001029   -2.2391365927    3.1838516236
 H    0.2738583699   -1.4818184404    3.6975431252