16

 C    0.3176072799    1.5468209973   -0.0618245885
 C   -0.0239799291    0.0539289804    0.0885288202
 C    0.5558702992   -0.5655322710    1.3096895675
 C    0.0477686058   -1.1425828811    2.4317975334
 N    1.0757542847   -1.5475246622    3.2606828569
 C    2.1583042404   -1.2063049749    2.6231598475
 O    1.9179241020   -0.6005708296    1.4223061956
 C    3.5014733204   -1.3840151130    3.0130403459
 C    4.6485094905   -1.5347447173    3.3423815172
 H    1.3999549492    1.6947722348   -0.1043866361
 H   -0.1188218239    1.9479585956   -0.9808854288
 H   -0.0698679749    2.1236808214    0.7830033942
 H   -1.1090604584   -0.0846556392    0.1299048598
 H    0.3287292126   -0.4908559520   -0.7965980276
 H   -0.9869296975   -1.2945409927    2.6963363753
 H    5.6594585792   -1.6707678266    3.6384663577