17

 O   -0.0397021778    1.4357316576   -0.0578386080
 C    0.0209875074    0.0027213263   -0.0501238118
 C    0.6450592397   -0.5524419711    1.2044714585
 C   -0.2848641695   -0.9584378185    2.0704164147
 C   -1.6949127662   -0.7540135741    1.5324491836
 C   -2.3105933326    0.4329486553    2.1193293288
 C   -2.7758567180    1.4341084049    2.5983504346
 C   -1.4093495079   -0.5955801433   -0.0108454963
 O   -2.3374489936    0.1490173157   -0.7371737589
 H   -0.2885951563    1.7168121859    0.8324037627
 H    0.5481284237   -0.2611179323   -0.9706333011
 H    1.7149410665   -0.5608568595    1.3765933289
 H   -0.1012448647   -1.3563125458    3.0618298624
 H   -2.3409537008   -1.6195690923    1.7179416476
 H   -3.2131556367    2.3028589091    3.0250666974
 H   -1.3835145579   -1.6071794887   -0.4301354973
 H   -2.0205980856    1.0637295108   -0.7027754058