16

 O    0.0477509455    1.3938234645    0.0981864071
 C    0.0086126860   -0.0014759459    0.0124065778
 C   -1.3652938215   -0.6188914987   -0.4079699767
 C   -1.4941584842   -0.0159252359   -1.8183094220
 O   -0.1279927670   -0.0104295542   -2.2925871000
 C    0.6794407200   -0.5941073845   -1.2333068018
 C    0.2878296948   -2.0809256788   -1.1328152786
 O    0.8794306061   -3.0653681160   -1.5021129644
 N   -0.9600340846   -2.0160900595   -0.5394258993
 H    0.1354268213    1.7347256296   -0.8009775808
 H    0.3608974050   -0.4236012088    0.9551444252
 H   -2.2056572679   -0.4664453394    0.2663198746
 H   -2.1154708381   -0.6270982688   -2.4800785973
 H   -1.8802026166    1.0096112677   -1.7992009794
 H    1.7279485741   -0.3913257437   -1.4345156042
 H   -1.6044462828   -2.7912172776   -0.5842679804