19

 O   -0.0215070728    1.3255312587   -0.0991176996
 C   -0.0402217717   -0.0839671290   -0.0321476288
 C    0.2566740338   -0.6661085854    1.3946915254
 C   -1.1944629171   -1.1570032567    1.4774539595
 C   -1.4815226147   -0.5792666089    0.0808990437
 C   -1.5012658687   -2.0527398628    0.3233159448
 C   -0.7183701680   -3.2053598961   -0.3088603567
 O   -1.9208312351   -4.0035718746   -0.3800693091
 C   -2.7269168451   -2.9556690105    0.1991254217
 H    0.8970564904    1.6131344043   -0.0756095523
 H    0.5453668630   -0.5215749125   -0.8553393564
 H    1.0415450222   -1.4248990573    1.4874695783
 H    0.4617320995    0.1564009034    2.0833495864
 H   -1.8164917023   -1.1485136727    2.3657292269
 H   -2.3424105359   -0.0367221382   -0.2925933078
 H   -0.2956838782   -3.0143617189   -1.3041693449
 H    0.0475353729   -3.6737165884    0.3232434750
 H   -3.1921904537   -3.2684474777    1.1433823541
 H   -3.5101375583   -2.6119870066   -0.4895328604