17

 C   -0.1314267034    1.5139590029    0.1361580603
 C   -0.0970942623    0.0246758849   -0.0061023156
 C   -0.1106760582   -0.7330637181   -1.1570166532
 N   -0.0661611572   -2.0298656130   -0.7754843454
 N   -0.0232001789   -2.1940803158    0.5671524696
 C   -0.0419243556   -0.9511438489    1.0325629516
 N   -0.0114868434   -0.6192861409    2.3851686399
 C    0.0417338273   -1.4263833552    3.5004487916
 N    0.0742590082   -2.6972454508    3.4780376036
 H    0.7575879450    1.9006440316    0.6515142643
 H   -0.1721928948    2.0006193530   -0.8419266988
 H   -1.0081022259    1.8551019925    0.7023335930
 H   -0.1481285939   -0.4418540974   -2.1953576188
 H   -0.0616853564   -2.8492704274   -1.3564133465
 H   -0.0317730038    0.3686774057    2.5707010214
 H    0.0517913609   -0.8079228700    4.4084022165
 H    0.1110130924   -3.0512779233    4.4320173266