14

 O   -0.0354946184    1.4574407021    0.0078992334
 C    0.0232668786    0.0405594280    0.0012827390
 C   -1.3736246485   -0.4833745762    0.0117724428
 C   -2.5172362543    0.2369318223    0.0236974348
 N   -3.6660459140   -0.5537116230    0.0312776888
 C   -3.3303897858   -1.8995364188    0.0247133182
 O   -4.0775397269   -2.8394736740    0.0286010446
 C   -1.7524121011   -1.8949869502    0.0110719868
 O   -1.0702252006   -2.8917808653    0.0025038987
 H    0.8638634479    1.7965305425    0.0023309203
 H    0.5527021536   -0.3400618317   -0.8874045229
 H    0.5687535939   -0.3478236696    0.8767806145
 H   -2.6059892880    1.3139023573    0.0276710387
 H   -4.6112310065   -0.2095789734    0.0407221223