17

 C   -0.0185666213    1.5304746866    0.0488628377
 C   -0.0034042991    0.0295010545   -0.0213976386
 C   -0.0528659997   -0.6488148086   -1.1686596349
 C    0.0092179425   -2.1504535811   -1.2361195815
 O    0.3697641825   -2.7569454494   -0.0103534680
 C   -0.3168172361   -2.1896230807    1.0905943396
 C    0.0741154362   -0.7238463737    1.2877210560
 H    0.8749575577    1.9096579174    0.5620733249
 H   -0.0551038790    1.9825498693   -0.9460866066
 H   -0.8815870457    1.8928574367    0.6225163438
 H   -0.1389710058   -0.1278055121   -2.1197987082
 H   -0.9591500460   -2.5504343345   -1.5935292449
 H    0.7654036960   -2.4685977567   -1.9643972995
 H   -1.4072698264   -2.2657654466    0.9422289404
 H   -0.0529690547   -2.7954330524    1.9621977528
 H    1.0897552412   -0.6549473425    1.7019785080
 H   -0.5905708524   -0.2617616662    2.0303325391