15

 C   -0.2033545994    1.4306982525   -0.0560559825
 O   -0.0559063111    0.0147421714   -0.0139027639
 C   -1.1767540451   -0.7171842625    0.0174503143
 C   -1.3331474032   -2.0675511072    0.0615510744
 C   -2.7535990766   -2.2795919949    0.0779925847
 C   -3.3567014811   -1.0668076515    0.0428281443
 N   -4.6930314096   -0.6778768376    0.0393402664
 O   -2.3658976473   -0.0752717658    0.0049909763
 H    0.8101329251    1.8327244230   -0.0760648013
 H   -0.7458947568    1.7480609656   -0.9528811439
 H   -0.7323382155    1.8024872133    0.8278745487
 H   -0.5453112672   -2.8013148056    0.0795647094
 H   -3.2718679086   -3.2249492507    0.1115877442
 H   -4.9517466263   -0.1616198217   -0.7958005860
 H   -4.9422996274   -0.1141726384    0.8462157750