20

 C   -0.0290116987    1.5445731209    0.0581582366
 C    0.1306224475    0.0570774681    0.0041148478
 N   -0.8078076118   -0.8527214429    0.7105651754
 C    0.6463627531   -0.9298055128    0.9974932011
 C    1.3008791236   -1.7731349640   -0.1311463980
 O    2.6887555552   -1.9180264186   -0.0293156943
 C    0.4592394005   -2.9156586841   -0.7784165375
 C   -0.1183908436   -1.8900530641   -1.8071969970
 C    0.7428982299   -0.7605841517   -1.1678837182
 H    0.8846772165    2.0503956791   -0.2714390059
 H   -0.8480871545    1.8800388912   -0.5895963844
 H   -0.2492519243    1.8801649319    1.0781281222
 H   -1.2340667415   -0.3152283154    1.4656345724
 H    1.0264356917   -0.7895683712    2.0046473036
 H    2.8716695236   -2.5527296984    0.6732266680
 H    1.1075523297   -3.6680313904   -1.2349476219
 H   -0.2722820681   -3.3996947965   -0.1295327333
 H    0.1515906334   -2.1054667951   -2.8432886636
 H   -1.1950477332   -1.7343964487   -1.7377429030
 H    1.4332974411   -0.2028167076   -1.8006306699