21

 C   -0.1049555572    1.5475888426    0.0438858659
 C    0.0328758297    0.0233566899    0.0201746125
 C    0.8822066437   -0.5208432236   -1.1724710978
 C    2.0012304298   -1.3664207363   -0.4735091895
 C    2.2790617155   -0.4781480290    0.7601853484
 C    0.8114858528   -0.5568461272    1.2552219876
 O    0.4555347743    0.1088203972    2.4402703016
 C    0.5943323170   -2.0662593204    1.2134419873
 C    1.3051656162   -2.5472567961    0.1906245083
 H    0.8705993689    2.0451695161    0.0574617754
 H   -0.6412439438    1.8963140572   -0.8452753941
 H   -0.6571122010    1.8732848509    0.9287887746
 H   -0.9719748000   -0.4096042114    0.0062361575
 H    0.2955662249   -1.1161133986   -1.8763720028
 H    1.3317930442    0.3055067439   -1.7332964307
 H    2.8469164939   -1.6087765264   -1.1177778632
 H    2.9826765262   -0.9309530058    1.4645160389
 H    2.6016741639    0.5375810144    0.5131924926
 H    0.9427505412   -0.2955846733    3.1653592678
 H   -0.1184522552   -2.5830371892    1.8451769163
 H    1.3084613548   -3.5602292649   -0.1933150668