23

 C   -0.1608329067    1.4900210938    0.0073842831
 C   -0.0012596937   -0.0376376028    0.0140070165
 C    0.6501387827   -0.5035429424   -1.2966651665
 C    0.7872970714   -0.5212715532    1.2437457690
 C    0.1798040308   -0.0908650803    2.6150566034
 C    0.4378834464   -1.2508822164    3.5600783335
 O   -0.4265084175   -2.3676916849    3.3115091493
 C    0.9116188321   -2.4153842088    2.7983205885
 C    0.9838199003   -2.0672375995    1.3222126733
 H    0.8179742387    1.9837143078   -0.0354721563
 H   -0.7336199468    1.8190281649   -0.8658764949
 H   -0.6783658514    1.8537063758    0.8997498987
 H   -1.0047770854   -0.4854002714    0.0744474293
 H    1.6634156099   -0.0945810495   -1.3949169374
 H    0.7238351851   -1.5933059489   -1.3550546955
 H    0.0726651175   -0.1629495190   -2.1623645851
 H    1.7898972730   -0.0744495888    1.1842021535
 H    0.6316121234    0.8346346307    2.9842037377
 H   -0.9007526219    0.0787039735    2.5436876955
 H    0.6841282653   -1.0806312733    4.6057623396
 H    1.5429289352   -3.1916677713    3.2248275115
 H    0.1904705932   -2.6036608684    0.7890183143
 H    1.9376570386   -2.3757921775    0.8841041987