27

 C   -0.1397136250    1.6641736692   -0.0163268767
 C    0.0012095288    0.1394707923    0.0473091710
 C   -1.3528238541   -0.5813569125   -0.0418068821
 O   -2.0367961806   -0.2031144209   -1.2392166822
 C   -1.3174325270   -2.1357912516    0.1265379014
 C   -0.6025921622   -2.7940738307   -1.0691889143
 C   -0.5856526464   -2.5041528548    1.4305047482
 C   -2.7974538589   -2.6030304566    0.2036680235
 C   -3.0517023306   -4.1144985976    0.1885923411
 H    0.8396403879    2.1516546597    0.0088653670
 H   -0.6561507401    1.9711035066   -0.9290910503
 H   -0.7216877662    2.0392453273    0.8329270064
 H    0.6526420887   -0.2029406803   -0.7689850080
 H    0.5056739013   -0.1398086827    0.9775017461
 H   -1.9931784315   -0.1910388962    0.7614010124
 H   -1.4622988797   -0.4177486796   -1.9820126388
 H    0.4143815491   -2.4084590002   -1.1952264018
 H   -0.5180248379   -3.8750364955   -0.9280749220
 H   -1.1498123637   -2.6325992151   -2.0044686351
 H   -0.9820076030   -1.9389432355    2.2822135865
 H   -0.7051835045   -3.5676748915    1.6572781700
 H    0.4888934593   -2.3093551117    1.3682014896
 H   -3.2342254433   -2.1806665995    1.1189767974
 H   -3.3354752646   -2.1408496819   -0.6296669428
 H   -4.1219932984   -4.3148924540    0.3020247999
 H   -2.7351583483   -4.5752415145   -0.7521356791
 H   -2.5382695692   -4.6354791319    1.0035249328