13

 O    0.0764759592    1.3071581047   -0.0993669214
 C    0.0636593470   -0.0241781914   -0.0622572179
 N    0.0122760813   -0.6338008525   -1.2472776170
 C   -0.0000923663   -1.9608825941   -1.1961272436
 C    0.0372713057   -2.6832597445   -0.0017465538
 C    0.0225254182   -4.1544467764    0.0272498645
 O    0.0536254749   -4.8187307490    1.0377369806
 C    0.0897902279   -1.9184231753    1.1702553352
 N    0.1034505579   -0.5932637598    1.1539217977
 H    0.1144235263    1.6084185988    0.8198009119
 H   -0.0418470507   -2.4806457464   -2.1528384952
 H   -0.0204954749   -4.6333354753   -0.9765200161
 H    0.1210380936   -2.4121566388    2.1378674651