21

 O    0.1094280419    1.4202421644   -0.0354349686
 C    0.0237853807    0.0156402021    0.0606281417
 C   -1.4312491880   -0.5026966457   -0.0227743889
 C   -2.0319248168   -0.0638928470   -1.2821930165
 C   -2.4754398339    0.3117237219   -2.3362264668
 C   -1.5013307545   -2.0262450771    0.1382275985
 C   -1.1295817598   -2.6481349309    1.5156264589
 C   -2.2903600471   -3.6609288052    1.3234066331
 C   -2.8910720646   -2.7108821781    0.2518998206
 H   -0.3214808138    1.6723216680   -0.8613258267
 H    0.6241336149   -0.4844437370   -0.7162343936
 H    0.4441475713   -0.2540423162    1.0342599002
 H   -1.9880364871   -0.0386331969    0.8036854949
 H   -2.8948030482    0.6320936071   -3.2579616106
 H   -0.9171452512   -2.4978398177   -0.6599921337
 H   -0.1187590218   -3.0424231727    1.6440778253
 H   -1.3368186655   -1.9502140113    2.3342263471
 H   -1.9399336834   -4.5988058399    0.8833197794
 H   -2.9055977077   -3.8966564609    2.1944651756
 H   -3.6321107748   -2.0312290411    0.6850628985
 H   -3.3142239405   -3.1530766958   -0.6523213882