18

 O   -0.0812228083    0.0796444885   -0.6589485619
 C   -0.0047955061    1.1641999507   -0.1373694040
 C    1.2605421858    1.9165967426    0.0311975829
 C    1.2201450189    3.4405980177   -0.0112404877
 C    1.5377658017    2.7567177745    1.2778863925
 C    0.5952144974    2.8112075635    2.4633107673
 C    0.8871864517    4.0505037671    3.3381487455
 C   -0.0010438749    4.1405713929    4.4943075537
 N   -0.7140142059    4.1955794691    5.4018990900
 H   -0.9166544116    1.6818958633    0.2396006105
 H    2.1159843522    1.4220412391   -0.4156231315
 H    2.0039082823    3.9437414264   -0.5651103280
 H    0.2380520111    3.8948556473   -0.1102427559
 H    2.5883173381    2.7497201175    1.5598209024
 H   -0.4470685141    2.8513505368    2.1352345194
 H    0.6982556195    1.9083472985    3.0747243951
 H    1.9232870415    4.0256692216    3.6956722307
 H    0.7826253006    4.9643902730    2.7425311690