18

 C   -0.6178188042    1.4056603429   -0.0304282087
 C    0.1991960321    0.1310283548    0.0230055052
 C    1.1153151978   -0.1243668502   -1.2083123849
 N    2.2573148695   -0.7187391573   -0.5511389601
 C    3.4791515807   -1.2738217728   -0.8855777479
 C    4.1913016309   -1.3882045774    0.2848923307
 C    3.4035138525   -0.8674215026    1.3681689382
 C    2.2328042308   -0.4607829774    0.7874952068
 O    1.0950886710    0.1810689937    1.1624562635
 H    0.0334783490    2.2751347345   -0.1581904235
 H   -1.3230447501    1.3692155123   -0.8669322930
 H   -1.1883243986    1.5321284253    0.8931475382
 H   -0.4555528757   -0.7397043747    0.1634106872
 H    0.6453548502   -0.7972850991   -1.9307612964
 H    1.3812248941    0.8107840997   -1.7203449679
 H    3.7093461638   -1.5668745486   -1.8961137045
 H    5.1751879401   -1.8234841781    0.3760066903
 H    3.6702088761   -0.8112942850    2.4100057168