17

 C   -0.0742577583    1.4510625112    0.1039915450
 C   -0.0299254773   -0.0337899202   -0.0233897424
 C    0.0416719024   -0.7789015143   -1.1393154598
 C    0.0115536324   -2.2289444333   -0.8109658986
 O   -0.0092987003   -3.1563906254   -1.5866980418
 C   -0.0042545754   -2.3219464490    0.7036142413
 C    1.2086410033   -1.7255821035    1.4180297694
 C   -0.0480726001   -0.9120675138    1.2061609102
 O   -0.8571051133   -0.5501184524    2.2807208744
 H    0.8015000581    1.8242060723    0.6511677656
 H   -0.1056563625    1.9430991629   -0.8701584750
 H   -0.9562333569    1.7514615802    0.6815765489
 H    0.1179792829   -0.4159268273   -2.1564430988
 H   -0.5387440436   -3.1280738299    1.1879009429
 H    1.3827334793   -2.0984686757    2.4229643226
 H    2.0993307920   -1.4877481876    0.8459563514
 H   -0.3498844127    0.0251828357    2.8630828247