19

 C   -0.1577707114    1.7089230719    0.2952684819
 C    0.0030776645    0.2146702623    0.0233667068
 N    0.9995946511   -0.1073635700   -1.0430971338
 C    1.7718920978   -1.0388935006   -0.1789004048
 C    0.9303353538   -0.5446773520    1.0059146670
 O    0.9722227347   -0.6629656783    2.1922122669
 C   -1.3623490795   -0.4606511024   -0.0806579895
 C   -2.0978282694   -0.5219146200   -1.3669466136
 N   -1.5638471973   -1.7513570769   -0.7492991977
 H    0.8192285108    2.1869345917    0.3980638299
 H   -0.6930149611    2.1908638914   -0.5288348740
 H   -0.7248824129    1.8689550954    1.2175896218
 H    0.6235526242   -0.5173003459   -1.8905993550
 H    1.6278094881   -2.1125503637   -0.3663026834
 H    2.8464838505   -0.8326443280   -0.1339088975
 H   -1.9400745020   -0.3605729706    0.8358612542
 H   -3.1811701286   -0.4479219108   -1.3839243383
 H   -1.6088176482   -0.1282454424   -2.2556116582
 H   -0.7151792951   -2.0351750310   -1.2352501528