18

 C   -0.0151881866    1.4734006297    0.0825137250
 C   -0.0184325522   -0.0297052641   -0.0193406919
 C    0.7932484322   -0.6910851875   -1.1685166573
 O    1.0831416556   -1.9964555437   -0.6368548075
 C    0.5087912532   -1.9691960088    0.6770415313
 O    0.6540140429   -0.6381711049    1.1010153291
 C   -1.0038277869   -2.1211977105    0.4715899213
 N   -1.7996512315   -1.2089640469    1.3207091720
 C   -1.3665887382   -0.7736169403   -0.0220653516
 H    1.0079920407    1.8526744070    0.1569558569
 H   -0.4863020253    1.9182879593   -0.7997076952
 H   -0.5715307636    1.7895781654    0.9686460481
 H    0.2254542930   -0.7791608548   -2.1015453394
 H    1.7297101933   -0.1547077647   -1.3605000568
 H    1.0373481233   -2.6606961725    1.3310857363
 H   -1.4184175521   -3.0389259217    0.0735171197
 H   -2.7755297033   -1.4932772788    1.2588077336
 H   -2.0839332046   -0.6067865522   -0.8176090135