19

 C   -0.1294987192    1.5767356745    0.0121075338
 C   -0.0200128431    0.0518397777    0.0064874776
 C   -1.3685727717   -0.6196537283    0.2666670741
 C    0.7651262636   -0.5373863859   -1.2558715932
 N    1.7617151081   -0.9879745624   -0.2819481681
 N    2.9254628156   -1.6200937887   -0.0845412768
 C    3.0457011125   -1.5315637663    1.2521709497
 C    1.9686884380   -0.8505016838    1.8867441803
 C    1.1573337663   -0.5185601487    0.8160789920
 H    0.8376746851    2.0469764726   -0.1873236416
 H   -0.8429692082    1.9177970529   -0.7461641892
 H   -0.4816976016    1.9322458617    0.9858756903
 H   -2.1046885523   -0.3176418151   -0.4865083373
 H   -1.2818701506   -1.7098051863    0.2472568680
 H   -1.7576059342   -0.3308547629    1.2484568726
 H    0.2616919525   -1.3495033557   -1.7877087057
 H    1.1395779828    0.2048261841   -1.9663402018
 H    3.9134770112   -1.9653170173    1.7286780845
 H    1.8436979651   -0.6565306921    2.9386230608