20

 C   -0.3713708236    1.4735796416   -0.0680928646
 C    0.1427341873    0.0490945485    0.0037369418
 O    1.1192151721   -0.1619093049   -1.0346525895
 C    2.0303352933   -1.0905792634   -0.6134793921
 O    2.8651109910   -1.5766622649   -1.3297432184
 N    1.8099221099   -1.3439302454    0.7191218149
 C    2.6937239404   -2.1940678171    1.4820796943
 C    0.8697684033   -0.3968616311    1.3002853999
 C    1.5579371883    0.7181100304    2.0968389567
 H    0.4333600604    2.1980532692    0.0763701302
 H   -0.8213798478    1.6534840945   -1.0477226141
 H   -1.1377915981    1.6411579552    0.6951982166
 H   -0.6839773765   -0.6495265291   -0.1834940280
 H    3.2915428487   -2.7659482700    0.7707080074
 H    3.3732499391   -1.6215112844    2.1262491990
 H    2.1194922395   -2.8846442009    2.1100503938
 H    0.1626091167   -0.9201841589    1.9556878887
 H    2.2561924555    1.2803646854    1.4695080724
 H    0.8213811956    1.4139051268    2.5086937938
 H    2.1189704648    0.2985666885    2.9368197673