21

 C    0.1998863170    1.5077980809   -0.1089599693
 C   -0.0130561636   -0.0154106111   -0.0283023838
 C   -1.5058504675   -0.3453499044    0.0220159594
 C    0.7227326010   -0.6964588603   -1.1989342440
 O    2.0909481102   -0.6946949145   -0.8335954986
 C    2.1586523424   -0.9906902786    0.5575416613
 C    0.7681990866   -0.6756890511    1.1662568231
 C    0.8281052265    0.1913511469    2.4006464321
 O    0.1326398511    0.0428415825    3.3731864565
 H    1.2612503873    1.7611805459   -0.1820640737
 H   -0.2996204542    1.9045468064   -0.9990379683
 H   -0.2213059784    2.0249339084    0.7589209962
 H   -2.0298274279    0.0873908575   -0.8372487167
 H   -1.6761670536   -1.4269740390    0.0132101577
 H   -1.9652115557    0.0580249699    0.9300061358
 H    0.3493505832   -1.7248728813   -1.3417320896
 H    0.6264132575   -0.1563769904   -2.1454701991
 H    2.4145012546   -2.0471691695    0.7167024541
 H    2.9613515321   -0.3821866306    0.9915499737
 H    0.2489801024   -1.5954217182    1.4486510085
 H    1.5785353990    1.0143264107    2.3556008447