16

 C   -0.0597138643   -1.2481467601   -0.1417635301
 C   -0.0273878725   -0.0491210746   -0.0531737753
 C   -0.0216145486    1.3947809453    0.0470616680
 C   -0.0267866159    2.0828785061    1.4271961016
 C    1.4733215752    1.6756355036    1.5691283022
 C    2.2210921482    2.8149274702    2.2248392507
 C    1.6705091054    3.8949291219    1.6672907841
 C    0.6415685261    3.3050733790    0.7290826493
 N    1.3616082223    2.0888168433    0.0604584572
 H   -0.0811380318   -2.3066757424   -0.2244063784
 H   -0.6814174055    1.8358295393   -0.7075336025
 H   -0.8122703815    2.0753070641    2.1930046156
 H    1.7592974928    0.6412937371    1.7493804069
 H    3.0240620293    2.7296476019    2.9422857341
 H    1.8942159068    4.9435614379    1.7981954207
 H    0.0760448342    3.9442850775    0.0499274460