14

 O    0.0573496325    1.4351603278    0.0078264650
 C    0.0158932493    0.0354418983    0.0018027972
 C   -1.4113895703   -0.4603604604    0.0126861066
 N   -2.3592326046    0.4137979260    0.0229506858
 O   -3.6630720674   -0.0616251458    0.0327388444
 C   -4.0152075835   -1.4068504605    0.0320549149
 O   -5.1837038521   -1.6851984383    0.0407632659
 C   -2.9004751394   -2.3456393308    0.0201282326
 C   -1.6392238564   -1.8856746096    0.0108416381
 H    0.9796064329    1.7075188510   -0.0040029288
 H    0.5085145876   -0.3950543656   -0.8886078922
 H    0.5247577064   -0.4031028485    0.8790936772
 H   -3.1558309074   -3.3981673772    0.0194240068
 H   -0.7860603376   -2.5579816564    0.0019662265