25

 C   -1.3035998609    2.4939094294   -1.5877314616
 C   -0.9053882775    1.2904695126   -0.7267221600
 C   -1.7675998281    0.0611623477   -0.9861864189
 C   -1.6137919578   -0.6783069448   -2.3499487859
 C   -1.6638809482   -2.0447923965   -1.6045706302
 C   -0.6920570581   -3.1362087277   -2.0270465172
 C   -1.4254869495   -1.2719377339   -0.2925073559
 C   -0.2904913254   -1.4973421171    0.6684691888
 C   -1.7225597563   -1.7005590253    1.1108278620
 H   -0.6618114913    3.3575237898   -1.3872939703
 H   -1.2240408462    2.2606060554   -2.6549909586
 H   -2.3389357494    2.7948059819   -1.3921932688
 H    0.1459420633    1.0355350344   -0.9126338832
 H   -0.9707151966    1.5664529608    0.3348090148
 H   -2.8218683145    0.3140978570   -0.8103572715
 H   -2.3723777470   -0.4964373231   -3.1150160467
 H   -0.6254572025   -0.4997867224   -2.7887281034
 H   -2.6872196764   -2.4407102981   -1.6180915752
 H    0.3388276807   -2.7660452296   -2.0345290573
 H   -0.7335961553   -3.9989248179   -1.3517699061
 H   -0.9254577718   -3.4975142807   -3.0348483629
 H    0.3323614197   -2.3763334111    0.5361556830
 H    0.2431470212   -0.6325662198    1.0495633200
 H   -2.1561541758   -0.9724133236    1.7902901418
 H   -2.0667150965   -2.7178373374    1.2742279633