14

 C   -0.0278641818    1.4504924608    0.0356434485
 N   -0.0085342135   -0.0054778309    0.0166056916
 C   -0.0294305930   -0.7787549056   -1.1067441730
 C    0.0014991908   -2.0888084499   -0.6707629496
 N    0.0401825004   -2.1370770207    0.6833760720
 C    0.0337849665   -0.8734000192    1.0906102424
 C    0.0668451725   -0.4113102933    2.4790644069
 O    0.1041295041   -1.1324453459    3.4475240436
 H    0.8737214756    1.8485182398    0.5082479632
 H   -0.0690494757    1.8112212382   -0.9928336132
 H   -0.9048555692    1.8236620181    0.5705078943
 H   -0.0635404736   -0.3408502530   -2.0915436095
 H   -0.0028040974   -2.9848321647   -1.2732222763
 H    0.0548011942    0.6964017563    2.5916720490