10

 O   -0.0429836915   -0.0297199179    0.0032572473
 C    0.0463057839    1.1579363297    0.0086421440
 O   -1.2013436044    1.8825260791    0.0291496261
 C   -1.2194144487    3.2080133235    0.0365861656
 C   -0.0865054425    3.9453225976    0.0254803470
 C    1.1296709680    3.2026014566    0.0051617209
 N    1.2056710439    1.9042108445   -0.0028978215
 H   -2.2274618346    3.6117239582    0.0522287632
 H   -0.1090936455    5.0252205970    0.0316518690
 H    2.0796438114    3.7379272818   -0.0046455516