16

 N    0.1896997427    1.1444443925   -0.0178592339
 C    0.0483974734   -0.0963020546    0.0687714760
 O    0.9900038860   -1.0954865174    0.3386192877
 C   -0.0090926694   -2.1114340419    0.0620128363
 C   -1.1146678058   -2.0354386773    1.0509379167
 C   -0.9319193637   -1.6305387406    2.5077170251
 C   -0.6914295236   -2.7843963000    3.3675088309
 C   -0.5027582831   -3.7516767883    4.0550587607
 C   -1.0806043109   -1.0531898140   -0.1289687970
 H    1.1572856437    1.4213748684    0.1560933596
 H    0.2995420082   -2.9531132364   -0.5422814794
 H   -1.8694527392   -2.8034691288    0.8961381532
 H   -0.0963763876   -0.9278853849    2.5892133006
 H   -1.8262542585   -1.0942650196    2.8477887471
 H   -0.3287529390   -4.5966105958    4.6741945239
 H   -1.8861237533   -0.9567322413   -0.8417205277