12

 C   -0.1490649378   -1.1991888505    0.0210684034
 C   -0.0488374015   -0.0023616154    0.0215565573
 C    0.0252776141    1.4280833043   -0.0053897646
 O    0.5332619300    2.1065163148    1.1442507269
 C    1.3480703950    2.1473289677   -0.0321491380
 C    2.5937271006    1.4305346073   -0.0099032328
 C    3.6444211052    0.8506202348   -0.0112025388
 C    1.3842711875    3.4386775375   -0.7017221807
 N    1.4030235639    4.4565066205   -1.2475895676
 H   -0.2290082833   -2.2588611711    0.0260742806
 H   -0.8040281378    1.9405192645   -0.4915078691
 H    4.5729712441    0.3336765955   -0.0051858165