14

 O    0.0484644801    1.3838585092    0.3402510895
 C   -0.0474507077    0.0079340412    0.1358626761
 C   -0.5175490244   -0.8681345018    1.2519257136
 N   -1.6238334679   -0.2431448434    1.9910594468
 C   -2.4098572406   -0.1175103261    0.8017847978
 N   -3.5880482973    0.2517076491    0.5464288213
 C   -1.3522442335   -0.7308430009   -0.0632183410
 O   -1.5391670048   -1.5237920440   -1.1630755554
 H   -0.2600036892    1.8311869631   -0.4552444719
 H    0.7502012591   -0.4332604250   -0.4660466533
 H    0.0280874861   -1.7042614390    1.6692261570
 H   -1.4062469559    0.6238142042    2.4750216999
 H   -4.0595597721    0.5961975683    1.3852883138
 H   -2.3409270419   -2.0419576150   -1.0237801141