23

 C    0.3732206317    1.5957002633   -0.0844785529
 C    0.1666014119    0.1004517423    0.0479714568
 O    1.0368618577   -0.6762778235   -0.8107764719
 C    1.3294288049   -1.6229791450    0.2618852592
 C    0.7179705067   -2.9815419978   -0.0253446033
 C    2.8238085265   -1.6269875597    0.5906325463
 C    3.0637795804   -0.2927577627    1.3192619968
 C    1.7731178561   -0.0772978706    2.1412425530
 C    0.6378929907   -0.6816039310    1.2975293458
 H    1.3933637845    1.8960740433    0.1671916704
 H    0.1747780785    1.9049756483   -1.1158162608
 H   -0.3207316340    2.1357820666    0.5690750968
 H   -0.8845421294   -0.1323663341   -0.1837500478
 H    1.1913187167   -3.4357467872   -0.9023915473
 H    0.8521088242   -3.6593575470    0.8245843593
 H   -0.3531264495   -2.8925898029   -0.2302195562
 H    3.0437215840   -2.4728902630    1.2540985060
 H    3.4294859396   -1.7449711439   -0.3129230584
 H    3.9616631986   -0.3030029344    1.9433455815
 H    3.1880051112    0.5071763781    0.5833996238
 H    1.8406484656   -0.6294687003    3.0860570796
 H    1.6040183138    0.9721086923    2.4020860004
 H   -0.1659143404   -1.1019129610    1.9050141931