16

 C   -0.0385058709    1.3933517634   -0.3067289886
 C    1.4295756928    1.5890298826    0.1184178917
 C    1.2728115729    0.1829898354    0.7213153425
 O   -0.0782980967    0.0791846103    0.2943712276
 C    2.2241939691   -1.0316616298    0.5793608800
 C    3.1420244036   -0.3970725792    1.6506734106
 C    1.6762983671   -0.3030685837    2.1360953404
 O    1.4661109430   -1.6940040209    1.6678303240
 H   -0.7643119753    2.0724372239    0.1544444212
 H   -0.2220367006    1.3513399309   -1.3861663917
 H    2.1502078519    1.6700605579   -0.6973074923
 H    1.6095267960    2.3890009269    0.8387990710
 H    2.4762583584   -1.6276169946   -0.2982422514
 H    3.7443843560   -1.1192400623    2.2006685247
 H    3.6823614374    0.5224499449    1.4104853549
 H    1.2756593054   -0.0310549256    3.1130207756