17

 C   -0.0377284130    1.5234311196   -0.0544421297
 C    0.0727740988    0.0180500959    0.0058711035
 O    1.1127902466   -0.6010991805    0.0307749990
 N   -1.1415804713   -0.6654662572    0.0216338451
 C   -1.3825096822   -2.1177084442    0.0759347362
 C   -2.9112684490   -1.8151136555    0.0230753924
 N   -3.7244651351   -2.3778030130    1.0767697849
 C   -2.4997483449   -0.3138228708    0.0548583845
 O   -3.0526204698    0.7484723099    0.1241745156
 H    0.9602609232    1.9499961610    0.0422382078
 H   -0.4806539818    1.8289839093   -1.0077559945
 H   -0.7001039317    1.8996309344    0.7290494997
 H   -0.9605438453   -2.6643690054   -0.7689186462
 H   -1.0512066168   -2.5715959184    1.0131366692
 H   -3.3513989876   -2.0749126464   -0.9441412494
 H   -3.4262574518   -2.0319177324    1.9847791870
 H   -4.6914604483   -2.0905845462    0.9617173349