17

 C   -0.0526435242    1.4967123966    0.2420730293
 C    1.4183188660    1.9573647221   -0.1121408046
 C    2.0611548884    0.6763530040   -0.6249439664
 C    2.6954922219    0.0495585860   -1.9349047246
 O    4.0512007301   -0.0191001185   -1.4225540523
 C    3.2187256995   -0.3498550997   -0.2811742848
 C    2.1826489737   -1.2074196704   -1.1183579067
 C    1.0433761794   -0.3971745852   -0.5621960552
 C   -0.1298705608   -0.0003881346   -0.0950935902
 H   -0.2792336548    1.6798746622    1.3001931504
 H   -0.7939567162    2.0727582379   -0.3263768413
 H    1.4182778112    2.7484514480   -0.8665109301
 H    1.9347807540    2.3542501476    0.7657208831
 H    2.5315743617    0.2920192066   -2.9848286964
 H    3.6886374276   -0.5912363538    0.6721958752
 H    2.2831992075   -2.2528255330   -1.4026618091
 H   -1.0337513549   -0.5791133560    0.0511473039