21

 C   -0.1239791543    1.4559797998    0.0320644035
 C   -0.1778115597   -0.0588980703   -0.1802891410
 C    0.9134415157   -0.5657741013   -1.1341991100
 C    0.8684370882   -2.0655830726   -1.3309164074
 C   -0.0405189523   -2.6908560712   -2.3427399449
 C    1.4557539634   -2.6890831906   -2.5987488458
 O    1.9037156411   -1.8703125732   -3.6398163238
 C    2.1681185185   -3.9883208343   -2.4613693051
 O    1.9152253327   -4.8246642137   -1.6269520027
 H    0.8373124092    1.7632962553    0.4590014226
 H   -0.2515140848    1.9937074054   -0.9141237135
 H   -0.9119977610    1.7905027811    0.7136369050
 H   -0.0798160952   -0.5705312738    0.7857367099
 H   -1.1598921772   -0.3446422439   -0.5768879923
 H    0.8129315544   -0.0682022025   -2.1058274526
 H    1.8971893113   -0.2773226784   -0.7369193128
 H    1.0503400533   -2.6663355109   -0.4429538279
 H   -0.4911847569   -3.6504881127   -2.1174823590
 H   -0.6097571847   -2.0331340018   -2.9909495505
 H    2.6837084927   -1.3911290301   -3.3393300627
 H    2.9749109954   -4.1305723103   -3.2155376689