16

 O   -0.3524951072    0.3644519373    0.5581382190
 C    0.0656708415    1.1319081208   -0.2712187110
 C    1.2920497451    1.9934563089   -0.0690259338
 C    1.3738760046    3.3010335806   -0.8767552188
 N    0.1862896612    4.0822514194   -0.4561746382
 C    1.4228702932    4.1174234612    0.3690932557
 C    1.3671088783    2.8626133176    1.2208074673
 C    0.8878115951    2.6194203647    2.5751497393
 O    2.2952854782    2.5886682412    2.2400557811
 H   -0.4366071075    1.2484865066   -1.2568487857
 H    2.1947210487    1.3777195873   -0.1421661564
 H    1.8570058121    3.4672125226   -1.8304149817
 H    0.1664642387    4.9403241798   -1.0065277078
 H    1.9406122766    5.0427750924    0.5853634767
 H    0.5801865131    3.4566534680    3.1986319982
 H    0.4489395683    1.6536780814    2.8106838960