23

 C   -0.1209146622    1.5612737715    0.0468449566
 C    0.0644288686    0.0458215539    0.0163283104
 C    0.8077304428   -0.4861025972   -1.2376276018
 C    1.2678592279   -1.8863825201   -0.8032985571
 C    2.5129426816   -2.5701423637   -1.4010253642
 C    3.2045050650   -3.2344828168   -0.1742907224
 C    2.7319980851   -2.3757461842    0.9860657622
 C    1.6685894698   -1.6543597269    0.6404505230
 C    0.8675467976   -0.5244095377    1.2313796403
 H    0.8481770217    2.0741747063    0.0341687250
 H   -0.6936296781    1.9106681689   -0.8191138243
 H   -0.6545013844    1.8812505309    0.9485558322
 H   -0.9291747302   -0.4219854335    0.0280152164
 H    0.1745106056   -0.4736645752   -2.1303901668
 H    1.6849563232    0.1425816159   -1.4437754922
 H    0.4019200203   -2.5671162646   -0.8466664159
 H    2.2851687101   -3.2814136177   -2.1998564832
 H    3.1800104127   -1.8067912971   -1.8188944668
 H    2.8886858309   -4.2816123205   -0.0539292338
 H    4.2961251965   -3.2551085032   -0.2701213088
 H    3.2266890842   -2.3689794300    1.9515731414
 H    1.5279012877    0.2398799039    1.6598755452
 H    0.1973555837   -0.8410093727    2.0388357044