18

 C   -0.2097373978    1.5744925304    0.2004897792
 C    0.0073408290    0.0717604094    0.0954549920
 C    0.6470358311   -0.5499088321   -1.1987468831
 C    1.0805561118    0.3923578305   -2.3285444349
 C    1.7765077243   -0.3843547947   -3.4254951645
 O    2.9363683767   -0.2651645807   -3.7233410891
 N    1.7333739250   -1.0320983375   -0.3402521267
 C    1.2468501977   -0.5015247301    0.8315257571
 O    1.6530291321   -0.5000395559    1.9615127590
 H    0.6905814036    2.1393217078   -0.0569366740
 H   -1.0237503205    1.9091005082   -0.4506602303
 H   -0.4746619312    1.8315294941    1.2300329043
 H   -0.9009590617   -0.4652576064    0.3851455171
 H    0.0426204554   -1.3661102332   -1.6157268210
 H    0.1835191993    0.8602270936   -2.7563919554
 H    1.7545370211    1.1689928998   -1.9610366817
 H    1.1241103815   -1.1244567701   -3.9467874937
 H    2.5672557225   -1.5652473832   -0.5414829542