23

 C   -0.2531801712    1.5235155865    0.0839409373
 O   -0.1571857466    0.1406406558    0.3632307375
 C   -1.3210675369   -0.6311152550    0.0258628110
 C   -1.4205976609   -0.8089103698   -1.4928718046
 C   -1.2605241008   -1.9653300469    0.7696126989
 C   -2.4644650904   -2.8584426058    0.5239810752
 C    0.0940872590   -2.6416091429    0.9515124610
 C   -0.6250694436   -2.0527460004    2.1429949628
 O   -0.1375750670   -0.9590563473    2.8510891491
 H    0.6406471404    1.9949937381    0.4993622330
 H   -0.2853257105    1.7293152400   -0.9934207872
 H   -1.1428743768    1.9683149903    0.5532199926
 H   -2.2088328503   -0.0806093903    0.3823029367
 H   -0.5676699025   -1.3860358180   -1.8619820922
 H   -2.3401803290   -1.3334148450   -1.7635890306
 H   -1.4364729540    0.1557405825   -2.0071600805
 H   -2.4991615713   -3.2345051749   -0.5044237132
 H   -2.4348902833   -3.7298379679    1.1847279784
 H   -3.4041944262   -2.3277272947    0.7211828424
 H    0.1593366565   -3.7196446764    0.8387186516
 H    0.9624209750   -2.0947419609    0.5998859251
 H   -1.0904104779   -2.7531432721    2.8310643376
 H    0.1250419584   -0.3088333050    2.1840948881