20

 C   -0.1739477577    1.5480074837    0.0483744107
 C   -0.0720798695    0.0247654071   -0.0083808592
 C   -1.4273145172   -0.6215590600   -0.3009512726
 O   -1.9429984141   -0.2728783953   -1.5747402964
 C    1.1200670826   -0.4649975025   -0.8880636780
 C    1.9715961587   -0.6754247437    0.3897776434
 C    0.6637857123   -0.6050022801    1.2386355948
 C    0.6860135424    0.1340350741    2.4880723629
 N    0.7057154520    0.7438943108    3.4709467512
 H    0.7908990013    2.0121509818    0.2724057841
 H   -0.5037914058    1.9367556667   -0.9208073835
 H   -0.8814278610    1.8744854590    0.8182062578
 H   -1.3166185716   -1.7120071787   -0.3161041093
 H   -2.1373282385   -0.3761259814    0.5055099622
 H   -2.2820787943    0.6257543680   -1.5274444890
 H    0.8911480721   -1.4019660141   -1.4022531901
 H    1.5031688613    0.2464518237   -1.6218205054
 H    2.5438528092   -1.6003414824    0.4750654902
 H    2.6340223057    0.1658815742    0.6009528742
 H    0.2764711221   -1.6101653308    1.4350857820