23

 C   -0.3812111346    1.4322593245   -0.1894030424
 C   -0.0183771832   -0.0247363518    0.0172223979
 C    1.3179362309   -0.6562518068   -0.2984895061
 C    2.5705047061    0.2121106514   -0.3752057664
 C    2.6529133219    0.9863071838    0.9651925779
 C    1.7811453934    0.1951630599    1.9745372542
 C    1.1204842853    1.0641033349    3.0376384232
 O    2.1528745067    1.6807458256    3.7980918144
 C    0.8141376467   -0.6320794204    1.1328144290
 H    0.4490334947    2.1166873992   -0.0132201587
 H   -0.7210574696    1.5926148967   -1.2192713886
 H   -1.2018680341    1.7298513283    0.4735458582
 H   -0.8487919847   -0.6773866568   -0.2481007368
 H    1.3163592420   -1.5757788691   -0.8751773704
 H    3.4402909035   -0.4448950842   -0.4885540133
 H    2.5752147115    0.8862918588   -1.2394217820
 H    3.6813436732    1.0873489061    1.3186216411
 H    2.2722867975    2.0061819340    0.8573257726
 H    2.4262928752   -0.5147283701    2.5098825210
 H    0.4766432356    1.8186497664    2.5593430950
 H    0.4754204330    0.4406985775    3.6780469583
 H    1.7438045137    2.2574328060    4.4495602065
 H    0.4189267052   -1.5322422237    1.5941388654