17

 C   -0.0353752292    1.4509851236   -0.0316845043
 N   -0.0082269244   -0.0002989957    0.0561110715
 N   -0.0353041822   -0.6253200239   -1.1575855105
 N   -0.0168574619   -1.8788710968   -1.2390859063
 C    0.0330443181   -2.7234450024   -0.0815575006
 N    0.0505606901   -3.9972875208   -0.2044583664
 C    0.0611691580   -2.0484792092    1.1952185895
 C    0.0403570608   -0.7007398923    1.2507562308
 C    0.0666763461    0.0845009838    2.5283957691
 H    0.8616694225    1.8946996860    0.4113659376
 H   -0.0719649825    1.6986927395   -1.0918136489
 H   -0.9181185784    1.8647203444    0.4657779964
 H    0.0236844869   -4.2293065474   -1.2002373413
 H    0.0990181968   -2.6416366810    2.0998399153
 H    0.1043160556   -0.6012999065    3.3761038104
 H    0.9404238404    0.7431035732    2.5809474304
 H   -0.8236742569    0.7136105655    2.6354117671