18

 C    0.0283593056    1.5655152389   -0.0027867453
 N    0.0499391190    0.1065375619   -0.0141651891
 C    0.7490198071   -0.5739981599   -1.1058575465
 C    2.2737880297   -0.5774305356   -0.8332128062
 C    2.4205923680   -0.0482670019    0.5526284079
 O    3.3440980321    0.3500358108    1.2083653551
 C    0.9998081587   -0.5719711888    0.9089692835
 C    1.2864221640   -1.6356814724   -0.2278755089
 C    1.3392713010   -3.1256019821   -0.2417993995
 H    1.0197876264    2.0301678502   -0.1300331688
 H   -0.6246808742    1.9179646240   -0.8072601814
 H   -0.3913658625    1.9084161609    0.9478759257
 H    0.3659714388   -0.6301044226   -2.1188954017
 H    3.0226175308   -0.7295000087   -1.5982614982
 H    0.6916970605   -0.7442114947    1.9385273387
 H    0.3757059106   -3.5535869509    0.0542593099
 H    1.5791036276   -3.4950501589   -1.2436818186
 H    2.1034303669   -3.5027344403    0.4458182335