16

 N    0.1719948313   -1.1572886771   -0.4614905720
 C    0.1899253712   -0.0020390964   -0.4715679328
 C    0.2298323128    1.4580886244   -0.4604486313
 C    1.1246538490    2.0041647918    0.6837212449
 C    1.1592707620    3.4595828580    0.6918416422
 C    1.1745653760    4.6637696305    0.6670651718
 C    1.1705381249    6.1017878523    0.6579073894
 C    2.4247888649    6.8811650776    0.6238187494
 O    1.6197383278    6.7566169740   -0.5402254510
 H    0.6036996306    1.8140278216   -1.4254948404
 H   -0.7886786200    1.8434533762   -0.3513182895
 H    0.7478028074    1.6310226231    1.6428135438
 H    2.1370229108    1.6000487797    0.5711338427
 H    0.2984204567    6.5707355246    1.1121461561
 H    2.4452565260    7.8684975529    1.0832889402
 H    3.3735825286    6.3489596966    0.5993430964