16

 N    0.5777418555    1.2210629525    0.3092784994
 C    0.3591918986   -0.1302080661   -0.1403339321
 C   -1.0605272798   -0.7422852669    0.0195132931
 O   -1.0520709107   -1.1246769830   -1.3914298477
 C    0.1454332124   -0.4657161446   -1.6133295125
 N    0.7529318048   -0.2077698967   -2.6766520759
 C   -1.1571464006   -1.9720060296    0.9199689729
 N   -2.2554289401   -2.0130910538    1.7219002079
 O   -0.2939181866   -2.8260037727    0.9176458319
 H    1.5707158985    1.4232318410    0.3409301814
 H    0.1682845804    1.8868667006   -0.3391136970
 H    1.0954522055   -0.8030310828    0.3053467726
 H   -1.8435771774   -0.0000549837    0.2047114496
 H    0.2659256902   -0.5788430993   -3.4942708201
 H   -2.9973635162   -1.3392709594    1.6529183818
 H   -2.3836188347   -2.8149380156    2.3182070248