12

 O   -0.0636593163   -0.0049689966    0.0039093501
 N   -0.0203518372    1.2172129416    0.0067948187
 O    0.9983724306    1.8938170907    0.0021947524
 C   -1.3008780081    1.9334465592    0.0171212308
 C   -1.3352075329    3.3223901173    0.0209216160
 N   -2.4965943910    3.9751289162    0.0302775015
 C   -3.5972687486    3.2178859776    0.0356233748
 N   -3.6663911126    1.8836634159    0.0326549133
 C   -2.5023294344    1.2357102663    0.0232794143
 H   -0.4159203303    3.8981367327    0.0163204140
 H   -4.5458618890    3.7484589082    0.0432540250
 H   -2.5117471753    0.1510451419    0.0205517292