21

 C   -0.0743165630    1.5950024012   -0.0531862432
 C    0.0083478921    0.0649362316   -0.0098998459
 C    0.8901296126   -0.4866198767   -1.1470687427
 C    0.6801370319   -1.9705554937   -1.4685236144
 C    1.3879080677   -2.9526991753   -0.5336272607
 C    1.1334788933   -2.8459388560    0.9415624116
 C    0.7234922861   -1.8254559240    1.7061378584
 C    0.3932043481   -0.4092093672    1.3958747243
 O    0.3879366380    0.3760258650    2.3275405723
 H    0.9179626187    2.0428338443    0.0627926121
 H   -0.4882969668    1.9246336926   -1.0110259154
 H   -0.6987636944    1.9777944097    0.7548945648
 H   -1.0048663730   -0.3388636130   -0.1697879996
 H    0.6533896166    0.0949827160   -2.0451053650
 H    1.9491532187   -0.2887526197   -0.9323563273
 H   -0.3961509534   -2.1860981162   -1.4754238382
 H    1.0357153136   -2.1705626806   -2.4859217181
 H    1.1443007974   -3.9771338733   -0.8433629808
 H    2.4775107060   -2.8721999758   -0.6784376895
 H    1.3860816390   -3.7581648831    1.4822650431
 H    0.6916353105   -1.9865028256    2.7810907842