27

 C    0.1811601784    1.4509991495    0.0426380041
 C   -0.0097865892   -0.0661784174   -0.0189851693
 C   -1.4749114629   -0.4754749800    0.0864453134
 O   -1.5352192100   -1.8855144653    0.0206768916
 C   -2.8213288987   -2.5239248580    0.0172902487
 C   -3.6656148548   -2.1038926738    1.2321946453
 C   -3.5732232995   -2.2121632966   -1.2877384038
 C   -2.4867971202   -4.0297641187    0.0571025277
 C   -1.6986000438   -4.4908059148    1.2860705762
 H    1.2391152859    1.7183087999   -0.0340427467
 H   -0.3476193222    1.9538952131   -0.7747959242
 H   -0.1973512785    1.8641250667    0.9843235529
 H    0.3948597441   -0.4638634808   -0.9567230928
 H    0.5457181262   -0.5533197223    0.7907039157
 H   -1.8973578777   -0.1014589902    1.0323084094
 H   -2.0484819516   -0.0091966974   -0.7301408813
 H   -4.0059086868   -1.0677166853    1.1487404653
 H   -4.5563234579   -2.7355855314    1.3081276987
 H   -3.0963129012   -2.2018675540    2.1600794455
 H   -2.9528697528   -2.4664655369   -2.1522635796
 H   -4.4986757053   -2.7939913423   -1.3440672719
 H   -3.8473907659   -1.1555789263   -1.3593189935
 H   -3.4245094812   -4.5928701475   -0.0221345029
 H   -1.9072562949   -4.2552629507   -0.8457671188
 H   -1.4117291957   -5.5421067863    1.1845546788
 H   -0.7889131752   -3.8967532934    1.4007235564
 H   -2.2831635386   -4.3998629398    2.2069981751