18

 C    1.6457299341    0.9941911096   -2.2300190922
 C    1.5015926415   -0.4953899684   -2.0230186148
 O    2.3465778720   -1.3192437577   -2.2591169256
 O    0.2724137807   -0.7789281302   -1.5247351008
 C   -0.0329978916   -2.1501585497   -1.2646263314
 C    0.6581895370   -2.7072511532   -0.0449901932
 C   -1.4590346328   -2.4925107934   -1.5775041731
 C   -0.3361763373   -3.0027778690   -2.4598413433
 H    0.8569350999    1.3615360374   -2.8923450501
 H    1.5354629742    1.5159366168   -1.2749476762
 H    2.6242941788    1.2075933798   -2.6582282436
 H    0.4389529935   -2.0930373073    0.8348343881
 H    0.3061189579   -3.7232466749    0.1545787569
 H    1.7396530879   -2.7397729903   -0.1949952886
 H   -1.9705063359   -3.1889880411   -0.9223973090
 H   -2.0806143657   -1.6965614605   -1.9709986085
 H   -0.2221933890   -2.5513339309   -3.4379675452
 H   -0.0663896051   -4.0519864071   -2.4147339793