19

 C   -0.0458300289    1.5202690760    0.0687254765
 C   -0.0135639659    0.0081390150   -0.0762918856
 C    0.8360065125   -0.4833450772   -1.2453386941
 C    0.9470388383   -2.0043978021   -1.2309468138
 C    2.1339759124   -2.6444792389   -0.5758996811
 C    0.7801182015   -2.6757041034    0.1166835070
 C    0.6085079576   -1.8506341817    1.3516068955
 O    0.6137360963   -2.3107145622    2.4611945791
 O    0.4924388684   -0.5054621604    1.1808280651
 H    0.9655683906    1.9134168035    0.2097972001
 H   -0.4755712174    1.9774532303   -0.8276826595
 H   -0.6496646983    1.8089484399    0.9323778508
 H   -1.0379183004   -0.3716790592   -0.1960247955
 H    0.3790396205   -0.1449861398   -2.1806416293
 H    1.8260862083   -0.0160957556   -1.1882089115
 H    0.5157424794   -2.5252364525   -2.0790804115
 H    2.5059767317   -3.5871753032   -0.9600027945
 H    2.8980313567   -1.9932803200   -0.1638856605
 H    0.2948522065   -3.6417296384    0.1812934427