17

 O   -1.0724953293    0.7525917432   -0.1308897533
 C   -0.4886494299    1.7684119427    0.0941131309
 O    0.8558109325    1.8632934696    0.0406461351
 C    1.4646079284    3.1146516358    0.3263682334
 C    2.5750447269    3.0978021972    1.3980640131
 C    3.4281308283    4.0059602869    0.4736587429
 C    2.4881356579    3.6008787006   -0.7224578703
 C    3.3135008008    5.4796654371    0.7692597205
 O    2.5452700227    5.9630017799    1.5633854941
 H   -0.9743978214    2.7261103302    0.3653169130
 H    0.7001927760    3.8681289058    0.5423237447
 H    2.3240320614    3.4988865201    2.3802414043
 H    3.0058682416    2.0989489653    1.4911907343
 H    4.4802119104    3.7446351614    0.3348769134
 H    2.9024561794    2.7575256930   -1.2783314457
 H    2.1755784066    4.3791572108   -1.4226829405
 H    3.9828269078    6.1266108304    0.1577336302