22

 C    0.4618762957    0.7058028239    0.4284104956
 O   -0.4389329355    0.1514411061   -0.5225226134
 C   -1.2102507449   -0.8582394422   -0.0749081304
 N   -2.0050792003   -1.4463238679   -0.8563159880
 C   -2.8446223673   -2.4800445920   -0.2868882596
 C   -4.0807511628   -1.9232170154    0.3954904095
 C   -2.9928217821   -3.7456190231   -1.0876247295
 C   -2.2453868336   -3.7796716889    0.2323884287
 C   -0.7575088481   -4.0511571361    0.2510228156
 H    0.9696925492    1.5301444727   -0.0734886622
 H   -0.0681139376    1.0935383276    1.3070458010
 H    1.2072459731   -0.0307514916    0.7523394525
 H   -1.0756277970   -1.0934031746    0.9916465560
 H   -4.6382419532   -1.2813275879   -0.2948860221
 H   -4.7433418329   -2.7289187995    0.7258669109
 H   -3.8153414019   -1.3204057263    1.2718339582
 H   -3.9708558588   -4.2107632098   -1.1568036108
 H   -2.3929902052   -3.8170969894   -1.9892657203
 H   -2.7853630702   -4.2268101534    1.0646391569
 H   -0.2578191380   -3.5965300089   -0.6082545220
 H   -0.2821209744   -3.6592678763    1.1587331447
 H   -0.5622170744   -5.1290194071    0.2186094987