19

 C   -0.0355812818    1.5790771650    0.0982897502
 C    0.0543709667    0.0766194919    0.0427210447
 O   -1.0916395914   -0.5151279091   -0.5161225383
 C    1.3056611967   -0.7372580058   -0.2749955147
 O    1.2849716935   -1.7157681349   -1.2614256955
 C    2.5402380741   -0.1448416568    0.3803232980
 O    1.8536869615   -0.0852631778    1.6584730417
 C    0.7058395820   -0.7745595669    1.1220558704
 C    0.0307489902   -1.7932142199    1.9758199610
 H    0.7712958844    1.9910108598    0.7075011751
 H    0.0059017548    2.0193556679   -0.9036294070
 H   -0.9882462809    1.8700196908    0.5523509765
 H   -0.7911979002   -1.2289627997   -1.0949898336
 H    1.4444103135   -1.2912582974   -2.1141689049
 H    3.3799923537   -0.8493011654    0.4199213787
 H    2.8907748771    0.8387985495    0.0459599587
 H   -0.2715497581   -1.3355915584    2.9245862832
 H   -0.8665663504   -2.1593791451    1.4724871921
 H    0.6903813745   -2.6370217677    2.1996381338