20

 C   -0.0082454719    1.5155653228    0.1056031647
 C   -0.0782756299    0.0238973259    0.0432455661
 C    0.0997113307   -1.0072086482    1.0972218483
 C   -0.4674667209   -2.0499596942    0.0538591879
 C    0.9649405626   -2.0675393344   -0.5049193309
 N    1.2272975990   -0.7427209048    0.1546067969
 C   -1.0712432435   -0.8525891960   -0.6931737509
 C   -2.5249588353   -0.5555848549   -0.8755576134
 C   -1.6224254155   -0.7671882531   -2.0815423086
 H    0.7648847367    1.8294582130    0.8115881483
 H    0.2424764340    1.9389941130   -0.8736849313
 H   -0.9644405422    1.9424767787    0.4268055047
 H    0.1756819741   -0.9666331881    2.1765475116
 H   -1.0515645913   -2.9484891958    0.2476695894
 H    1.6125137221   -2.8137753301   -0.0369420897
 H    1.0927155813   -2.0869934174   -1.5935255063
 H   -3.2451931540   -1.3318102447   -0.6368023103
 H   -2.8792615066    0.4514241823   -0.6777656340
 H   -1.3759669256    0.0983541437   -2.6885737613
 H   -1.7386581738   -1.6866268376   -2.6473944512