18

 C   -1.0309904254    1.2510583566    0.2129536126
 C   -0.1696311787    0.0134906020    0.0353466114
 N    0.9733557343    0.1651038510   -0.9133922939
 C    1.9195155209   -0.5146877604   -0.0008328375
 C    3.2169686567    0.2298775696    0.2251046932
 O    4.1825815380   -0.2449457397    0.7663840389
 C    0.8556024471   -0.3629418640    1.1127764582
 C    1.0051752542    0.0649872428    2.5031682874
 O    0.6457549849   -1.2840339689    2.1460538214
 H   -0.4116372972    2.1200987649    0.4520931920
 H   -1.5835617088    1.4705146877   -0.7064036436
 H   -1.7622507534    1.1025237003    1.0149475235
 H   -0.7984839712   -0.8620502616   -0.1832653733
 H    0.8482459665   -0.2858868954   -1.8121648885
 H    2.1266585991   -1.5738059158   -0.2002982478
 H    3.1842603307    1.2873064106   -0.1222791134
 H    2.0009127463    0.1789053089    2.9275322015
 H    0.2167528060    0.6442351415    2.9800810378