19

 C   -0.1696474013    1.2159700756    0.0834538971
 O    0.8408269011    1.7122594345    0.9241638748
 C    2.0282160203    1.1526716053    0.3913722507
 C    1.6090117371   -0.2631181382   -0.0610444266
 C    2.3138311129   -0.7815128401   -1.3383075928
 C    2.5653167767   -2.2921261316   -1.1132782849
 C    2.3557491209   -2.4589858520    0.3719955152
 C    1.8518060421   -1.3666599661    0.9405838255
 O    0.1808466792   -0.1086090955   -0.2525066845
 H   -1.1200151272    1.2261138461    0.6267481283
 H   -0.2517449200    1.8322689891   -0.8317478862
 H    2.3901573386    1.7405043367   -0.4679779128
 H    2.7941597685    1.1489133463    1.1694597665
 H    1.7051368673   -0.5673455731   -2.2191343092
 H    3.2694904375   -0.2604844677   -1.4617599274
 H    1.8614010675   -2.9189848664   -1.6759282310
 H    3.5684438513   -2.5971422173   -1.4323041705
 H    2.5757799025   -3.3873132999    0.8885059838
 H    1.5785548351   -1.2504125758    1.9832048741