16

 C    0.0968352960   -1.1900947212   -0.0122833064
 C   -0.0027148798    0.0115345651   -0.0110428180
 C   -0.0562417085    1.4197907010   -0.0345295102
 C   -1.1206581184    2.2308412376    0.0961699637
 C   -0.6530724921    3.6363194221    0.0682466261
 C    0.5219645383    4.0496505661    0.9235087786
 C    1.3766343851    2.8889809740    1.3991976273
 C    1.1806227843    2.3058154281   -0.0376394277
 N    0.7058298607    3.6810110267   -0.5248459646
 H    0.1670996876   -2.2494942285   -0.0099771150
 H   -2.1514272562    1.9300808660    0.2231884666
 H   -1.3213875108    4.4309076800   -0.2486046688
 H    0.6096137638    5.0761156834    1.2678636911
 H    2.4066096595    3.2198662750    1.5469555318
 H    1.0534162892    2.2882420595    2.2538430660
 H    2.0517999313    1.9160646852   -0.5600088804