16

 C   -0.0890168539    1.6879897273    0.1205224680
 C    0.0629204446    0.1638356570    0.1014047955
 C    0.7811759239   -0.3788694560   -1.1516545318
 O    1.5895538802   -1.4656040202   -0.6861623567
 C    1.7220548732   -1.4031539983    0.6712005984
 O    2.3980585337   -2.1516725902    1.3155612458
 N    0.9646798610   -0.3362152840    1.1264364838
 C   -1.3311790264   -0.4642556726    0.2705485676
 O   -1.9982011737   -0.9058007194   -0.6249435550
 H    0.8976898022    2.1582546076    0.1097747772
 H   -0.6592037518    2.0264717355   -0.7500205619
 H   -0.6183809070    2.0222022403    1.0193744558
 H    0.0704865323   -0.7510917903   -1.8905442102
 H    1.4274546161    0.3827625499   -1.6003877781
 H    0.7513829002   -0.2974567030    2.1107730133
 H   -1.6922662146   -0.4692667235    1.3259383481