21

 C    0.0980435625    1.5791043680   -0.0178252972
 C    0.2437396407    0.0553225689   -0.0379482412
 C    0.4623015805   -0.5396786625    1.3599339950
 C    0.5943783449   -2.0481873643    1.3361974346
 C    1.9155849105   -2.7130420732    1.0308192892
 C    1.3331786051   -2.7802713610    2.4368819826
 O    1.9052294860   -1.9549904958    3.4188557096
 C    0.8214945652   -4.0371669590    2.9204116640
 C    0.4229919320   -5.0918267068    3.3408088125
 H    0.9934576915    2.0566077647    0.3954813359
 H   -0.0582325696    1.9790280893   -1.0245946822
 H   -0.7532894576    1.8876248739    0.5991643263
 H   -0.6515298461   -0.3932700706   -0.4885145827
 H    1.0829714246   -0.2284807986   -0.6857020961
 H    1.3563245225   -0.1038339142    1.8170075604
 H   -0.3780391693   -0.2614399741    2.0096431130
 H   -0.2833980348   -2.5738204267    0.9699134570
 H    1.9340225585   -3.6172780403    0.4336046389
 H    2.7814974753   -2.0670248248    0.9267362129
 H    2.6591735186   -2.4259726221    3.7909371449
 H    0.0573767487   -6.0166584308    3.7128884028