17

 C   -0.0010316173    1.4354216871    0.0883376299
 C   -0.0704716631   -0.0465423608    0.0074239906
 N   -1.0927131493   -0.8181895547    0.2048480922
 C   -0.6154997290   -2.1140205651    0.0018260352
 C    0.6981286712   -2.0386624147   -0.3190412691
 O    1.0632268589   -0.7160765538   -0.3146576634
 C   -1.5019995604   -3.2823909585    0.1244466845
 C   -2.5866410161   -3.2769420578    1.1461745259
 N   -2.9174230964   -3.1508263379   -0.2776841145
 H    0.7242301604    1.7540513207    0.8440075099
 H    0.3093454512    1.8667454647   -0.8688348430
 H   -0.9849383116    1.8232098115    0.3523756619
 H    1.4667304288   -2.7515693287   -0.5608768019
 H   -1.0487942187   -4.2310756717   -0.1500881983
 H   -2.8886998613   -4.2120896585    1.6096838834
 H   -2.6639342823   -2.3950146106    1.7751166323
 H   -3.0900215052   -2.1678523413   -0.4838152256