12

 O   -0.0782988627   -0.0430346832    0.0035614691
 C    0.0152038600    1.1580960549    0.0090239518
 N   -1.1659169891    1.9559668383    0.0295550042
 C   -1.1369767272    3.3094732441    0.0366421274
 N   -0.0117211584    3.9779573195    0.0249370848
 C    1.1068085225    3.1881294614    0.0053245134
 N    1.1923631010    1.8901238796   -0.0030490081
 C   -2.3915783269    3.9907267524    0.0574940936
 C   -3.4637650324    4.5332549899    0.0750941839
 H   -2.0458375604    1.4566394046    0.0387954667
 H    2.0445096920    3.7413806717   -0.0045489318
 H   -4.4036101185    5.0305624469    0.0906399851