19

 C   -0.0249915553    1.5727640176   -0.0008435765
 C    0.1010723777    0.0693786262    0.0905442805
 O   -1.0692318316   -0.6136204396   -0.2955972360
 C    1.3647260931   -0.7096966501   -0.2133166342
 C    2.6079476976   -0.0168646997    0.2794976305
 C    3.2496993004   -0.8042264904    1.4044374392
 C    2.0202025871    0.0191513831    1.6938019124
 O    2.0561634752    1.1125838719    2.5474874567
 C    0.7653350461   -0.6684744278    1.2205567872
 H    0.8578945461    2.0818819010    0.3875101583
 H   -0.1691559651    1.8825223614   -1.0442587760
 H   -0.8948725637    1.9057442575    0.5738472868
 H   -1.2421107929   -0.3960977389   -1.2181477358
 H    1.3297093073   -1.5624733912   -0.8821678621
 H    3.1419961747    0.7790864249   -0.2261722090
 H    3.2211100601   -1.8906845211    1.4051561046
 H    4.1668568502   -0.3688616392    1.7903642318
 H    2.1156448231    0.7887256235    3.4527526428
 H    0.2343081400   -1.4653019591    1.7292100688