16

 N   -0.1268122076    1.4344271853    0.0315772244
 C   -0.0745105442   -0.0044732718    0.0306516180
 C    1.0091047823   -0.6062845047   -0.7250992369
 N    1.8910139974   -1.0331676799   -1.3416850044
 C   -0.4675416878   -0.7989011509    1.2663983846
 C   -1.5587278145   -0.0557763163    2.0466545206
 C   -2.4641701178   -0.0880149078    0.7740979469
 C   -1.3515211449   -0.8302360000    0.0238493402
 H    0.7277983620    1.8237032048    0.4179437575
 H   -0.2203585867    1.7900970728   -0.9149543318
 H    0.2019471866   -1.5556052436    1.6563029282
 H   -1.9621402459   -0.6630681651    2.8591889983
 H   -1.2882063220    0.9298928496    2.4292408247
 H   -3.3492978712   -0.7124853432    0.9095421732
 H   -2.7603058749    0.8774973567    0.3603669390
 H   -1.4819523808   -1.6152830760   -0.7106791425