19

 O   -0.1486108078    1.3745779027   -0.0188206416
 C    0.0261546728   -0.0146659232   -0.0406280137
 C   -0.3803973810   -0.7586802875    1.2168660550
 C   -1.2692993834   -0.7693813098   -0.0212581967
 C   -1.2968049859   -2.2781721121   -0.3069940500
 O   -2.0579565321   -2.6135731924   -1.4212904287
 C   -1.5591829699   -2.8344205130    1.1473856372
 C   -0.1150073950   -2.2697621241    1.3632574932
 C    0.1711848019   -2.7512668274   -0.0890889535
 H    0.5817640904    1.7549695076    0.4802428979
 H    0.8638570366   -0.3462966345   -0.6496624846
 H   -0.6391268046   -0.1694252586    2.0895904910
 H   -2.1953816577   -0.2114373186   -0.0860078204
 H   -2.0509811465   -3.5713499075   -1.5161370006
 H   -2.3739173189   -2.3878110921    1.7231852110
 H   -1.6071451195   -3.9277258097    1.1857173618
 H    0.5073444098   -2.5999132539    2.1934448645
 H    0.2426857022   -3.8415183778   -0.1325342914
 H    0.9838775487   -2.3129458582   -0.6683294106