19

 N   -0.2227646077   -1.1357597172   -0.0311715631
 C   -0.0915465369    0.0070064526    0.0797557624
 C    0.0990622459    1.4484069285    0.2108854593
 C    1.4934272859    1.9002853769   -0.2632734664
 N    1.5781840852    3.3440717630   -0.1249044575
 C    2.0636526004    4.0015419309    1.0743019276
 C    3.2429251223    3.2656891713    1.7397192787
 C    4.0205780689    3.3376620494    0.3877162628
 C    2.8189737950    4.0770739980   -0.2344680521
 H   -0.6695037362    1.9729520977   -0.3655480032
 H   -0.0432466130    1.7295228464    1.2605228249
 H    2.2588761240    1.3402471703    0.2908528090
 H    1.6153192101    1.6536156033   -1.3227745534
 H    1.4206562401    4.7341442934    1.5500707518
 H    3.7135566884    3.8723691168    2.5157733718
 H    3.0361118248    2.2753354053    2.1569387839
 H    4.9048896680    3.9741341443    0.4557721565
 H    4.3092564426    2.3939340655   -0.0839146379
 H    2.8736531819    4.8787604933   -0.9632979753