11

 O   -0.1246558011   -0.0003970919   -0.0013327196
 C   -0.0523596403    1.1857993012    0.0081253276
 N    1.1923367149    1.8955698641    0.0005633168
 N    2.4181842676    1.3161516464   -0.0178386373
 N    3.2668703643    2.2840965518   -0.0189688558
 C    2.5401732843    3.4513601681   -0.0008118526
 C    3.1058587846    4.8213869442    0.0047962577
 O    4.2848268009    5.0555207721   -0.0061251263
 N    1.2379086869    3.2247990853    0.0115103931
 H   -0.8843353462    1.9057101629    0.0234396017
 H    2.3305172442    5.6129772957    0.0201508646