22

 C   -0.2822772843    1.4351688509   -0.0856455710
 C    0.0978215879   -0.0480798435   -0.0121193205
 C    0.9076107774   -0.5799651764   -1.2120614983
 C    2.2827251333    0.0894608541   -1.2857799886
 O    2.9583696051   -0.3386476723   -2.4705831050
 C    1.0176624858   -2.1138303559   -1.1221842125
 N    1.5087873332   -2.7302355591   -2.3426785062
 C    0.8984495656   -3.7899542097   -2.9257191444
 O   -0.0740529143   -4.3759016116   -2.4915541626
 H    0.5900195259    2.0938860005   -0.0359694602
 H   -0.8168286550    1.6599314571   -1.0151227940
 H   -0.9386181429    1.7049956087    0.7473424039
 H    0.6542382781   -0.2406325123    0.9156392791
 H   -0.8199539086   -0.6427204139    0.0616063394
 H    0.3674677054   -0.3346831204   -2.1365156538
 H    2.1738909204    1.1819353981   -1.2946455493
 H    2.8640091691   -0.1805311244   -0.3888283120
 H    3.8347762988    0.0563723095   -2.4803929989
 H    1.6629073588   -2.3801576908   -0.2709349687
 H    0.0366530633   -2.5555215195   -0.9306418643
 H    2.2846049257   -2.2765755613   -2.8013409194
 H    1.3985573913   -4.0776434376   -3.8726237926