22

 C    0.3873407138    1.3951766656   -0.7047461236
 C    0.0101813246    0.1644181294    0.1208332293
 C    0.8184388084   -1.0826075259   -0.3001679721
 C    0.1801094589    0.4146414684    1.6155451830
 O    0.7534202153    1.3853289073    2.0557162410
 C   -0.3918309113   -0.6321867487    2.5864208691
 N    0.6827014889   -1.5284756609    3.0077299807
 C    1.5401701649   -1.0323967920    4.0821006686
 C    0.5482555337   -2.1114094098    4.3417280026
 H    1.4380546462    1.6552728198   -0.5499123932
 H    0.2313000916    1.2027433564   -1.7706545451
 H   -0.2092400837    2.2655612436   -0.4188276019
 H   -1.0546489994   -0.0676253858   -0.0316777232
 H    1.8918340909   -0.8879369748   -0.2077799243
 H    0.5880338130   -1.9523699411    0.3191181774
 H    0.6071667676   -1.3289859382   -1.3451029635
 H   -0.8412315631   -0.0810988611    3.4296783507
 H   -1.1714837005   -1.2343742172    2.1080462603
 H    2.5954277792   -1.2687792836    3.9836055204
 H    1.3298528819   -0.0420046501    4.4770882181
 H   -0.3343644304   -1.8500673278    4.9229538259
 H    0.8653360495   -3.1458702434    4.4356751296