21

 C    1.3306492858   -1.0409677408    1.2417049622
 C    0.2912227309   -0.4166137729    0.3046311951
 C    0.6792128819   -0.4307821434   -1.1720097454
 C    1.9851752525    0.3312455278   -1.4802722712
 C    2.0022763562    1.7061520489   -0.9980741804
 C    2.0153490708    2.8369802960   -0.5908264160
 C    0.5907477374   -1.8042321134   -1.8900269621
 C   -0.5414883949   -1.1502770437   -2.7034378212
 O   -0.4121797078    0.0897324033   -1.9810280280
 H    1.5884779604   -2.0617891942    0.9368562659
 H    2.2536802270   -0.4539439836    1.2702814364
 H    0.9443205004   -1.0914800307    2.2637988959
 H   -0.6633580751   -0.9470908416    0.3964639048
 H    0.1011483849    0.6229383015    0.5922168079
 H    2.8266513163   -0.2245461953   -1.0468042421
 H    2.1316775322    0.3210218719   -2.5667110686
 H    2.0243207541    3.8394606974   -0.2412011473
 H    1.4762854281   -2.0936515772   -2.4594248310
 H    0.2894566089   -2.6361593967   -1.2509907237
 H   -0.3451759625   -1.0242491638   -3.7754151407
 H   -1.5365886975   -1.5939989596   -2.5797492903