23

 C   -0.0092770369    1.5441187964    0.1015289542
 C   -0.0388084561    0.0195783189   -0.0473365312
 C    0.7129232928   -0.4965429449   -1.2809253100
 C    2.2315266052   -0.1746602030   -1.2827558134
 C    2.9048071966   -1.2952982683   -2.1080411296
 C    1.9784153065   -2.4776864235   -1.9210815604
 O    1.5820365462   -2.6888285142   -0.5551235385
 C    0.6666181989   -2.0168244137   -1.4472744754
 C   -0.6316815666   -2.7276478824   -1.7169612916
 H    1.0127951082    1.9182527346    0.2182994243
 H   -0.4435495477    2.0358258614   -0.7766937127
 H   -0.5808294902    1.8654225935    0.9778180294
 H    0.3931451389   -0.4523428893    0.8440011783
 H   -1.0837811244   -0.3121333949   -0.0956922007
 H    0.2487147404   -0.0630723928   -2.1803306426
 H    2.4479407350    0.8202682157   -1.6785544133
 H    2.6030785781   -0.2063466303   -0.2547565421
 H    2.9432819221   -1.0427327112   -3.1753421445
 H    3.9301396718   -1.4995084478   -1.7836641818
 H    2.0994533712   -3.3835244444   -2.5119309209
 H   -1.3248741268   -2.6147534207   -0.8766270228
 H   -1.1195085788   -2.3204252428   -2.6093521745
 H   -0.4601584446   -3.7962244762   -1.8690019803