19

 C   -0.0252363145    1.6365942941   -0.0178188636
 C    0.0277242619    0.1074887372    0.0284779916
 C    0.6673934912   -0.4929467650   -1.2274797888
 C    0.7032046209   -2.0260334533   -1.1938468076
 O   -0.6220131586   -2.5026167760   -1.1780456337
 C   -0.7395514214   -3.8937418057   -0.9357698016
 C    1.4491935459   -2.5620588331   -2.3583477624
 N    2.0243088667   -2.9862758542   -3.2665288311
 H    0.9778341189    2.0684385632   -0.1057142737
 H   -0.6121806035    1.9863534581   -0.8740131790
 H   -0.4845006553    2.0425450312    0.8884011573
 H    0.5950348047   -0.2150396006    0.9118768934
 H   -0.9813999303   -0.3004933589    0.1418745604
 H    0.1137759592   -0.1870387728   -2.1222947475
 H    1.6941141071   -0.1281237497   -1.3459481232
 H    1.2391124920   -2.3602325850   -0.2885907037
 H   -0.2598995541   -4.4850207000   -1.7271564736
 H   -0.2951815007   -4.1702329701    0.0318877773
 H   -1.8072069502   -4.1198009692   -0.9168727505