17

 N    0.5556282179   -1.0265109742    0.4324134946
 C    0.2899407926    0.0748936334    0.2077405968
 C   -0.0168737723    1.4958812258   -0.0262178529
 C   -0.7250554526    2.1056337516    1.2244523663
 C    0.4177613165    2.3274089365    2.2368785098
 C    1.7219818783    2.4707229423    1.3978843735
 C    1.3026099494    2.3286716761   -0.0800396915
 C   -0.8174012144    1.6339606852   -1.2470340404
 N   -1.4485468673    1.7869930712   -2.2020438376
 H   -1.1693148306    3.0549291754    0.9119618421
 H   -1.5271507610    1.4648708986    1.5939252311
 H    0.2205052073    3.2071422337    2.8532216023
 H    0.4943752206    1.4734835281    2.9141976249
 H    2.2222169663    3.4268775678    1.5659157936
 H    2.4337493136    1.6863748811    1.6662542712
 H    2.0576893588    1.8592098058   -0.7124062053
 H    1.0529014969    3.2993935515   -0.5176664685