18

 C   -0.9309340754    1.5453279999   -0.9891643835
 C   -0.3990401745    0.6327618517    0.0983148105
 O    0.5524587055    0.9266082777    0.7834191584
 C   -1.1618715199   -0.6593821928    0.2655012448
 N   -0.5704522825   -1.7296365948    1.0656353945
 C   -1.7705630803   -1.0920057608    1.5843622404
 C   -1.7028439886   -0.2698063942    2.8571476035
 C   -0.3965642171   -0.2227942431    3.6073880839
 O   -2.7152973229    0.2783781066    3.2323725400
 H   -0.3678707159    2.4786143159   -0.9971288518
 H   -0.8485746757    1.0570607993   -1.9674862025
 H   -1.9947622705    1.7522118384   -0.8250329520
 H   -1.7583203824   -0.9359134816   -0.6026295552
 H   -0.7761189855   -2.6377587855    0.6587745267
 H   -2.7344583381   -1.5880655867    1.4800271465
 H    0.3946951017    0.1560210373    2.9554571799
 H   -0.5103649779    0.3999659476    4.4953553033
 H   -0.1033621400   -1.2392882247    3.8934402628