15

 C    0.0430548573    1.4568948780   -0.2443877685
 O    1.3766037140    1.8748373701    0.1089406125
 C    2.0259424729    0.9392983627    0.9985345942
 C    1.1229884648   -0.2629685676    1.0419399772
 O    0.1525864930   -0.5125392859    2.1112139302
 C   -0.4794134975   -1.1142335453    0.9496807429
 C    0.8681328044   -1.6148353417    0.3037111983
 O    0.6363081955   -0.9815300291   -0.9830152323
 C    0.0533197060   -0.0272331755   -0.0384081198
 H   -0.7027871436    1.9201693705    0.4159714732
 H   -0.1403269643    1.7676693944   -1.2754065256
 H    3.0175040994    0.7198125940    0.5923198930
 H    2.1348054820    1.3729370915    1.9998373548
 H   -1.4525372908   -1.5910870386    1.0655542802
 H    1.3747247768   -2.5795627276    0.3348638396