16

 O    0.0025844109   -0.1032225827   -0.0754661542
 C   -0.0310072197    1.1090811353   -0.0113574768
 C   -1.3478833878    1.8855760969    0.0603220803
 C   -1.1717169291    3.2555186422    0.6859425876
 O   -0.4507971276    3.1617400791    1.9606465462
 C    0.6100364375    3.9459982585    1.4322297208
 C    1.1868691101    3.2788433305    0.1986870616
 N    1.1148610538    1.8661701088   -0.0205755856
 C   -0.0557331261    4.1117178731    0.0807019175
 H   -1.7624354089    1.9806869479   -0.9511220316
 H   -2.0437420273    1.2694891462    0.6357187083
 H   -2.1161669918    3.7864166766    0.8351141425
 H    1.1300432716    4.6275382266    2.0955483376
 H    2.0869404088    3.7371368973   -0.1990433481
 H    1.9610349068    1.3226000755    0.0737802030
 H   -0.1753900510    4.9551362181   -0.5855138690