19

 C   -0.1341683980    1.5052347508   -0.0209905429
 C   -0.0042640474    0.0134749875   -0.0297084948
 C    0.8785223118   -0.8333371940   -0.9891791883
 C    1.1335681944   -2.1366775608   -0.2541424179
 C    0.9315236367   -1.9523418365    1.2402789558
 C   -0.1618040907   -0.9023207825    1.1928189976
 C   -1.0397878775   -1.0804362912   -0.0359821579
 O   -2.4120166598   -0.9499981238   -0.0716323937
 C   -0.1680470728   -1.9299048194   -1.0059904918
 H    0.7909001613    1.9867253622    0.3186502567
 H   -0.3628273731    1.8918450637   -1.0207480541
 H   -0.9415557850    1.8214142707    0.6466092463
 H    1.4839532855   -0.4536111757   -1.8015433889
 H    1.8676146671   -2.8316635867   -0.6467801252
 H    0.6072574584   -2.8754065510    1.7361243033
 H    1.8401338545   -1.5951583295    1.7387834850
 H   -0.6109113218   -0.4804537743    2.0850645991
 H   -2.7998252271   -1.6710992619    0.4376567016
 H   -0.5198294867   -2.5312244876   -1.8332353300