16

 C   -0.1083811689    1.4219715036   -0.1646672463
 C   -0.0136615589   -0.0839541681   -0.0589282788
 O    0.9993038548   -0.6944794941   -0.3217320363
 C   -1.2678287113   -0.8107617565    0.4086955179
 N   -1.0493401427   -2.2354429620    0.4310171938
 C   -2.0600088107   -3.0742047335    0.0063555105
 N   -1.6536158735   -4.3872964970   -0.1794101326
 O   -3.1992202001   -2.6976835274   -0.2027194289
 H    0.8718281680    1.8407261597   -0.3940171748
 H   -0.8148939859    1.6929246970   -0.9576560266
 H   -0.4927985786    1.8541897951    0.7650929958
 H   -1.5352777527   -0.4164888181    1.4013836821
 H   -2.1150161204   -0.5696291543   -0.2455051303
 H   -0.0928463929   -2.4862987966    0.2117379232
 H   -0.8873625759   -4.7249308848    0.3830874813
 H   -2.4274589105   -5.0290883431   -0.2568870100