15

 C   -0.2013863712    1.4892136988    0.0920338873
 C   -0.0076212456   -0.0190315722   -0.0016608347
 C    1.2172909040   -0.4512113202   -0.8782076593
 C    2.0009391004   -0.5204815065    0.4377609053
 O    3.1199838124   -0.2398699567    0.7685819224
 C    0.7187435031   -0.6349937234    1.2606067318
 O    0.6767312895   -0.0044163676    2.5036033970
 H    0.7458832137    2.0040631316    0.2896235152
 H   -0.6075789824    1.8890165507   -0.8420558718
 H   -0.8869284803    1.7410047001    0.9056203780
 H   -0.9448993907   -0.5197496866   -0.2510178734
 H    1.0889736514   -1.4338819657   -1.3407344795
 H    1.5923168668    0.2537776800   -1.6228584773
 H    0.4169482155   -1.6861029878    1.3665456187
 H    1.5241897237    0.4419741954    2.6243409003