17

 C   -0.0324554042    1.3769852158   -0.2758947469
 C    1.4913639073    1.5085098471    0.0021751887
 C    1.3899735152    0.2422717659    0.8982832239
 C    0.0763711336   -0.1067649142    0.1553485071
 O    0.2496041864   -1.0139953164   -0.9312488534
 C    1.2026822263   -0.7989105223   -1.8779831480
 N    2.0700409431    0.0975336675   -2.0624056044
 C    2.3331530591    1.2685499187   -1.2494832040
 H   -0.6369388177    1.9451122630    0.4359115517
 H   -0.3920508745    1.5728157179   -1.2891942456
 H    1.8240304591    2.4297119295    0.4894154752
 H    2.1972422248   -0.4927406405    0.8481992172
 H    1.1911533994    0.4867898128    1.9449532466
 H   -0.7430352899   -0.5344063312    0.7347312840
 H    1.1374983153   -1.6199446639   -2.5924691973
 H    2.2452798924    2.1411499803   -1.9124511942
 H    3.3939943345    1.2247814798   -0.9642128106