19

 C    0.5727539615    1.4881292161   -0.2430370818
 C    0.0398883109    0.0886521693    0.0391920348
 C    0.6645864001   -1.0478831532   -0.8291351486
 N    1.3554258164   -1.5941023679    0.3714902465
 C    0.6268484463   -0.6716051657    1.2772308340
 C    1.7042771163   -0.0571088844    2.2061470534
 N    2.9212885347   -0.5972242930    1.6306601442
 C    2.7360985861   -1.3349423898    0.4800723637
 O    3.5921512432   -1.6882072933   -0.2988581213
 H    1.6677869376    1.5141187295   -0.2406112154
 H    0.2390485343    1.8292636014   -1.2285490650
 H    0.2147283580    2.2125025545    0.4963428469
 H   -1.0535952872    0.0996499207    0.0306823759
 H   -0.0581984261   -1.7569437705   -1.2413238880
 H    1.3566513273   -0.7414942573   -1.6186956489
 H   -0.1467372790   -1.1820642732    1.8571818740
 H    1.6889790216    1.0402092966    2.1983078052
 H    1.5625471483   -0.3850734517    3.2425391684
 H    3.8457440297   -0.2887740882    1.8767504221