17

 C   -0.0197805863    1.6045490241    0.0242102630
 C    1.5166964111    1.6186215408   -0.0046722621
 O    1.7898070248    0.9757045706    1.2538321539
 C    1.1360393630   -0.2783564906    1.0554241213
 O    2.0643254303   -1.1809106876    0.5135921753
 C    2.7886994828   -0.5177662297   -0.5362506174
 C    1.8512413616    0.5486133165   -1.1150290956
 O    0.6019642234   -0.1482147584   -1.2901719496
 C    0.0071128066    0.0670469048   -0.0075529166
 H   -0.3930037459    2.0629383379    0.9408589169
 H   -0.5251186153    2.0055719713   -0.8556704968
 H    2.0564108690    2.5621823622   -0.0600465474
 H    0.7863098610   -0.6810621949    2.0061081808
 H    3.7185429675   -0.0828752593   -0.1488981267
 H    3.0268139201   -1.2731521669   -1.2892091786
 H    2.1856383697    0.9627656070   -2.0678435615
 H   -0.9176911634   -0.5010897378    0.0736872911