19

 C   -0.4302654714    1.3681937545   -0.1960135311
 C   -0.4023188292   -0.0445989302    0.3789441047
 C   -1.0263859625   -1.0870638527   -0.5264686106
 O   -1.4323266533   -0.8493906155   -1.6404519257
 C   -1.1852445503   -2.4895098427    0.0810398160
 C   -2.5746638262   -2.5480375784    0.7293575555
 O   -2.7741008352   -2.1471224929    1.8472501660
 C   -3.6625584890   -3.0879921417   -0.1832374187
 O   -4.9132205007   -2.9707883223    0.4366579541
 H    0.0507589608    2.0724833805    0.4879992924
 H    0.0875146340    1.4084241699   -1.1576034598
 H   -1.4579830526    1.7000724530   -0.3651938185
 H    0.6263919728   -0.3715606872    0.5893922808
 H   -0.9205551232   -0.1100290578    1.3458469764
 H   -1.0937829990   -3.2224278842   -0.7238545195
 H   -0.4392823858   -2.6726060650    0.8567426836
 H   -3.5851537061   -2.5278274522   -1.1314338483
 H   -3.3951450418   -4.1342462026   -0.4199826951
 H   -5.5848626413   -3.2549716824   -0.1899526923