14

 C    0.0032847476    1.5435561078   -0.0282620432
 C    0.0054432327    0.0131699190    0.0530789980
 O    0.6606997479   -0.4483899129    1.2277665701
 C   -1.3829798106   -0.5526926886   -0.0353526680
 C   -2.0024537052   -1.3601012493   -0.9330242170
 O   -3.2520350826   -1.5874716426   -0.5307132758
 N   -3.4089261353   -0.8791515639    0.6979140033
 N   -2.3220453458   -0.3002346647    0.9466188823
 H    1.0249430063    1.9165830264    0.0785894485
 H   -0.4022588089    1.8875578988   -0.9849578549
 H   -0.6125144478    1.9671035413    0.7717621869
 H    0.5922731243   -0.3928179531   -0.7777107304
 H    0.1194605988   -0.1849874215    1.9815288630
 H   -1.6892627914   -1.8238797068   -1.8538792429