23

 C   -0.3266222505    1.5854807145   -0.1178781846
 C   -0.0215541059    0.0798503009   -0.0148665501
 C    0.8162888361   -0.1800277232    1.2496893607
 C   -1.3538294992   -0.7122834071    0.1004130952
 O   -2.1314488236   -0.3562055838    1.2349896401
 C    0.6983727667   -0.4206436518   -1.2844959932
 C    0.0618797979   -0.1106841944   -2.6294536919
 C    2.1446610241   -0.7033702787   -1.2943309688
 O    1.1987350214   -1.7706333157   -1.1929895108
 H    0.5937934042    2.1711938996   -0.2139971188
 H   -0.9669911346    1.8156403877   -0.9742205280
 H   -0.8537257038    1.9143615868    0.7811964451
 H    0.2238510252    0.0461403716    2.1409579322
 H    1.1447859272   -1.2220896056    1.2990962678
 H    1.6976958222    0.4663497565    1.2884526666
 H   -1.9909635355   -0.4956373467   -0.7620560206
 H   -1.1328439554   -1.7881879162    0.0883790776
 H   -1.7709952019   -0.8130316685    1.9996933117
 H    0.1056717820    0.9589415415   -2.8543733437
 H    0.5977046450   -0.6493350819   -3.4145307938
 H   -0.9862185283   -0.4195954124   -2.6707772911
 H    2.6837348914   -0.6501973822   -2.2402424405
 H    2.7576578253   -0.5383221112   -0.4126619112