15

 C    0.0370562771    1.5109619833   -0.0375518364
 O    1.4036242916    1.8895782968   -0.2610149513
 C    2.3408255641    1.6176108597    0.6900312219
 N    2.3380283501    0.9414675940    1.7549943761
 C    1.2065586357    0.1676563091    2.2618840111
 C    0.4763038697   -0.6620664406    1.2126625368
 O   -0.9435025213   -0.4910638696    1.0998733764
 C   -0.1136856522    0.0091327598    0.0493916372
 H   -0.3427818300    1.9757631719    0.8766928764
 H   -0.5092410264    1.9271596484   -0.8867210648
 H    3.2595458802    2.1242144619    0.3926648419
 H    1.5988508660   -0.4988608358    3.0363981492
 H    0.4835791026    0.8211107343    2.7627770317
 H    0.8062373783   -1.6933876076    1.0958228760
 H   -0.1923863455   -0.5298984356   -0.8936204621