17

 C    0.1710049372    1.6676259458   -0.0314426226
 C   -0.0906566598    0.1503736468   -0.0097773245
 C    0.5281206716   -0.5796871282   -1.1956717497
 O   -0.0814139465   -0.0630989043   -2.3807323710
 C    0.3767165820   -0.5537912618   -3.5486005959
 N   -0.1177356508   -0.1520306398   -4.6377884310
 C    0.3849561975   -0.4445327817    1.2985300751
 O    1.1588618367   -1.3634006410    1.3965558049
 H    1.2447705627    1.8799480972    0.0089563265
 H   -0.2297451210    2.0994641930   -0.9500885514
 H   -0.3051661049    2.1617920998    0.8208868848
 H   -1.1807095853   -0.0006164538   -0.0403090774
 H    1.6130677910   -0.4154447525   -1.2199561786
 H    0.3537220905   -1.6584233524   -1.1136825818
 H    1.1794046440   -1.2948526596   -3.4290903945
 H    0.3386983953   -0.6186240566   -5.4187703226
 H   -0.0376639601    0.0489365991    2.2036154598