16

 O    0.1558846064    1.4914798089    0.0952543212
 C    0.0421278304    0.1071855168    0.0373054212
 C    0.0533232516   -0.6571581457    1.3746334648
 C   -1.0035732390    0.0649535845    2.2289619213
 C   -2.1318152023    0.1417169068    1.1539918274
 C   -1.3693240579   -0.5851234972    0.0215254088
 O   -0.7336167241   -1.7005840257    0.7083961044
 C   -2.0645158898   -0.9157401759   -1.2027305243
 N   -2.6096594502   -1.1282917182   -2.1996215562
 H    0.2580383014    1.8392024539   -0.7961537476
 H    0.6979566973   -0.3655776031   -0.6987869157
 H    0.9666187729   -1.0234082316    1.8392708825
 H   -1.2858039336   -0.5361291032    3.0945494899
 H   -0.6668338400    1.0481617898    2.5621271356
 H   -3.0343586638   -0.4044230265    1.4299039193
 H   -2.3918874194    1.1637759565    0.8746207275