19

 C   -0.2993938052    1.5314099800    0.1167981512
 C    0.0760382061    0.0508085591    0.0503958711
 C   -1.1330487849   -0.8588855659    0.1804397526
 O   -2.2687413696   -0.4833114424    0.3225235801
 C    0.8271588795   -0.3215155963   -1.2222789367
 C    2.2869726849    0.0119819666   -1.4948571890
 C    3.1232899783   -0.2316534048   -0.2444839196
 O    2.5634721095   -1.5639192987   -0.0788352520
 C    1.8415435036   -1.4226408223   -1.3063964219
 H    0.5954074062    2.1580865025    0.0659211493
 H   -0.9575646466    1.8042338060   -0.7135095195
 H   -0.8342542236    1.7567790305    1.0426201866
 H    0.7231210166   -0.2203317586    0.8971321892
 H   -0.8896395819   -1.9447919230    0.1274165291
 H    0.2341181552   -0.2357668628   -2.1322244238
 H    2.6111823624    0.5410512555   -2.3804086573
 H    4.1973260233   -0.2951703007   -0.4490463838
 H    2.9515364194    0.4075497926    0.6296777460
 H    1.8017743369   -2.2800099974   -1.9686681818