20

 O   -0.2232028736    1.5439658646   -0.1766155903
 C    0.0552544302    0.1565679576   -0.0121310952
 C   -1.2933265291   -0.5178821076    0.3127401991
 C   -1.2937625106   -2.0488039264    0.1437277307
 C   -0.0389777202   -2.7349395591    0.6542291805
 N    0.4969822405   -3.8063666370   -0.2091838119
 C    1.2508510891   -2.5403988789   -0.0651464322
 C    1.3060923604   -1.6358912578   -1.2502924985
 C    0.7514346715   -0.4239106342   -1.2296819501
 H    0.6170969931    2.0067132872   -0.2545606585
 H    0.7157008259    0.0156055549    0.8571052869
 H   -1.5675310556   -0.2324913874    1.3343741584
 H   -2.0521150030   -0.0810250300   -0.3452380293
 H   -2.1762924036   -2.4712257953    0.6376882686
 H   -1.3827767531   -2.2994161721   -0.9158614672
 H    0.0225168682   -2.8842331473    1.7311818894
 H    0.9366525203   -4.5266773740    0.3585703866
 H    2.1639106520   -2.5909284420    0.5294854367
 H    1.8020677653   -2.0072903077   -2.1438807805
 H    0.7693461423    0.2148345226   -2.1101833531