23

 C   -0.0018283037    1.4811674004    0.0216913465
 C   -0.0068561633   -0.0386304749    0.0026327957
 C    0.6354320536   -0.6627311297   -1.2680241193
 C    0.0891800197   -2.1214362869   -1.2808816848
 C   -0.7956949202   -2.1715665332   -0.0116263078
 O   -1.7804934508   -3.1800182952   -0.0086832979
 C    0.1289673315   -2.1529517383    1.2298099640
 C    0.6751561220   -0.6941837622    1.2362214323
 C   -1.3791395149   -0.7490753805    0.0154801039
 H    1.0224347424    1.8726715131    0.0109203560
 H   -0.5212820421    1.8927788926   -0.8508317094
 H   -0.4941204394    1.8704498538    0.9198354499
 H    0.3161946962   -0.1166403257   -2.1617028995
 H    1.7283820270   -0.6138689106   -1.2353680284
 H   -0.5319165711   -2.3148288585   -2.1603924276
 H    0.8811533780   -2.8779675889   -1.2611294950
 H   -1.3336335877   -4.0328453093   -0.0262640731
 H   -0.4640372904   -2.3685579287    2.1234335171
 H    0.9195955683   -2.9084584639    1.1660194246
 H    1.7665385143   -0.6441063865    1.1701085502
 H    0.3846915056   -0.1708003992    2.1530032914
 H   -1.9653420407   -0.5509719844    0.9184237715
 H   -1.9936190944   -0.5286195231   -0.8631550502