17

 O   -0.1246217345    1.3250586047    0.0851397116
 N    0.0185580893   -0.0732323279   -0.0138383507
 C   -1.1079147115   -0.6494351303   -0.0460663079
 C   -2.5541826919   -0.2606349131    0.0626711202
 N   -3.2529348194   -0.9194673958   -1.0934160616
 C   -2.9248043029   -1.7146944073    0.1064827966
 C   -1.4582735354   -2.1123353979   -0.0298867750
 C   -0.8388412049   -3.2496518640   -0.7862412724
 C   -0.7220027517   -3.1921220904    0.7165656052
 H    0.7919551936    1.6198058755    0.1030791451
 H   -2.9823547332    0.5964983477    0.5620476013
 H   -4.2333031990   -0.6429882332   -1.0123443986
 H   -3.6852979593   -2.2051884900    0.7004971991
 H   -1.5056266109   -3.9838886937   -1.2252770872
 H    0.0433444403   -3.0249554189   -1.3753666422
 H    0.2347897972   -2.9243869371    1.1509788052
 H   -1.3110755058   -3.8882730783    1.3050228013