18

 C    0.0837147709    1.4768315571   -0.1454092160
 C    0.0149076817   -0.0098702492    0.0881325699
 O    1.2671212269   -0.7343780265    0.0287901306
 C    0.5788094156   -0.6691759232    1.2625745852
 C    1.0674255163   -0.0842430090    2.5629068806
 C    0.1014849368   -0.9314881180    3.3160802991
 C    0.0604476455   -1.8773152735    2.0519018071
 C    1.3751533558   -2.4532003454    2.6048611745
 N    1.5529511478   -1.2110029407    3.4405935306
 H    0.9197562517    1.9219617053    0.3994142735
 H    0.2179699601    1.6898479455   -1.2109322591
 H   -0.8445579749    1.9595501954    0.1790554719
 H   -0.8010253213   -0.5216303742   -0.4264158673
 H    1.4492507315    0.9019309462    2.7876564646
 H   -0.5713646281   -0.7170527521    4.1345368888
 H   -0.7609470383   -2.4871638603    1.6822709600
 H    1.2358234093   -3.2983442200    3.2825333514
 H    2.1803506827   -2.6606073575    1.8921415346