22

 C    0.3575955270    1.5625632286    0.1257129027
 C    0.1362295155    0.0540469564   -0.0349747019
 C    0.6276044879   -0.4996152322   -1.3779996372
 C   -0.1003668919    0.0985266473   -2.5739427801
 O    2.0704182984   -0.2945700493   -1.5018324202
 C    2.3355216971   -1.6997213217   -1.3403950729
 C    0.8383364112   -2.0496195710   -1.4389997310
 C    0.2267630782   -2.9839972634   -0.4053807281
 H    1.4017200515    1.8121712898   -0.0829941709
 H   -0.2744076184    2.1474221562   -0.5491065332
 H    0.1276891060    1.8794716156    1.1473663655
 H    0.6715453133   -0.4633022576    0.7685208389
 H   -0.9263166621   -0.1924139333    0.0886151973
 H    0.0270246275    1.1838670538   -2.6129542308
 H    0.2934276673   -0.3182699773   -3.5050283538
 H   -1.1735130913   -0.1185574720   -2.5221697028
 H    2.9947942723   -2.0884013118   -2.1252860426
 H    2.7856920918   -1.9236088760   -0.3618652716
 H    0.5889506288   -2.4109715309   -2.4414990050
 H    0.4784170309   -2.6925382321    0.6184817649
 H   -0.8650600379   -3.0147160808   -0.4881253463
 H    0.5934893469   -4.0055898781   -0.5547491207