12

 O    0.0211291104    1.3617719347    0.3285169477
 C   -0.0598231110    0.0378495024    0.1231522079
 C   -1.1546416642   -0.5993876205   -0.2749728583
 O   -1.1929138742   -1.9797261740   -0.3751043548
 C   -0.0875652392   -2.7308525606   -0.1527075477
 O   -0.1294843166   -3.9192620281   -0.2501401200
 C    1.1846135350   -1.9858795436    0.2232536114
 N    2.2601562886   -2.6175717537    0.3815670646
 O    1.1092736981   -0.6173074247    0.4005996655
 H    0.9453713493    1.6288061512    0.2481756016
 H   -2.0856053640   -0.1180536718   -0.5220252041
 H    3.0222966778   -1.9859641114    0.6353494961