25

 C   -0.3737758372    1.3047354938   -0.1846298004
 O   -0.1824871705   -0.0829511066   -0.0688093639
 C    0.5065959921   -0.6397624185   -1.1711112311
 C    0.6665884429   -2.1415402094   -0.9430406693
 C    1.4964113366   -2.4094793112    0.3089658218
 C   -0.7098425069   -2.8708977144   -1.0517224551
 C   -0.3888609027   -3.2226646744   -2.5279644348
 C    1.1050435714   -2.9046279845   -2.2461942836
 C    1.9477735112   -2.2291958219   -3.3209150501
 H    0.5834125186    1.8477335923   -0.2425429768
 H   -0.9657495573    1.5641703418   -1.0773357382
 H   -0.9142051084    1.6380365905    0.7050064958
 H   -0.0550544088   -0.4394865586   -2.0990071602
 H    1.4948224125   -0.1599660080   -1.2812291805
 H    1.0431507619   -1.9371929450    1.1849518357
 H    1.5793640714   -3.4845278772    0.4999488643
 H    2.5127053248   -2.0095734250    0.2022781652
 H   -0.7457938625   -3.7594150462   -0.4149959249
 H   -1.5947400505   -2.2638151693   -0.8501501685
 H   -0.6290077006   -4.2315536109   -2.8727675906
 H   -0.8329580378   -2.5099716982   -3.2301853210
 H    1.6105626108   -3.8251243095   -1.9301860280
 H    1.4790713092   -1.3140328305   -3.6975839918
 H    2.9445474903   -1.9667807083   -2.9485846830
 H    2.0846591796   -2.8998348209   -4.1768286712