21

 C   -0.1912703292    1.5528600164    0.1445450825
 C   -0.1062244118    0.0387853993    0.0100185763
 C    0.7469409556   -0.5194982928   -1.1738687081
 C    1.0204664780    0.3188118891   -2.4095186356
 N    1.8799022948   -0.6795473150   -0.2355487085
 C    2.7776284199   -1.8055932606   -0.3781660541
 C    0.9653027229   -0.6568560075    0.9149167830
 C    1.4589630313    0.0362294685    2.1052593465
 N    1.8348483462    0.5863050894    3.0499046156
 H    0.7973352007    2.0175988062    0.1011048071
 H   -0.8059286806    1.9769630912   -0.6555658227
 H   -0.6465564881    1.8292431331    1.1003224548
 H   -1.0979190299   -0.4086001749    0.0977045202
 H    0.3425000324   -1.5017444829   -1.4791329239
 H    1.4048032937    1.3061547156   -2.1435206660
 H    1.7626074370   -0.1722590771   -3.0481565045
 H    0.1077965795    0.4433868217   -3.0020489209
 H    3.3307345756   -1.7179117462   -1.3182678580
 H    3.5057375989   -1.8042200505    0.4391394696
 H    2.2526294154   -2.7792872384   -0.3749366551
 H    0.6266889979   -1.6617737245    1.2206887218