19

 C   -0.0999497170    1.3889735867    0.0525788908
 O    0.3215074296    0.0642679030   -0.1925278583
 C    0.8073519663   -0.5792092597    0.9597097147
 C   -0.1726511820   -1.1829195268    2.0063798221
 N    0.4787561895   -2.5367642173    1.8945363528
 C    0.2945146404   -2.9980622915    0.5034151374
 C   -0.9643455309   -2.8231187466   -0.3175163449
 C    1.3439755601   -1.9837409837    0.7504436144
 H    0.7214825253    2.0074182421    0.4469986630
 H   -0.4315165309    1.8070314567   -0.9005841969
 H   -0.9354720530    1.4307549613    0.7673499544
 H    1.5538413775    0.0589354723    1.4547799944
 H   -0.0419838344   -0.7933811658    3.0176394148
 H   -1.2352785448   -1.1673956429    1.7488183559
 H    0.7108341010   -4.0016363424    0.4218318595
 H   -1.2618716690   -1.7808499891   -0.4228326452
 H   -0.7912341150   -3.2154702980   -1.3249297537
 H   -1.7903340751   -3.3937053321    0.1223844770
 H    2.4006446824   -2.2204829061    0.6721576377