21

 C   -0.9823834764    1.0232430732    0.0619971357
 C    0.0939525913   -0.0649751252   -0.0989169344
 C    1.0434031319    0.2571191990   -1.2265150441
 C    2.3441034990   -0.0291601684   -1.2295726126
 C    3.0558896579   -0.7166375049   -0.0957759587
 C    2.2817893757   -0.6723721300    1.2087452281
 C    1.8047856316    0.6586936555    1.7647615597
 C    0.8197355817   -0.3437932954    1.2128982952
 O    0.0631827581   -1.0774901611    2.1445712994
 H   -0.5332509407    1.9840306735    0.3340737206
 H   -1.5397516754    1.1622393662   -0.8699695394
 H   -1.7077993231    0.7533842089    0.8370729243
 H   -0.4248467179   -1.0024010380   -0.3520725973
 H    0.6002506749    0.7393185529   -2.0956913656
 H    2.9443219756    0.2215815231   -2.1008691497
 H    3.2396380863   -1.7650282625   -0.3741404736
 H    4.0523592626   -0.2742145049    0.0418053467
 H    2.5791148454   -1.4021508854    1.9549621681
 H    1.8286886016    0.7860234237    2.8412494076
 H    2.0114331040    1.5535816872    1.1864554742
 H   -0.5964188842   -0.4856208675    2.5221124461