18

 C   -0.0743799328    1.4846586723   -0.0088946307
 C    0.0387800795   -0.0194830169    0.0275068846
 C   -0.7881830424   -0.8189384665    0.9996961066
 C    0.7236956398   -0.7828448685    1.1519903807
 C    1.4393798817   -1.9166183818    0.5043878370
 C    1.2600754325   -1.9349821929   -0.8163174020
 C    0.4399818117   -0.7359901243   -1.2828358893
 C   -0.7101027632   -1.1088416595   -2.1112425051
 N   -1.6190285564   -1.4031765469   -2.7621838176
 H    0.8497898221    1.9467454415   -0.3748900123
 H   -0.8921357500    1.8030824498   -0.6655984106
 H   -0.2762261234    1.8863266255    0.9884929288
 H   -1.3769189864   -0.2468039881    1.7095088435
 H   -1.2428784359   -1.7499817501    0.6782918903
 H    1.1570647275   -0.2721766911    2.0050464212
 H    2.0072210129   -2.6513254682    1.0636752605
 H    1.6160877737   -2.6863460885   -1.5093736673
 H    1.0647353392   -0.0656500957   -1.8917663083