15

 O   -0.5139720415    0.5407485087   -0.6130959813
 C    0.2364363187    0.8972882876    0.2542036218
 C    1.2858197737    1.9912369693    0.0776760847
 C    1.2227451053    2.8259365731   -1.1763093597
 C   -0.0107351398    3.6859227114   -1.3746455290
 C    1.1959111171    4.2529580764   -0.6949752494
 O    1.1629695378    4.2711606011    0.7240376828
 C    1.1897023505    3.0097376520    1.2319418839
 O    1.1166145487    2.7716232910    2.4007138861
 H    0.2290896111    0.4500448594    1.2696453954
 H    2.2597042093    1.4937293371    0.1912356016
 H    1.8033701099    2.5312205905   -2.0400503295
 H   -0.2163271685    4.0147989755   -2.3868383873
 H   -0.8918853893    3.4920394713   -0.7729976645
 H    1.7894891972    5.0606805055   -1.1013731056