16

 O   -0.1261777281    1.3938807788    0.1016600394
 C    0.0358357455    0.0273991810    0.0386647521
 C   -0.0294772544   -0.8210826533   -1.2175248060
 C    1.0351889904   -1.9012351830   -1.2039828015
 C    1.1048522874   -2.1353276092    0.2955814761
 C   -0.2550677755   -1.9144774187    0.9357124567
 C    0.8210324146   -0.8543004647    1.0572257642
 C   -1.0282936957   -1.0287037859   -0.0725362200
 H    0.6345877733    1.8087485368   -0.3213811883
 H   -0.3898537822   -0.3596843284   -2.1294673693
 H    0.7312832384   -2.8018336314   -1.7497262086
 H    1.9895685465   -1.5531137611   -1.6171934467
 H    1.7783367584   -2.8687925162    0.7245461183
 H   -0.6834176359   -2.5460625561    1.7014973258
 H    1.3541973451   -0.5096644004    1.9327115943
 H   -2.0995695878   -0.9368960283   -0.1816895067