21

 C   -0.0686239298    1.1710056873    0.5825264365
 C   -0.1776958616   -0.1925173321   -0.0780258476
 O    0.9103545948   -0.3461147286   -0.9737800009
 C    0.9351243701   -1.5812415226   -1.6293409697
 C   -0.0306940811   -1.8087900236   -2.8286329625
 C    1.1749354484   -2.3709268332   -3.6568370644
 C    2.1322015389   -1.7526203384   -2.5825465303
 C    1.2132291473   -3.8735029277   -3.6809119229
 O    1.3290259304   -4.5475460391   -4.6721597213
 H    0.8751150504    1.2578534664    1.1282487983
 H   -0.1038197682    1.9651292110   -0.1686149316
 H   -0.8931220368    1.3211023523    1.2857348420
 H   -0.1564100937   -0.9944691701    0.6789408480
 H   -1.1340380102   -0.2836036873   -0.6177481853
 H    0.8640503173   -2.4039412712   -0.9000589240
 H   -0.8913982343   -2.4666435004   -2.6839392467
 H   -0.3703447445   -0.8553770934   -3.2402986686
 H    1.2809463154   -2.0021201333   -4.6775666304
 H    2.5017332590   -0.7774266284   -2.9063338792
 H    2.9739722047   -2.3588674924   -2.2397447707
 H    1.1226162633   -4.3521259752   -2.6748244787