22

 C   -0.0820093517    1.6464220024    0.0122730015
 C    0.0145501908    0.1107242889    0.0752981051
 C    0.3957802417   -0.4473731063   -1.2803223700
 O    1.2504932180   -1.2710767294   -1.4913555951
 C    0.8882933179   -0.4381389544    1.2209810962
 C    2.3149441130    0.1143515896    1.2292995997
 N    0.2331796858   -0.1142665758    2.4936822270
 C   -0.7880809855   -1.0486119449    2.9578984121
 C    0.5436786997   -0.9853397905    3.6201223933
 H    0.8766612979    2.1029055106   -0.2504864173
 H   -0.8171448492    1.9600478387   -0.7357051130
 H   -0.3900844884    2.0325437507    0.9857805354
 H   -1.0107099177   -0.2613539869    0.2411282125
 H   -0.2081827822   -0.0301438449   -2.1209744397
 H    0.9496681954   -1.5316568538    1.0818988835
 H    2.8957320012   -0.3571087943    2.0276952090
 H    2.8116557396   -0.0966685694    0.2798964393
 H    2.3204477200    1.1927764457    1.4091031477
 H   -1.6626900746   -0.6061968011    3.4262286929
 H   -0.9928030396   -1.9276959884    2.3476908164
 H    1.2192058354   -1.8221482807    3.4474787387
 H    0.6628849226   -0.4962322759    4.5827021247