21

 O   -0.0841749365    0.1663162046    0.8861243844
 C    0.1775215781    0.8107567573   -0.1025288058
 C    1.2332619559    1.8581529385   -0.1831858319
 C    1.3020319537    2.6450739516   -1.4824513374
 C    0.1232329701    3.5755348406   -1.7023850311
 C    0.1573922764    5.0005957249   -1.2090610580
 C    0.2237299995    4.7097327207   -2.6889984669
 C    1.6098505092    2.5117968948    1.1383364208
 C    2.5255885874    1.4934705366    0.5528052592
 H   -0.3711896177    0.6316431735   -1.0559100593
 H    2.2294318751    3.2298483701   -1.5024559487
 H    1.3726473469    1.9395678431   -2.3228756646
 H   -0.8476093368    3.0880241613   -1.6500027020
 H   -0.7519032599    5.4331315100   -0.8069524643
 H    1.0635358884    5.3501199204   -0.7248672546
 H    1.1743968922    4.8596201289   -3.1910948190
 H   -0.6403959992    4.9422439725   -3.3012844540
 H    1.8981016381    3.5559307677    1.1004683067
 H    1.0169222105    2.2182796993    1.9969662785
 H    2.5530684247    0.5133508924    1.0148863786
 H    3.4525289641    1.8206528412    0.0942838194