18

 C    0.0400622511    1.5033329031    0.1178744712
 C    0.0402371608    0.0489823064    0.0477015210
 C    0.0497622332   -1.1527204541   -0.0158338123
 C    0.0335984070   -2.6197935526   -0.0792555183
 C   -1.4128603717   -3.1675877486    0.0165097284
 C    0.7102218841   -3.1182933680   -1.2835249291
 C    1.2483329455   -3.5464036043   -2.2711356783
 C    1.9073390639   -4.0538696459   -3.4662294553
 H    0.5817767264    1.8604248668    1.0007897453
 H    0.5189757900    1.9426791986   -0.7642026487
 H   -0.9797471504    1.9002119413    0.1725573441
 H    0.5837153563   -2.9988454509    0.7950775958
 H   -2.0057261152   -2.8193550098   -0.8323188419
 H   -1.4003277337   -4.2605751184    0.0099266071
 H   -1.8844822409   -2.8197007736    0.9392064033
 H    2.7797493401   -4.6658922354   -3.2115983192
 H    1.2298404526   -4.6753755342   -4.0622504597
 H    2.2533792085   -3.2345648734   -4.1061039289