18

 C    0.3780147701    1.5229379259   -0.1824342798
 O    0.1013844861    0.1261549983   -0.1009906438
 C    0.7295278455   -0.5598120464    0.8779479997
 C    0.2993467238   -2.0060216028    0.7921511396
 O    0.6326494810   -2.8551717016    1.5770980405
 N    1.5268977346   -0.0105775506    1.6912279972
 C    2.2248121529   -0.7381000601    2.7451727102
 C    3.3235695541    0.1738227034    3.2918193961
 O    2.7981181133    1.4081980608    3.7337606613
 H    1.4479441558    1.6970752586   -0.3292401489
 H   -0.1922700890    1.8896851990   -1.0361072996
 H    0.0650268050    2.0327988491    0.7337608115
 H   -0.3652817009   -2.2168060909   -0.0701363471
 H    1.5188597226   -0.9761683207    3.5511077369
 H    2.6427768616   -1.6879883523    2.3945995063
 H    3.8068230992   -0.3011064282    4.1519987261
 H    4.0916757719    0.3198966007    2.5140623466
 H    2.2308744023    1.7108524777    3.0130557271