16

 C    0.1004343395    1.5052838728   -0.8009284030
 C    0.1528856410    0.0388997756   -0.4382769418
 C    0.8740792636   -1.0064124481   -1.2866339978
 C    1.5715727503   -0.6152853211   -2.5350788827
 O    2.2463119800    0.3767340850   -2.7124130537
 N    1.3227705767   -0.6291404223    0.0652768452
 C    2.5818238775    0.0841525360    0.2696387598
 H    0.1008035333    2.1150253053    0.1095045818
 H    0.9383453929    1.8090884959   -1.4282485017
 H   -0.8286194507    1.7186013034   -1.3388751714
 H   -0.7672356274   -0.3324865332    0.0149327434
 H    0.4375207960   -2.0023795423   -1.3398303431
 H    1.4273844652   -1.3488569948   -3.3600649788
 H    2.8540028662    0.7843365160   -0.5248755962
 H    2.5095408488    0.6204175737    1.2209879197
 H    3.3803906971   -0.6578824022    0.3627585803