19

 N    0.0213544234    1.5334566499    0.0230971543
 C    0.0390306335    0.0598055568   -0.0213130928
 C   -1.3274764391   -0.4331684117    0.2315719500
 N   -2.3978566308   -0.8374990081    0.3917409393
 C    0.5876906466   -0.5481317224   -1.2938388769
 C    1.6956283160   -1.2861206801   -1.3831239729
 C    1.9690690327   -1.7459964727   -2.7932882509
 C    0.9926119575   -0.8846063871   -3.6372450136
 C   -0.0877072928   -0.3893035530   -2.6420862879
 H    0.9551477550    1.8666539714   -0.2011502850
 H   -0.5961546266    1.8918338289   -0.7001314408
 H    0.6595474470   -0.2789734463    0.8173948778
 H    2.3172042970   -1.5706596910   -0.5398215110
 H    3.0146153246   -1.6123752941   -3.0923530195
 H    1.7580147996   -2.8203173755   -2.8902315902
 H    1.5309816253   -0.0243600761   -4.0471779046
 H    0.5673438413   -1.4307426139   -4.4822246260
 H   -0.9990459798   -1.0010423341   -2.6806920082
 H   -0.4020661404    0.6401567490   -2.8486294108