15

 O   -0.1610877843    1.3707092072   -0.0238301587
 C   -0.0333828390    0.0082375477    0.0031324094
 C   -0.8576134207   -0.8399639324    0.9034707730
 C    0.6549797492   -0.9713916773    0.9305834085
 N    1.3115541642   -1.7135186182   -0.2227190747
 C    0.3143141971   -2.2633112864   -1.1466707565
 C    0.5788698270   -0.7991711895   -1.1828743152
 C    1.2552474706   -0.1228887267   -2.2463852115
 N    1.7722216547    0.4813145440   -3.0875627060
 H    0.6788450099    1.7628251290   -0.2946415032
 H   -1.2142291365   -0.2795978625    1.7631434385
 H   -1.5493391421   -1.6070230370    0.5725674785
 H    1.2442546067   -0.8546013049    1.8297506287
 H    0.7670832228   -2.8553140486   -1.9370401538
 H   -0.6374374397   -2.6395953843   -0.7917538271