14

 C   -0.0805084205    1.4014318600   -0.0499996505
 O    0.0486940551   -0.0170037505   -0.0029516984
 C    0.7142290709   -0.5481311348    1.1224354746
 C    2.2027583905   -0.1421706402    1.2118628422
 C    0.0206905054   -0.1618410304    2.3832869907
 N   -0.5062025668    0.1928578382    3.3476830222
 C    0.6235796943   -2.0188156470    0.9748704912
 N    0.5981371726   -3.1670587863    0.8657589722
 H    0.8872171817    1.8982933271   -0.1853795280
 H   -0.7090947460    1.6065654122   -0.9172769278
 H   -0.5696195106    1.7913651159    0.8507553652
 H    2.2918951096    0.9292080959    1.3983682091
 H    2.6905331662   -0.6786769040    2.0281573169
 H    2.6903534975   -0.3959351161    0.2684178203