18

 C    0.0602040206    1.4906083237    0.0985112238
 N   -0.0842953055    0.0417791491    0.0601384170
 C    0.5614583626   -0.7441106306    0.9737551096
 C    0.8250798639   -2.0878316600    1.0117612845
 C    1.4724349647   -2.2492526704    2.2698995793
 N    2.0079769309   -3.4079910400    2.7920993940
 C    1.4080727279   -4.6892174974    2.4604420549
 N    1.5803647572   -1.1174500492    2.9412613429
 O    1.0006931018   -0.1404763771    2.0817162887
 H    1.0845067721    1.8300320816   -0.1086472695
 H   -0.6141672724    1.9258096002   -0.6418895236
 H   -0.2259300486    1.8591368849    1.0853515386
 H   -0.1417243431   -0.3661741002   -0.8593770044
 H    0.5988593288   -2.8287410901    0.2653274957
 H    2.2553455543   -3.2998779803    3.7659992398
 H    0.3509538882   -4.7757397915    2.7544287020
 H    1.4773959389   -4.8674180613    1.3829961298
 H    1.9726515479   -5.4808222613    2.9588527768