19

 O    0.0248008551    1.4707210858   -0.0069113046
 C    0.0228885877    0.0268906557    0.0305675820
 C   -1.4530461258   -0.4143617257    0.2093824713
 O   -2.0026321071   -1.2131968378   -0.8222242157
 C   -2.2147976970   -0.6453422278   -2.0736747043
 C   -1.8846386313    0.7644064240   -2.4338539593
 C   -1.0125549735   -0.3718629344   -2.9759562411
 C    0.3251814684   -0.6562289628   -2.4244513535
 C    0.7547254823   -0.5578592645   -1.1583894170
 H    0.8677963305    1.7449965595   -0.3839062461
 H    0.5632269675   -0.2805825953    0.9373031922
 H   -1.5330304587   -1.0473898242    1.0968084408
 H   -2.0551313638    0.4872634310    0.3805262063
 H   -3.0820769892   -1.1020264118   -2.5404955281
 H   -2.5392140831    1.2616617704   -3.1416509267
 H   -1.4290640550    1.4118969725   -1.6944458996
 H   -1.1316056012   -0.6095288350   -4.0272957794
 H    1.0354777795   -1.0480508453   -3.1498689913
 H    1.7813019145   -0.8550469543   -0.9578503462