21

 C   -0.0950853467    1.5366430063   -0.2610464189
 C   -0.0559892508    0.1145002381    0.3135347525
 C   -1.3942727489   -0.5770874695    0.1563022827
 C   -1.8158326597   -1.2192356929   -1.1166478160
 O   -0.9866477778   -1.2948402214   -2.2177124652
 C   -1.5557161988   -2.1203326053    0.1186256304
 C   -0.3918777805   -3.0244670157    0.0658536192
 C   -0.4683991505   -4.2882812134    0.8969905231
 O    0.5885364992   -2.7972669878   -0.6364452835
 H    0.8642793212    2.0427958630   -0.1168398172
 H   -0.3092695699    1.5093324657   -1.3334197049
 H   -0.8687339887    2.1434968649    0.2226175774
 H    0.7279156137   -0.4621324700   -0.1817083369
 H    0.2087716290    0.1458901022    1.3776628263
 H   -2.1997284622   -0.1096973337    0.7194536302
 H   -2.8566351925   -1.1339013402   -1.4161099508
 H   -0.1656228346   -1.7368976182   -1.9300446968
 H   -2.4204314531   -2.5131588764    0.6424544987
 H   -1.3337886237   -4.8875090249    0.5915139487
 H    0.4442017865   -4.8718181712    0.7720842620
 H   -0.6111299612   -4.0398938395    1.9545780788