19

 C   -0.0842596085   -1.1994732952    0.0017335281
 C   -0.0423194066    0.0000239661    0.0564016386
 C    0.0109335170    1.4557421105    0.1011581007
 C    1.4296212603    2.0255661637   -0.0004468170
 C    1.4958304626    3.5693961639   -0.0630440597
 C    2.7839984025    3.8885183264    0.6932796301
 C    2.7396512445    3.8128417082    2.2084803580
 C    3.1592506217    2.6164795106    1.4008260140
 O    2.1643462811    1.6521104958    1.1707884557
 H   -0.1194960531   -2.2598149427   -0.0349514987
 H   -0.5854807642    1.8702059612   -0.7219770190
 H   -0.4370641416    1.8208245474    1.0337554998
 H    1.9249566706    1.5980962712   -0.8856289033
 H    1.5291744908    3.9252984304   -1.0962673377
 H    0.6171756941    4.0198040546    0.4140129758
 H    3.5298352844    4.5176691146    0.2231634126
 H    3.5037567178    4.3521057712    2.7590939968
 H    1.7703211501    3.7643761791    2.6939918938
 H    4.1707553465    2.2252518128    1.4458153015