18

 C   -0.0289004391    1.5154556947   -0.0546659068
 C   -0.0654201648    0.0145418669    0.0664684973
 C   -1.3632897642   -0.7348213571   -0.2566749704
 C   -1.3162186988   -1.9621903005    0.6259088746
 C   -0.2550440320   -1.9525650007    1.4351661593
 C    0.6171546315   -0.7594321197    1.1791745962
 N    1.1946513326   -0.6819678779   -0.1983655219
 C    1.3784298595   -0.1740857433    2.2437885224
 C    1.9915987866    0.3056050835    3.1604388506
 H    0.9266328891    1.9031446635    0.3039515760
 H   -0.1498896658    1.8196896594   -1.1005922606
 H   -0.8347450393    1.9741541189    0.5277653567
 H   -2.2398565920   -0.1132623555   -0.0311821969
 H   -1.4318682384   -0.9855294364   -1.3238657089
 H   -2.0553722428   -2.7528098203    0.5694010891
 H   -0.0004568891   -2.7008843033    2.1753540356
 H    1.0329226899   -1.5745257589   -0.6630431503
 H    2.5418611272    0.7319609469    3.9621337180