17

 C   -0.3831996963    1.4310877417    0.0433025469
 N    0.0744015521    0.0513545823   -0.0050995120
 C    1.0852645447   -0.3870730167   -1.0071737567
 C    1.8502303078   -1.0914546514    0.1271504270
 O    2.3384184129   -2.3739485878    0.0874054016
 C    2.3203726229   -0.0740154076    1.1641867669
 C    2.8278494273    1.2228066715    0.8257292165
 N    3.2556091349    2.2579275246    0.5296620752
 C    0.8365091769   -0.5244251707    1.0766405340
 H    0.4218970387    2.1730658782    0.1366110252
 H   -0.9512231396    1.6482791669   -0.8667073372
 H   -1.0621642172    1.5470125425    0.8942137477
 H    0.6663938407   -1.0843634432   -1.7390055241
 H    1.6237616302    0.4184438948   -1.5205854862
 H    3.2094831178   -2.3614785820   -0.3263593813
 H    2.8303137379   -0.5527917080    1.9958606301
 H    0.3644808082   -0.9424462951    1.9594538264