23

 C   -0.2454910276    1.5174611274   -0.1130846527
 C   -0.0228548326    0.0230519018   -0.0131428408
 C    1.3268654440   -0.6254628648   -0.2051269794
 C    2.6028973953    0.1793595740   -0.3762849702
 O    2.8139181108    1.1478476129    0.6389808235
 C    2.7501524745    0.5938674169    1.9508228524
 C    3.3116820759    1.6350071474    2.9070399277
 C    1.3075713773    0.1860818966    2.2820716905
 C    0.6718961145   -0.6376991367    1.1643246064
 H    0.6206565858    2.0828379628    0.2345437218
 H   -0.4356772330    1.8077870521   -1.1525572981
 H   -1.1178111962    1.8241858149    0.4760634622
 H   -0.8509726370   -0.5594401527   -0.4111362293
 H    1.3422134241   -1.5633274256   -0.7540133093
 H    3.4579544731   -0.5184608527   -0.3989348858
 H    2.6048585593    0.7342698088   -1.3211366104
 H    3.3863629048   -0.3087042191    1.9788306565
 H    2.7151664224    2.5518036324    2.8637653174
 H    3.2960863278    1.2609726624    3.9354680576
 H    4.3422803606    1.8852556261    2.6416650066
 H    1.3087673880   -0.3950025551    3.2104783468
 H    0.7232722853    1.0923270617    2.4839893085
 H    0.2457761228   -1.5832789916    1.4844057482