23

 C    0.0266362220    1.4642158875    0.3404118993
 C   -0.0103637348   -0.0242933484    0.0337936866
 C    1.0171632114   -0.5102213186   -0.9674229193
 C    1.2050701584   -0.8017921333    0.5017124912
 C   -1.3869857443   -0.6796947122    0.0229658056
 C   -1.3927052555   -2.1812943842    0.2788243036
 O   -2.7072690797   -2.6912143069    0.1036401523
 C   -2.5962457671    0.0755911996    0.5290495507
 C   -2.4147185953   -0.1513762722   -0.9523085654
 H    1.0462946206    1.8461776909    0.2326994161
 H   -0.6092328950    2.0424073735   -0.3392140927
 H   -0.2978404132    1.6727246808    1.3652475142
 H    0.7490086387   -1.3372170018   -1.6163988297
 H    1.6604466655    0.2262875737   -1.4375837094
 H    1.9692495303   -0.2524478156    1.0421049302
 H    1.0961509240   -1.8271523730    0.8332938493
 H   -0.6953973406   -2.6855617149   -0.4099586429
 H   -1.0399478723   -2.3733006633    1.3042071327
 H   -2.6947164736   -3.6251398507    0.3285078524
 H   -3.3629129012   -0.5076607946    1.0248774131
 H   -2.4671622360    1.0779464211    0.9174150778
 H   -2.1317144211    0.6943146291   -1.5701885050
 H   -3.0675454212   -0.8693829664   -1.4324252008