19

 C    0.0405455634    1.4171338806    0.0205206066
 N    0.0549220020   -0.0376662558    0.0101115424
 C    0.5899767003   -0.6462028771   -0.9517650401
 C    0.6883832175   -2.1523813182   -1.0921091948
 C    0.9645610604   -2.3287102402   -2.5738877159
 C    1.1843675064   -3.6253479353   -3.2434150247
 N   -0.0482521010   -2.8511291742   -3.5016010318
 C    1.6491711660   -1.0320049350   -2.9737435578
 O    1.1778814593   -0.0481467276   -2.0402693411
 H    0.7909588320    1.7857191392    0.7310824955
 H    0.2393073356    1.8748332914   -0.9551132623
 H   -0.9344980177    1.7586434307    0.3826912971
 H    1.5273190808   -2.5182881195   -0.4871389639
 H   -0.2174935771   -2.6465557944   -0.7368856271
 H    1.8616710444   -3.6991668470   -4.0907436897
 H    1.1222743478   -4.5269791660   -2.6388226903
 H   -0.8258798261   -3.2538304226   -2.9832167497
 H    2.7418813817   -1.1001048943   -2.8934901514
 H    1.3760461246   -0.7205202248   -3.9841806310