22

 C    0.0416406345    1.4694743102   -0.1695394374
 N    0.0262976732    0.0169922262   -0.1377501400
 C   -1.0558627028   -0.5990572507    0.0780947695
 C   -1.1098340387   -2.1095761007    0.0570164247
 C   -2.0829623555   -2.6910441319    1.0908898437
 C   -3.4437054450   -1.9951559399    0.9742317669
 C   -4.4623957557   -2.5028715149    1.9976714955
 C   -3.2251134869   -0.4915904432    1.1301840179
 O   -2.2563321953    0.0512145138    0.2238969440
 H    0.9601162547    1.8223848567    0.3106853041
 H    0.0767888104    1.8119512355   -1.2116421697
 H   -0.8234050363    1.9388131609    0.3118696569
 H   -1.4434988989   -2.4094850259   -0.9464773511
 H   -0.0930578799   -2.4842898875    0.1830995933
 H   -2.1850607384   -3.7721054860    0.9470689477
 H   -1.6872759748   -2.5426800088    2.1052402003
 H   -3.8366466758   -2.1731160351   -0.0367275016
 H   -4.1095477276   -2.3366295650    3.0220849593
 H   -5.4277958344   -1.9969814204    1.8901855520
 H   -4.6327379114   -3.5770757385    1.8762426862
 H   -4.1439397086    0.0684559850    0.9347047094
 H   -2.9096472669   -0.2704425097    2.1615604284