20

 O   -0.0172549814    1.2030474051    0.4851044037
 C   -0.0386262355   -0.0119189156   -0.2407108287
 C   -1.4177027012   -0.6287576326   -0.2300520689
 C   -1.5830737169   -2.0857404682   -0.0466109406
 N   -1.7871707727   -1.1221436796    1.1162599971
 C   -3.2624453899   -1.4351676802    1.0638154483
 C   -3.0436482414   -2.4667214579   -0.0493402443
 C   -3.9161986870   -2.8568682816   -1.2058981313
 C   -3.6045690944   -3.8530077160   -0.1097040444
 H   -0.3834397345    0.9903656263    1.3523384792
 H    0.2653260304    0.2277428961   -1.2650773486
 H    0.6864410713   -0.7355639260    0.1641448270
 H   -2.1777697387   -0.0809981403   -0.7869351992
 H   -0.7475934188   -2.7803349816   -0.0707659566
 H   -3.5874091699   -1.8678062710    2.0134821183
 H   -3.8833169032   -0.5627238597    0.8299723761
 H   -4.9182969421   -2.4422230719   -1.2474150984
 H   -3.4514285340   -2.9987859973   -2.1762638300
 H   -2.9262931542   -4.6687273489   -0.3400849841
 H   -4.3946644259   -4.1156395991    0.5870622153