19

 C   -0.0384507403    1.4782361625    0.0072192028
 C   -0.0059894243   -0.0340916213    0.0077959703
 C    1.3117970398   -0.7287849245   -0.2618698680
 C    0.7087052802   -0.7412141441    1.1396430617
 C    0.4805449555   -2.2495574098    1.3465034176
 C    1.8313056713   -2.8351842650    0.7735778598
 C    1.3148481744   -2.2323652294   -0.5923052372
 C   -0.0449653741   -2.6845104064   -0.0324780489
 O   -0.9808408315   -3.3055727804   -0.4407082270
 H    0.8911397708    1.8937986813    0.4111615706
 H   -0.1644045322    1.8699752983   -1.0076868868
 H   -0.8647789354    1.8555632221    0.6189066827
 H   -0.9075007504   -0.4999368479   -0.3842651939
 H    2.1861330113   -0.1371275886   -0.5098132137
 H    1.1259973945   -0.1589735540    1.9538053970
 H    0.0320167433   -2.5954139640    2.2753565482
 H    2.7451334494   -2.3890046185    1.1707703227
 H    1.8837346335   -3.9266216783    0.7864620255
 H    1.6831532544   -2.5613890820   -1.5616643334