18

 C   -0.5786968632   -1.2074703502   -0.2853681815
 C   -0.2413443535   -0.0719750239   -0.0721619089
 C   -0.0078915060    1.3405235864    0.0742636349
 C    0.4866249483    2.1050903549    1.2454288688
 C    1.6705303207    1.5217939050    2.0328052326
 C    1.8366352833   -0.0188474260    2.1862098242
 C    2.6245531406   -0.0533787410    0.8319566665
 C    2.4298028256    1.4798817313    0.6926408766
 N    1.2639114467    2.1054314984   -0.0709995050
 H   -0.8416365562   -2.2237632059   -0.4467841195
 H   -0.7703655541    1.8997519245   -0.4694108310
 H   -0.0607612899    2.9872927294    1.5690559712
 H    1.9922629731    2.1527866249    2.8606567931
 H    2.4495763379   -0.2890520076    3.0491639638
 H    0.9146810030   -0.5988354363    2.2192046345
 H    3.6803361891   -0.3071976613    0.9604475900
 H    2.2146608848   -0.6752711814    0.0383650604
 H    3.3152277698    2.0833351590    0.4929206991