16

 C    0.4596888800    0.5592117772   -1.0389239303
 C   -0.1318348409    0.3349879856    0.3362086471
 O    0.3927549510    0.7252320751    1.3574605071
 C   -1.4214539790   -0.4014274658    0.4069785186
 C   -2.3251832329   -0.6206306714    1.6258001750
 C   -2.7126410914   -2.0233015523    1.0406242544
 C   -1.7932568131   -1.7346559055   -0.1528083706
 O   -2.2315379357   -0.5352848009   -0.7730043656
 H    1.4636156562    0.9724914882   -0.9366153269
 H    0.4881827401   -0.3700517381   -1.6162551946
 H   -0.1728950668    1.2541252021   -1.6013245488
 H   -1.7532223208   -0.6870494584    2.5515413575
 H   -3.1285637487    0.1099153675    1.7367077967
 H   -2.3598541383   -2.8495663533    1.6611166192
 H   -3.7610987958   -2.1821612369    0.7792387056
 H   -1.2107784837   -2.4218541531   -0.7571343645