20

 O    0.1281730009    1.2867701185   -0.3112976120
 C    0.0415152163   -0.0231126758    0.2085143321
 C   -1.4017859549   -0.5106880482    0.2408417520
 C   -2.4682572512    0.3725661761    0.9376722825
 C   -3.3277401322    0.1697792606   -0.3312306963
 N   -2.1164839227   -0.2913520526   -1.0478403302
 C   -2.2340675017   -1.3753722004   -1.9973129666
 C   -0.9695087459   -1.5498325685   -2.8248760959
 O   -0.5519249488   -2.6087683317   -3.2119339299
 H   -0.4909909138    1.2993264869   -1.0555734864
 H    0.6534022907   -0.7301925481   -0.3787833817
 H    0.4532377390   -0.0058544242    1.2243585043
 H   -1.4457759650   -1.5599801177    0.5732856279
 H   -2.8782528783    0.0035074077    1.8772149774
 H   -2.1217720133    1.3998378807    1.0571274916
 H   -4.0753877514   -0.6274920208   -0.2049042978
 H   -3.8142471009    1.0434443489   -0.7767628497
 H   -2.4992571044   -2.3462305858   -1.5451239171
 H   -3.0318949799   -1.1186641031   -2.7108770193
 H   -0.4573146223   -0.5900926724   -3.0651744548