18

 C    0.1629035036    1.5135991420   -0.2220211319
 C    0.1081876268    0.0362960671    0.0462259196
 O   -1.2382278808   -0.4522055402    0.2571949726
 C   -0.8711040666   -1.0956472535    1.5077950972
 C    0.6108817381   -0.7721463035    1.2744907217
 N    1.2447804045   -1.7639652800    0.3713972368
 C    0.9671499448   -0.9386201094   -0.8319729242
 C    0.2120203607   -1.6451876752   -1.9384177651
 O    0.1614617879   -1.2374282877   -3.0706944113
 H    1.1970749291    1.8672040059   -0.2719505531
 H   -0.3199999585    1.7333581033   -1.1805984512
 H   -0.3645514827    2.0663388996    0.5607177616
 H   -1.3332558608   -0.5833588901    2.3611130264
 H   -1.1220260783   -2.1604655431    1.5222185975
 H    1.2163706176   -0.3805648513    2.0929347558
 H    2.2298599907   -1.9169960659    0.5462284512
 H    1.8364320677   -0.4274836761   -1.2630986872
 H   -0.3132762339   -2.5673468918   -1.6111436665