13

 O   -0.4029478665    0.6098381356    0.7677079355
 C    0.2266472497    0.9538078819   -0.1993987562
 C    1.3392976330    1.9415875925   -0.1350210550
 C    1.9285042722    2.4211877096    1.1738739696
 O    2.4954720908    3.7149518597    0.9002103300
 C    2.1633964298    4.1732099717   -0.3366262875
 O    2.3827758074    5.2848815183   -0.7118948828
 C    1.4846406595    3.0541187034   -1.0991183243
 O    2.3040146891    1.8906850484   -1.1907689492
 H    0.0370666507    0.5600953638   -1.2195326652
 H    1.1514713956    2.5173763176    1.9367272449
 H    2.7232615641    1.7661812668    1.5383913973
 H    0.8284514147    3.2718054906   -1.9344632172