16

 N   -0.0449103705    1.3106634542   -0.2925364711
 C    0.0043140950    0.0376374548   -0.2393990995
 N   -1.1312730924   -0.7124246908   -0.0725916696
 C   -1.3486395651   -2.1484071403    0.1084425703
 C   -1.3218598918   -2.6301015737    1.5733494435
 O   -2.6950474037   -2.2249423179    1.7782472656
 C   -2.8433412608   -1.8208926049    0.4000418570
 C   -2.4835197496   -0.3515426696    0.1671980104
 N   -3.1237917337    0.7290326854    0.1968711493
 H    0.8847926092    1.6996205955   -0.4319010194
 H    0.9078205892   -0.5783640866   -0.3302415254
 H   -0.9750940458   -2.7922418866   -0.6868552009
 H   -1.2115597948   -3.7159573145    1.6817113759
 H   -0.6222380166   -2.1163925327    2.2413032532
 H   -3.7173312911   -2.2471741127   -0.0915593200
 H   -2.4964288274    1.5181139406    0.0265465206