16

 C    0.0360577821    1.3989092527    0.2173028482
 C    1.2882590176    0.7025221099   -0.1416818919
 C    1.8968992817   -0.1696438755    0.9917323811
 C    2.2654276183    0.1326793156    2.4533545779
 C    1.2660540032   -0.8408724037    3.1884725370
 N    0.0504366845   -0.9350950843    2.3181563700
 C    0.4870369136   -0.6164215110    1.1779750436
 N   -0.0505592031   -0.0663800512   -0.0550308625
 H   -0.1447599155    1.7369738925    1.2337922793
 H   -0.4386929602    1.9981019449   -0.5533923707
 H    1.7620296815    0.8450327777   -1.1062457579
 H    2.5364733912   -0.9354104397    0.5411341090
 H    3.3111935593   -0.0541661665    2.7086862423
 H    2.0275791651    1.1677427897    2.7197111263
 H    1.7056726479   -1.8360087405    3.3352329435
 H    0.9680073628   -0.4686970007    4.1720097248