19

 O    0.8023697841    2.6082424802    2.1515161090
 C    0.3303559263    2.6368741305    1.0447494689
 C    0.8910415031    1.9046825219   -0.1568725258
 C    1.2009617514    2.8856952919   -1.2896875843
 C    2.5122022352    3.7474267380   -1.1797002075
 C    3.2779649829    2.5080572314   -1.7461176703
 C    1.9623608926    2.3737601521   -2.5478449409
 O    1.9740483782    3.5326358507   -3.3949267156
 C    2.3746450636    4.5718897897   -2.4646355168
 H   -0.5817247194    3.2417457653    0.8268881538
 H    1.7577514606    1.3272914404    0.1708847454
 H    0.1212650243    1.1992175556   -0.5031580781
 H    0.2970677748    3.4526947050   -1.5411615887
 H    2.8077266758    4.2639806595   -0.2672186619
 H    4.1865512578    2.6884427295   -2.3248354741
 H    3.4433229623    1.7214489355   -1.0117273490
 H    1.6716265472    1.4968688517   -3.1251269513
 H    1.5992423324    5.3446804941   -2.4110985798
 H    3.3141304170    5.0298886070   -2.7946325129