18

 C    0.1855306574    1.4913008378    0.0184824157
 C   -0.0040362294   -0.0147358625    0.0034878369
 C   -1.4718550482   -0.4415950433   -0.0430851643
 O    0.7049232952   -0.5566189586   -1.1215548092
 C    1.2249186527   -1.7978189266   -0.7177680024
 C    2.5176549937   -1.7493605245    0.0679944995
 C    1.1802576349   -1.8072490026    0.7743609584
 O    0.6365630571   -0.5710494628    1.1619651877
 H    1.2507701625    1.7273973440    0.0534519022
 H   -0.2485155156    1.9337578328   -0.8816557181
 H   -0.3045240716    1.9234723788    0.8945465691
 H   -1.9524135896   -0.0527542562   -0.9449525372
 H   -1.5459578926   -1.5324560793   -0.0528257005
 H   -2.0051789754   -0.0650403894    0.8339912462
 H    0.9680250658   -2.6389059082   -1.3524274316
 H    3.1310556812   -2.6450179652    0.0806969840
 H    3.0522872674   -0.8068412377    0.0899429022
 H    0.8861889847   -2.6561810665    1.3818582313