20

 C   -0.0336169105    1.5342804689   -0.2405454905
 C    1.3678267456    2.1305076262   -0.0259795520
 C    1.9944220514    1.6481144236    1.2826583289
 C    1.1853926664    1.6246073784    2.5764262148
 C    0.3505222292    0.3831912936    2.5802147041
 C    0.6302463315   -0.3804415483    1.2888796569
 C   -0.0565579998    0.0123816291   -0.0194939785
 C    2.0739252920    0.1223759638    1.5139953549
 N    1.7835020539    0.3223121320    3.0315082109
 H   -0.7308416466    2.0053005497    0.4627831080
 H   -0.3963078893    1.7751036005   -1.2454965943
 H    2.0288245835    1.8409607049   -0.8549638147
 H    1.3161059585    3.2257661453   -0.0431434758
 H    2.9692102231    2.1105696891    1.4646429421
 H    1.0121889407    2.4353531352    3.2758151952
 H   -0.4637007858    0.2407931273    3.2825081798
 H    0.5701427027   -1.4568810817    1.4755943851
 H   -1.0904616126   -0.3529159954   -0.0321987764
 H    0.4585945567   -0.4940719717   -0.8478017036
 H    2.9387195795   -0.4601474404    1.2000319053