20

 C    0.0267100717    1.8988101678    0.2033962761
 C    0.1930560692    0.3947425141    0.1545926580
 C    0.6409451143   -0.3994275215   -1.0240034461
 C    1.3026094843    0.2686039710   -2.2135785145
 C    0.4288216777    1.0666334734   -3.1828458855
 C    2.4399946904    1.0867654914   -1.5818759048
 O    3.0510873172    1.9756066653   -2.1159085364
 C    2.6468681893    0.5607099829   -0.1547309875
 N    1.5037085134   -0.2896545161    0.1941602583
 H    0.6754022137    2.4457937212   -0.4831842406
 H   -1.0074429786    2.1624452467   -0.0409585816
 H    0.2286530830    2.2684931114    1.2151208636
 H   -0.5186726006   -0.1160648201    0.8021214235
 H    0.1978862311   -1.3787723137   -1.1861529747
 H    1.8159585830   -0.5197292448   -2.7873514739
 H   -0.1814713524    1.8056174705   -2.6574363460
 H    1.0648475455    1.5981517723   -3.8962520368
 H   -0.2440385812    0.4076743130   -3.7387062664
 H    3.5617980856   -0.0445828644   -0.1271960796
 H    2.7877099634    1.3880639393    0.5470462551