22

 C    0.4432463503    1.4931254151    0.9303740698
 C    0.2669330108    0.0190461044    0.6354915074
 C   -0.7303884303   -0.8925606975    1.2945809600
 C   -2.0862473822   -0.2066365792    1.5192086715
 C   -2.1757057125    0.0856885904   -0.0132269361
 C   -0.8161853408   -0.5975082855   -0.2124880661
 N    1.3197869611    2.1105317109   -0.0648169528
 C    0.6728193745    2.6615066418   -1.2501606928
 C    1.2255890949    3.5590264945   -0.1982528391
 H   -0.5295834220    2.0097250936    0.9922347201
 H    0.9266584108    1.6124981214    1.9085425132
 H    1.2258124356   -0.4711859312    0.4790437197
 H   -0.4125080893   -1.8020015397    1.7915850983
 H   -2.8589643897   -0.9061915137    1.8453339710
 H   -2.0962421030    0.6526175267    2.1974273677
 H   -2.9906129544   -0.4682283658   -0.4844335731
 H   -2.2553653853    1.1334341818   -0.3223297084
 H   -0.5707224644   -1.2463313954   -1.0452262277
 H    1.1998224073    2.5179825323   -2.1892360856
 H   -0.4112966752    2.5910190683   -1.3220707726
 H    0.5086087221    4.0849523258    0.4312321756
 H    2.1640753719    4.0841080811   -0.3529320201