15

 C    0.1754733482    1.4527247864   -0.0071332832
 C    0.0027989376   -0.0337442262    0.0116274530
 N   -0.0449180683   -0.6525386664   -1.1226304921
 O   -0.2029311176   -2.0167294029   -1.1281367554
 N   -0.3149200554   -2.7747171783    0.0115689590
 C   -0.2708529052   -2.1845905481    1.1611485274
 C   -0.3949617447   -3.0309493184    2.3891680491
 C   -0.1054252886   -0.7324777508    1.2980132830
 O   -0.0620898151   -0.1616563185    2.3763828706
 H    1.0794285069    1.7306193587    0.5437361747
 H    0.2393225190    1.8157846566   -1.0332768697
 H   -0.6632530695    1.9325951760    0.5067558907
 H   -0.5108146250   -4.0806908847    2.1180949089
 H    0.4897263227   -2.9043273424    3.0209203517
 H   -1.2529671550   -2.7024588712    2.9839293420