15

 N    0.1658283242    1.5493596066   -0.2450987907
 C   -0.0339422866    0.1303817457    0.0253478339
 C    0.1291696359   -0.2944012373    1.5214247099
 C   -1.1839787797   -1.1123391204    1.4112358770
 C   -1.5258513674   -0.3290745278    0.1169627478
 C    0.7463137128   -0.7384029975   -0.8726690850
 N    1.3747807200   -1.3858595492   -1.5972456449
 H    1.1523723095    1.7827449722   -0.1569532368
 H   -0.0870567635    1.7567779195   -1.2087036147
 H    1.0448815777   -0.8214576138    1.7930617697
 H    0.0146575366    0.5935165783    2.1470109061
 H   -0.9943482403   -2.1698939861    1.2138825641
 H   -1.8888356262   -1.0325282417    2.2398701522
 H   -2.1459674346    0.5482526050    0.3134873126
 H   -1.9296820784   -0.8837745934   -0.7311717513