14

 N    0.0245006366    1.3353018654    0.1344727814
 C    0.0214601546   -0.0163932708    0.0067255801
 N    1.2103728758   -0.6612832608   -0.1512819510
 H    1.1473194350   -1.6670295760   -0.0785699503
 H    2.0305649620   -0.2453218331    0.2619233538
 C   -1.1697597016   -0.7169266871    0.0297213985
 N   -1.2772881148   -2.1138655012    0.0229269352
 C   -2.5428976881   -2.3232086286    0.0188233315
 O   -3.3467816776   -1.2199756703    0.0235539975
 C   -2.4693118074   -0.1160912379    0.0347401828
 O   -2.8614321112    1.0329913018    0.0478424495
 H    0.7828316498    1.8505801798   -0.2834619516
 H   -0.8983416726    1.7608185390    0.0943550559
 H   -3.0467206605   -3.2787888904    0.0146504168