19

 C   -0.2075926575    1.5733486446    0.0411311612
 C    0.0448822939    0.0576828182    0.0028525008
 C    0.8749351788   -0.4131170296   -1.1717368613
 C    1.8807565913   -1.2251997581   -0.8021106739
 C    2.7968823084   -1.8846578516   -1.7356068079
 O    3.6816751890   -2.6436657538   -1.4058484979
 C    1.9468152409   -1.3717138097    0.6822116742
 C    2.2370438830   -0.0843298383    1.4254978140
 C    0.8080858886   -0.5110680407    1.2076782133
 H    0.7308546951    2.1299048571    0.1193781537
 H   -0.7267392624    1.9092533567   -0.8624591623
 H   -0.8289683879    1.8369312679    0.9022777340
 H   -0.9379885608   -0.4352705146   -0.0597673327
 H    0.6681656700   -0.1118603481   -2.1943673815
 H    2.6129343762   -1.6454843301   -2.8073388490
 H    2.2376488915   -2.3200313684    1.1157571259
 H    2.6213389844   -0.1713305365    2.4360852329
 H    2.6435709136    0.7480098364    0.8601755918
 H    0.2361450239   -0.8159202912    2.0761026049