16

 N    0.3391155725    0.7735448157    1.1275607232
 C    0.1361168979   -0.1139112818    0.2617410334
 O   -1.0856261524   -0.7478857220    0.2686622031
 C   -1.3429530870   -1.6631416026   -0.7135831026
 O   -0.6089554709   -1.8987772822   -1.6341482048
 C   -2.6655743154   -2.3587056610   -0.4262581922
 C   -3.1654477273   -3.3124059017   -1.5242031098
 C   -2.8792434585   -4.4235334271   -0.4940896692
 O   -2.4294081313   -3.4554425265    0.4887715596
 H    1.2785200997    1.1536627863    1.0190877459
 H    0.7981656017   -0.4786369690   -0.5235340176
 H   -3.3816426415   -1.6381008020   -0.0171841221
 H   -4.2115100929   -3.1834361421   -1.8013310258
 H   -2.5380527530   -3.3252167257   -2.4146864119
 H   -3.7513278988   -4.9789209997   -0.1323586436
 H   -2.0852855026   -5.1295779387   -0.7598275057