14

 O   -0.0416093488   -0.0509544941    0.0689230361
 C    0.0187966341    1.1400938261   -0.0638880220
 N   -1.1352954408    1.9030070686   -0.3059308263
 C   -1.5482429942    3.1748456623    0.1267799104
 O   -2.7363252568    3.4150624274    0.1804074794
 C   -0.5423378321    4.2021603890    0.4679198286
 C    0.7356149412    4.1911038577    0.0910404331
 C    1.3627483127    3.0522378931   -0.6609083302
 O    1.1959731761    1.7879764448   -0.0007595738
 H   -1.9378998198    1.2979935234   -0.4371799613
 H   -0.9689563374    5.0458362914    0.9983565708
 H    1.3708693141    5.0396637109    0.3275350065
 H    0.9622446076    2.9865772111   -1.6803824920
 H    2.4437601741    3.1792252682   -0.7296152192