18

 C    0.6042325660    1.1104721606    0.6141544523
 C    0.2323766099   -0.1543915900   -0.1220164337
 O    1.0248202558   -0.7302696721   -0.8383087553
 C   -1.2058494228   -0.6766553715    0.0293108470
 C   -1.3429975655   -2.1073907134   -0.5519336575
 O   -1.0953004110   -2.1476972828   -1.9349401161
 C   -1.6579105847   -0.6746100388    1.4896270307
 N   -2.9793205599   -0.4014192909    1.6877598799
 O   -0.8982569033   -0.9352343435    2.4045594163
 H    1.5554263059    1.4894716228    0.2393487976
 H   -0.1768565267    1.8710979405    0.5079370872
 H    0.6873384350    0.8786571346    1.6802150893
 H   -1.8436339805   -0.0086800708   -0.5668434409
 H   -0.6739076154   -2.7727926829    0.0120803530
 H   -2.3682598858   -2.4611129611   -0.3998275649
 H   -0.1651480707   -1.9001674395   -2.0295083924
 H   -3.6229911599   -0.2815519977    0.9253978490
 H   -3.3504877964   -0.5141815435    2.6177068486