20

 C   -0.2054067185    1.5640287717    0.0018003796
 C    0.0441172356    0.0565261890    0.0198759155
 C    0.8653160890   -0.5364461401   -1.1285700886
 C    2.3862599414   -0.4685868070   -0.6797683426
 C    2.3502397544    0.1185359225    0.7435892789
 C    0.9896970522   -0.5190107643    1.1148589904
 C    1.1733639744   -1.9722363628    0.5964988087
 C    2.2463032981   -1.9788202867   -0.4336894468
 N    0.8189224752   -2.0285347837   -0.8647992797
 H    0.7019296904    2.1446058756   -0.1851923760
 H   -0.9208986279    1.8197345164   -0.7867648484
 H   -0.6288633162    1.9039132088    0.9531739546
 H   -0.9196611977   -0.4645517943    0.0569003576
 H    0.6040027349   -0.2762010491   -2.1532057070
 H    3.1309392327   -0.1055664317   -1.3842605675
 H    3.1736249231   -0.2662619319    1.3539360566
 H    2.3570876390    1.2101428499    0.7968216519
 H    0.6595889851   -0.4283812297    2.1494497051
 H    0.9079885194   -2.8472301091    1.1761601999
 H    2.9511648853   -2.7793812637   -0.6308156021