13

 N    0.0053563677    1.5308786434    0.0118044751
 C   -0.0065241806    0.0730440194   -0.0472828377
 C   -1.4488701079   -0.4712922393    0.1206354597
 C   -2.0138462190   -0.1659406959    1.4265626401
 C   -2.4748809648    0.0617771242    2.5117945385
 C    0.5819660571   -0.4687460704   -1.2935701114
 N    1.0435487138   -0.8476003290   -2.2838152391
 H    0.9592636026    1.8769928031   -0.0154252357
 H   -0.4702487977    1.9180296892   -0.7986488070
 H    0.5940058244   -0.2998298809    0.7893736498
 H   -2.0755871522   -0.0504082775   -0.6758555422
 H   -1.4352489347   -1.5552457190   -0.0402323256
 H   -2.8871733787    0.2722912328    3.4674760355