19

 C   -0.0105352566    1.4453201261    0.0290242667
 C    0.0145096004   -0.0513173812   -0.0286572577
 C   -0.9400122316   -0.9693485261    0.7390121859
 C    0.5566382826   -1.0750612144    0.9465682771
 C    0.5795938656   -2.1068738567   -0.2295635134
 C    1.4999200976   -3.2667399338   -0.4580399788
 C   -0.9904323765   -2.1431418689   -0.2709646017
 O   -1.0312434761   -1.5812733895   -1.6031028089
 C    0.2367442160   -0.9773982758   -1.2605138875
 H    0.9452105097    1.8761438583   -0.2905938290
 H   -0.7950884191    1.8500656638   -0.6206946706
 H   -0.2066019907    1.7983949963    1.0470175882
 H   -1.7045998635   -0.5899076978    1.4036957344
 H    1.1582836999   -0.9626344342    1.8378133111
 H    1.4383907228   -3.9922420855    0.3609873811
 H    1.2396136967   -3.7831947068   -1.3885369337
 H    2.5430108647   -2.9388929119   -0.5333351376
 H   -1.6410680768   -3.0049054988   -0.1238174169
 H    0.8304195447   -0.6539696929   -2.1161905885