17

 O   -0.3859651668    0.4835504542   -0.1461950822
 C    0.5408645597    0.5697976190    0.6110437717
 N    1.7880409174    1.1190056748    0.3396313678
 C    2.2431847441    1.6819770952   -0.8520529035
 O    1.6065660041    1.7768312407   -1.8690874245
 C    3.6708018353    2.2352687922   -0.7312084053
 N    4.4184767509    1.6377347525    0.3676746508
 C    5.3366418984    0.5494729242    0.0241374642
 C    5.8555837093    1.8928734719    0.3981817186
 H    0.5068671415    0.2065911153    1.6590453923
 H    2.4815672394    1.1128818089    1.0800876286
 H    4.1472763654    2.1154663932   -1.7149880631
 H    3.5784833798    3.3127568267   -0.5444651955
 H    5.3796604667   -0.2724099213    0.7320180964
 H    5.4034142241    0.2580519154   -1.0218899537
 H    6.2755487308    2.5048637076   -0.3971149454
 H    6.2818177799    2.0652741597    1.3817721028