16

 O   -0.1700787477    0.0430224780    0.1418592226
 C   -0.0164366872    1.2258819309   -0.0504400157
 C    1.2888450396    1.9073581600   -0.0522544087
 C    1.3674163955    3.3910605868    0.2810783325
 C    1.6284847198    2.9570387123   -1.1187901690
 C    3.0736541585    2.6608058870   -1.4877939892
 O    3.6094610265    1.9289850678   -0.3934574611
 C    2.5700614664    1.1160601037    0.1494398987
 H   -0.8858125334    1.8966166241   -0.2456080313
 H    0.4295106423    3.8970768457    0.4850177745
 H    2.2047724420    3.7021005675    0.8970963176
 H    0.9200737093    3.1971284384   -1.9033117120
 H    3.1067395452    2.0768989080   -2.4216125792
 H    3.6907663484    3.5559522152   -1.6163673135
 H    2.8180931478    0.9272555749    1.1976434846
 H    2.4887794768    0.1503742097   -0.3694523207