17

 O    0.0026881340    1.3560462878   -0.3326446216
 C   -0.0628798264    0.0081962291    0.1108731527
 C   -1.5326119416   -0.3837262844    0.1256492903
 N   -2.0795961664   -0.2369637529   -1.2118219177
 C   -3.3975114702   -0.5080054882   -1.4669886903
 N   -4.0903431190   -0.0554401397   -2.5013571178
 C   -5.3039918108   -0.6531389628   -2.3289886291
 N   -5.4237427292   -1.4325091029   -1.2740427750
 N   -4.1730922358   -1.3271721629   -0.7178637368
 H    0.9190655352    1.5750666526   -0.5231327699
 H    0.4841513277   -0.6617273063   -0.5677343266
 H    0.3534288152   -0.1066696324    1.1223583704
 H   -1.6064991748   -1.4306297622    0.4460870599
 H   -2.0658203770    0.2339886372    0.8661875372
 H   -1.7564562998    0.5971252003   -1.6836445837
 H   -6.1276947157   -0.5008020134   -3.0110560040
 H   -3.9580044355   -1.8322767889    0.1234060122