23

 C    0.7995735842   -0.4446478764    1.1812875106
 C   -0.0946743345    0.0341230107    0.0370339920
 O    0.5877071617   -0.0591934874   -1.2186375468
 C   -1.4877446047   -0.6414471758   -0.0334008909
 C   -2.2283041505   -0.1965626508   -1.3249169897
 O   -1.9572812898    1.1409955541   -1.6966762533
 C   -1.4143932478   -2.1737983945    0.0745441680
 C   -2.7683468852   -2.8772227366   -0.0224146350
 O   -0.5293799777   -2.6196916640   -0.9700089123
 H    1.7111048119    0.1584575803    1.2070028432
 H    0.2964020407   -0.3478745122    2.1499351751
 H    1.0953563935   -1.4895932997    1.0470867023
 H   -0.2789150510    1.1045794702    0.1690809354
 H    0.5918553461   -0.9993993048   -1.4468853148
 H   -2.0522683071   -0.2900018204    0.8402519288
 H   -1.9695814327   -0.8885201739   -2.1376057286
 H   -3.3102843682   -0.2588440598   -1.1737778977
 H   -1.0297903851    1.1424650966   -1.9696511267
 H   -0.9679979793   -2.4259012176    1.0471525725
 H   -3.2399575511   -2.7051878266   -0.9930763234
 H   -2.6482926741   -3.9591934781    0.1083161804
 H   -3.4451321342   -2.5246273085    0.7625444603
 H   -0.4442723951   -3.5764010750   -0.9159063996