19

 C   -0.0109218786    1.5147338129    0.1732034799
 C    1.3950410633    2.1202068788   -0.0307407445
 C    2.1663103353    1.3395631823   -1.1034162663
 O    2.4166811980    0.0114148335   -0.5985438475
 C    1.2444524022   -0.7096503245   -0.3877231114
 C   -0.0201864474    0.0020874067   -0.0169251425
 C    0.1492375389   -0.5862473884   -1.4382534097
 C    0.4734583070    0.3221648634   -2.5557945194
 C    1.4264511938    1.2495137545   -2.4175457848
 H   -0.3740822944    1.7582805882    1.1763590827
 H   -0.7137892361    1.9728649546   -0.5315123652
 H    1.3189257525    3.1772962494   -0.3068359049
 H    1.9774149564    2.0620608579    0.8959847858
 H    3.1608062402    1.7710304255   -1.2456870646
 H    1.4740997051   -1.6834172375    0.0296798540
 H   -0.7126019622   -0.5491069328    0.6115920991
 H   -0.4429778146   -1.4647430694   -1.6682816774
 H   -0.0566744682    0.1948134618   -3.4949001606
 H    1.7024237789    1.9183166831   -3.2255195226