16

 C   -0.0216285582    1.4946723380    0.1331045505
 C   -0.0099670199    0.0173212353   -0.0323094475
 C   -0.0291772347   -0.7793491464   -1.1116644243
 C   -0.0026399958   -2.2479837868   -0.7108367919
 C    0.0350633948   -2.1458647755    0.7863782258
 C    0.0733274535   -2.7661225362    2.0120445552
 N    0.0883103148   -1.8010986021    2.9828954072
 N    0.0601993565   -0.6121042468    2.4297865759
 N    0.0288166913   -0.8261453103    1.1066365146
 H    0.8707788325    1.8320502601    0.6707251296
 H   -0.0565022421    1.9863670726   -0.8406445657
 H   -0.8872734441    1.8121154209    0.7239062255
 H   -0.0596304789   -0.4364560262   -2.1357905059
 H   -0.8854822590   -2.7890413669   -1.0730797604
 H    0.8719370654   -2.7696708389   -1.1186828873
 H    0.0913672040   -3.8128848008    2.2665159086