19

 C   -0.0739846949    1.5999852149    0.0573198192
 C    1.4553214287    1.2930938107    0.0952297384
 C    1.1241558841    0.1957410367    1.1537874984
 C    0.0286936807    0.0426635227    0.0527214661
 C    1.1652807369    0.2112938798   -0.9732955583
 C    1.0587792533    0.2960804023   -2.5131960128
 C    2.5978625055    0.1565298270   -2.6088638766
 C    2.0647186562   -0.8829020613   -1.5926243650
 O    0.9576547989   -1.1859626189   -2.5358881839
 H   -0.4936299319    2.0517390315    0.9600573918
 H   -0.4642082028    2.0745672762   -0.8462538463
 H    2.2740867284    2.0132529801    0.1228499359
 H    1.8384347425   -0.6241749627    1.2609846930
 H    0.7811070187    0.5577220591    2.1266211075
 H   -0.7873056522   -0.6778577589    0.0216162136
 H    0.3734997889    0.8538404543   -3.1520244048
 H    2.9578779390   -0.2684498116   -3.5465383194
 H    3.2188532276    0.9758425528   -2.2381435627
 H    2.5775341825   -1.7293280247   -1.1350332639