18

 O   -0.3369192832    1.3279135901   -0.0394654448
 C   -0.0382676054   -0.0674132598   -0.0141724274
 C    0.7235298749   -0.4725824398   -1.1990761143
 C    1.3908356621   -0.7741205576   -2.1529891155
 C    0.6794231629   -0.4896775498    1.2764491610
 C    1.9923842002    0.2331104985    1.6876051048
 C    1.4930493195    0.2090220510    3.1581001199
 C    0.0564000656   -0.0525497011    2.6301878255
 H    0.4563023764    1.7893267738   -0.3313001129
 H   -1.0186605644   -0.5615882361   -0.0339247833
 H    1.9621760348   -1.0493308509   -3.0050472277
 H    0.8318245811   -1.5734484808    1.2443138470
 H    2.9384608420   -0.2586182654    1.4530080642
 H    2.0240954941    1.2561829718    1.2996698353
 H    1.8888904849   -0.6514774122    3.7050724485
 H    1.6543525603    1.1061251478    3.7600962735
 H   -0.5060604568    0.8766691812    2.5093340224
 H   -0.5617712289   -0.7797279506    3.1621217940