21

 C    0.0791927254    1.4680831565    0.0329700158
 C    0.0237149475    0.0141736918   -0.0069519923
 C   -0.0343477422   -1.1892663264   -0.0275745364
 C   -0.0271481451   -2.6367783424   -0.0826306577
 C    1.2594379349   -3.1988975287   -0.6613083801
 O   -0.5312894034   -3.3078053207    1.0948310341
 C   -1.3221704714   -3.3808467047   -0.1001991798
 C   -2.6314160206   -2.6210430329   -0.0427925750
 C   -1.4418095609   -4.7558944839   -0.7268012318
 H    1.0905652491    1.8337418641   -0.1756865142
 H   -0.5951998945    1.9143018787   -0.7063401001
 H   -0.2130588946    1.8458971281    1.0189505412
 H    2.1109720652   -2.8308047200   -0.0814483441
 H    1.2742615305   -4.2884276144   -0.6329204098
 H    1.3890750325   -2.8659328184   -1.6957395675
 H   -2.4961057749   -1.6348792335    0.4018356578
 H   -3.0505993420   -2.4981860620   -1.0473572158
 H   -3.3577278545   -3.1804453589    0.5568991375
 H   -2.2113327049   -5.3311056886   -0.2000648433
 H   -1.7476715741   -4.6769822158   -1.7755497082
 H   -0.5115763822   -5.3211501180   -0.6748800705