19

 C   -0.0598708551    1.5567275199   -0.1386747024
 C   -0.0144926902    0.0275313882   -0.1326804486
 C   -1.3880907453   -0.5995494188    0.1775255101
 C   -1.3659930482   -2.0886045272    0.1770589337
 N   -1.5081268541   -2.8932609808    1.1882709257
 C   -1.3814408710   -4.1669210669    0.6515340229
 N   -1.4228868109   -5.2762795384    1.4891059214
 C   -1.1648689081   -4.0638699508   -0.6862025276
 O   -1.1542457010   -2.7175150275   -0.9966903850
 H    0.9244917979    1.9800687322   -0.3600213967
 H   -0.7609645767    1.9301226063   -0.8934855909
 H   -0.3804367677    1.9483583488    0.8330568767
 H    0.3328743830   -0.3414999687   -1.1041664920
 H    0.7110186952   -0.3231686969    0.6106173812
 H   -1.7373571901   -0.2805086461    1.1633274575
 H   -2.1198135173   -0.2479021814   -0.5609899026
 H   -1.9312074817   -5.0753180589    2.3398890722
 H   -1.7721459612   -6.1152857453    1.0478185133
 H   -1.0089579975   -4.7513984576   -1.4973616188