16

 N   -0.0504400927   -1.1569243067   -0.0784704153
 C   -0.0341355749   -0.0011917534   -0.0382752524
 C   -0.0316635352    1.4492227621   -0.0067425095
 C   -0.0974793391    2.0731124613    1.4295785839
 C    1.4347946066    1.7513968302    1.5348646388
 C    1.3934438306    2.1015275501    0.0057640611
 C    1.0396934982    3.6040137358    0.0994525842
 O   -0.3094218298    3.9539914511   -0.2476043903
 C   -0.0176444675    3.5838622966    1.1091986233
 H   -0.7363330377    1.8454172498   -0.7367184251
 H   -0.8254726098    1.7309199526    2.1622026333
 H    2.0380915848    2.3956505548    2.1794540754
 H    1.6476233760    0.7000875036    1.7367440469
 H    2.1653331931    1.7879206782   -0.6939826423
 H    1.7884324520    4.3778056810   -0.0257523491
 H   -0.1924265847    4.3400526929    1.8659466572