20

 C    0.7242817369    0.0678993737    1.2723945820
 C    0.0012993462    0.0738772466   -0.0562079481
 C    0.4666665570    0.9323771139   -1.1526957793
 O    0.7438939222   -0.4708832729   -1.1624301964
 C   -1.4252034489   -0.3602695367   -0.0108534114
 C   -1.9075073097   -1.8198161919    0.1044382113
 C   -3.1582363015   -1.4380001070   -0.7561744197
 C   -2.6306230979    0.0012069938   -0.8326353697
 N   -2.4316183279    0.5666616790    0.5004031835
 H    1.7714936353    0.3515951227    1.1425303850
 H    0.2477512817    0.7690768440    1.9645546488
 H    0.6947646647   -0.9295710578    1.7244144111
 H   -0.2363739215    1.2767250053   -1.9086018988
 H    1.3298068145    1.5781343127   -0.9941900739
 H   -1.2496948858   -2.5196663215   -0.4146455562
 H   -2.0867068976   -2.1848993276    1.1213466238
 H   -3.1654823606   -1.9484699194   -1.7216587420
 H   -4.1428255296   -1.5535597776   -0.2908597497
 H   -2.7377024266    0.6904271072   -1.6628928484
 H   -3.0403601610    0.1435892335    1.2000053080