12

 C   -0.0145674370    1.3995230638    0.0083653925
 O    0.0040851950   -0.0308119118    0.0028054300
 C   -1.1897418671   -0.6266753742    0.0098403532
 N   -2.3264362601    0.0339914841    0.0212848298
 O   -3.3150980173   -0.9552503132    0.0252142381
 C   -2.7250064927   -2.1590100658    0.0159178498
 C   -1.3765127218   -2.0413827523    0.0058446589
 H    1.0304654779    1.7100289665    0.0012383994
 H   -0.5334532784    1.7829540391   -0.8754274605
 H   -0.5193113793    1.7762249015    0.9031757090
 H   -3.3927777093   -3.0069701052    0.0178558953
 H   -0.6246287898   -2.8110395226   -0.0030058057