17

 C   -0.3605525101    1.4524981233    0.0037204807
 C    0.0456778608    0.0088702260   -0.0109259888
 C    1.1713151159   -0.5395804146   -0.8990070711
 O    1.6815055984   -1.3560414050    0.1848856607
 C    0.6976969305   -0.8388561522    1.1165469380
 C    1.2528693020   -0.4355351602    2.4488046672
 C   -0.5966442621   -1.6717838751    1.0079225723
 O   -1.0920052478   -2.6228035319    1.5172898929
 O   -1.1029198370   -0.9064416387   -0.0245608242
 H    0.5160352814    2.0970849702    0.1156119026
 H   -0.8628237887    1.7183609475   -0.9323766716
 H   -1.0519144897    1.6528761353    0.8268836025
 H    0.8426295288   -1.1290772503   -1.7602752049
 H    1.9130280450    0.2050511901   -1.2101144985
 H    2.0740793607    0.2758145462    2.3261350461
 H    0.4770117618    0.0141333786    3.0756394664
 H    1.6357431201   -1.3204857594    2.9667718597