20

 C    0.0897976660    1.3802822993    0.2043784691
 O   -0.0452565955   -0.0237813284    0.2161354131
 C   -1.3543299718   -0.5627237632    0.0354408062
 C   -2.3100957148   -0.1514578363    1.1690310228
 C   -1.9410565320   -0.2065221677   -1.3416944592
 C   -1.1909900769   -2.1031183407    0.0932332550
 C    0.1924621027   -2.6726238384    0.3091174395
 O   -2.1681028706   -2.8053692593   -0.0350525233
 H    1.1518193682    1.5886723074    0.3567283530
 H   -0.2158946917    1.8249770212   -0.7522476670
 H   -0.4766401825    1.8648490346    1.0110279059
 H   -2.5806409154    0.9059082739    1.1001346839
 H   -3.2232068516   -0.7462861798    1.1021314803
 H   -1.8474697405   -0.3290862251    2.1448209846
 H   -1.2184415120   -0.4228156030   -2.1346594831
 H   -2.8384680154   -0.8038117876   -1.5147958279
 H   -2.2134655058    0.8510600828   -1.3989171351
 H    0.6147058059   -2.2961106166    1.2455916361
 H    0.1332786478   -3.7613534679    0.3242411114
 H    0.8686690659   -2.3338952051   -0.4814762553