16

 C    0.0852177043    1.5631957158   -0.0033957801
 C    1.3576490688    0.7487868408   -0.0506837848
 C    0.0243006659    0.0642107707    0.0174687846
 C   -0.5269173354   -0.8627008196    1.1490235162
 N   -1.0795592421   -1.6611851730    0.0279983909
 N   -1.7767037852   -2.7248954207   -0.4021542147
 N   -1.7554997713   -2.6149554357   -1.7112741619
 C   -1.0581141214   -1.5025561529   -2.1106625513
 C   -0.6172535046   -0.8811765424   -0.9627003488
 H   -0.1492030865    2.0906167817    0.9151668939
 H   -0.2398699417    2.0677002397   -0.9063176163
 H    1.9034661155    0.6958837868   -0.9859693610
 H    1.9823496129    0.7263317330    0.8359551441
 H    0.2188884233   -1.4009035530    1.7377165291
 H   -1.2955381853   -0.4316544773    1.7939034564
 H   -0.9432270471   -1.2621714839   -3.1535907465