21

 C   -0.0673742219    1.5487722382    0.0480494928
 C   -0.0229717796    0.0471076515   -0.0260540579
 C   -0.0368414322   -0.6132080135   -1.1860807839
 C    0.0432960122   -2.1109816913   -1.3244104730
 C    0.4753381523   -2.8056163657   -0.0172737195
 C   -0.2704202627   -2.1783691336    1.1776420645
 C    0.0477114280   -0.6831131123    1.2962815857
 C    0.1849659470   -4.2871787526   -0.0900989004
 O    0.9990997268   -5.1668425509    0.0211541389
 H    0.8035567866    1.9432643178    0.5879560381
 H   -0.0839518819    2.0037544712   -0.9458609704
 H   -0.9531255773    1.8933154428    0.5974616681
 H   -0.1031035179   -0.0517297234   -2.1160856956
 H   -0.9326346561   -2.5061196041   -1.6501891184
 H    0.7441461504   -2.3728039013   -2.1268600880
 H    1.5551654853   -2.6897969310    0.1254654369
 H   -1.3506753035   -2.3125622505    1.0343230768
 H   -0.0056647945   -2.6957242855    2.1059403513
 H    1.0483026207   -0.5450044467    1.7327662109
 H   -0.6446573865   -0.2160158559    2.0090642493
 H   -0.8948156452   -4.5246006632   -0.2568552262