16

 C   -0.3241794184    1.2976143290   -0.5199442315
 N   -0.8423850970   -0.0510763965   -0.4210190921
 C   -1.3027032164   -0.5482186699    0.7451647516
 O   -1.3479633450    0.0267104477    1.8162360365
 N   -1.7777176486   -1.8915438751    0.6759766023
 C   -1.8398460757   -2.7546360237   -0.3925963878
 C   -2.4193653282   -4.1164485652   -0.0586023054
 O   -1.4642085551   -2.4614657910   -1.5164709688
 H    0.7231744533    1.2953170020   -0.8417639005
 H   -0.9053956940    1.8922015429   -1.2334930305
 H   -0.3918534940    1.7595683599    0.4652870091
 H   -0.8766015956   -0.6697612293   -1.2239393272
 H   -2.1085119039   -2.2059718307    1.5759718880
 H   -2.4280834744   -4.7245139087   -0.9621790873
 H   -1.8196544874   -4.6148029171    0.7099163424
 H   -3.4401217196   -4.0197474845    0.3252196814