21

 C   -0.2099262962    1.5678462407   -0.0541447304
 C   -0.0094661237    0.0520060974    0.0614248613
 C    0.6535006176   -0.5393072587   -1.1772611831
 C    0.8778880369   -2.0919531434   -1.3591084773
 C   -0.1145585416   -2.9881126559   -0.6287061059
 C    0.5416866951   -1.9273933079   -2.8961158680
 O   -0.2195659616   -2.8784016252   -3.5751687739
 C   -0.1579824784   -0.6400340207   -2.4718070903
 O   -1.2073002164   -0.1771079212   -2.8362503785
 H    0.7467653956    2.0853308321   -0.1876989822
 H   -0.8465476266    1.8071707202   -0.9102581046
 H   -0.6831619701    1.9703914083    0.8464680080
 H    0.6044504529   -0.1795116818    0.9407633157
 H   -0.9791401044   -0.4313969025    0.2221072110
 H    1.5997866628   -0.0227574328   -1.3819834023
 H    1.9035363535   -2.4146618289   -1.1693567311
 H   -1.1508518788   -2.6831710290   -0.8100820232
 H   -0.0160435311   -4.0200607718   -0.9758320587
 H    0.0555380994   -2.9690411052    0.4517635915
 H    1.4666591454   -1.7231924377   -3.4504384941
 H   -1.1114199402   -2.5164120862   -3.6573951939