17

 O    0.0003354978    0.0661162173    0.0061343375
 C   -0.0153108961    1.2645982336   -0.0164154115
 C   -1.2149014123    2.2198228254    0.0217297592
 C   -1.2069479984    2.7561808416    1.4895716733
 O   -0.0202444749    3.4754850618    1.7740829327
 C    1.1766645348    2.7867237928    1.4584322145
 C    1.1600143940    2.2502400820   -0.0092894097
 C    0.6155139241    3.2997788541   -0.9555275970
 C   -0.7223456184    3.2826510007   -0.9380434421
 H   -2.1712301524    1.7465948610   -0.2093885608
 H   -2.0297947875    3.4582355105    1.6507357808
 H   -1.3320588654    1.9063914305    2.1803636584
 H    1.9851821409    3.5096861835    1.5982735050
 H    1.3415108841    1.9406580652    2.1454443894
 H    2.1217833744    1.8015742782   -0.2654620799
 H    1.2409466237    3.9678640495   -1.5341276574
 H   -1.3795757583    3.9343142223   -1.4998844224