24

 C    0.3472839288    1.3714977276   -0.3130002603
 C   -0.0335217100   -0.0793314055   -0.0032778316
 C    0.5277436225   -0.5477663634    1.3347285249
 O   -1.4509154908   -0.2371144586    0.0762414358
 C   -2.1133037868   -0.3557496439   -1.1555884799
 C   -2.0787991036   -1.7708484436   -1.8034434225
 N   -3.3982976965   -2.0464912000   -1.2074271405
 C   -4.3759518400   -2.7682656335   -1.9845942660
 C   -3.6195090801   -0.6130143066   -0.9398916651
 H    1.4352780489    1.4780935400   -0.3725988541
 H   -0.0710439084    1.7068552058   -1.2665811987
 H   -0.0237098007    2.0344230352    0.4751430222
 H    0.3574501179   -0.7311078814   -0.8010456227
 H    0.1226218733    0.0638779371    2.1473011890
 H    0.2512013006   -1.5885077576    1.5218885386
 H    1.6186752236   -0.4645644449    1.3498733657
 H   -1.8618926536    0.4718224454   -1.8287197827
 H   -2.0918025245   -1.7198549034   -2.9055248270
 H   -1.2790397475   -2.4500664721   -1.4868027765
 H   -4.0296821539   -3.7923842443   -2.1614738184
 H   -5.3211249214   -2.8263527081   -1.4338036703
 H   -4.5836913945   -2.3036883936   -2.9695230022
 H   -4.0037705133   -0.3808558094    0.0585493796
 H   -4.2411948600   -0.1101384010   -1.6990317772