21

 O    0.0836544301    1.4113492871    0.0528016403
 C    0.0383245996   -0.0061892191   -0.0063381608
 C   -1.3857920876   -0.5767267916   -0.1605506113
 C   -1.6954411867   -0.3491216929   -1.6701457679
 C   -0.3077511595   -0.2227504068   -2.3752224139
 C    0.7069102735   -0.5984904446   -1.2641352170
 C    0.7693787372   -2.1037428059   -1.1024565205
 C   -0.1760344369   -2.7705500609   -0.4388203020
 C   -1.3551081953   -2.0768556919    0.1994791164
 H   -0.3958444106    1.7669782409   -0.7020028601
 H    0.5268915438   -0.3438392270    0.9115666220
 H   -2.0942973300   -0.0521033574    0.4861822215
 H   -2.2825016925   -1.1757953544   -2.0790276110
 H   -2.2943519042    0.5549977509   -1.8182979092
 H   -0.2223084018   -0.8735978658   -3.2484029390
 H   -0.1304955590    0.8004511702   -2.7272456877
 H    1.6993119216   -0.1762915094   -1.4405704261
 H    1.5989391951   -2.6330431907   -1.5637608677
 H   -0.1184907137   -3.8517643739   -0.3378960661
 H   -1.3130791846   -2.2035155779    1.2912765699
 H   -2.2918939987   -2.5580866289   -0.1146848201