19

 C    0.1907276316    1.5770217983   -0.0384744421
 C    0.0496780609    0.0650385905    0.0426071765
 O    0.6761136899   -0.5081980878   -1.1102099016
 C    1.2178051044   -1.7811465049   -0.7906788979
 C    1.4732963980   -1.7749090377    0.7084928060
 C    1.6622849702   -3.0729026553    1.4457621161
 N    2.2129783256   -0.5546785944    1.1071606405
 C    0.7368546968   -0.5990790261    1.2226997860
 H    1.2465346499    1.8510134636    0.0221133849
 H   -0.2166412137    1.9448811653   -0.9840940580
 H   -0.3532911790    2.0586107311    0.7807347275
 H   -1.0186868580   -0.2136757988    0.0681596418
 H    0.5124138949   -2.5929514924   -1.0372017059
 H    2.1268055710   -1.9165944865   -1.3869643911
 H    2.5957653391   -3.5647056764    1.1483689560
 H    1.7012917611   -2.9094708880    2.5277372577
 H    0.8412720260   -3.7683670036    1.2399671629
 H    2.6168206073   -0.7063605117    2.0296709824
 H    0.2677541542   -0.5875225750    2.2014532483