17

 O    0.0735370185    1.4571815864   -0.1263986985
 C    0.0871564065    0.0740030551    0.1998092633
 C   -1.3001456438   -0.5424964376    0.0853928573
 C   -1.9772093876   -0.7122340815   -1.3259382153
 C   -1.0569101314   -1.7028402637   -2.0146954968
 C   -0.7380435280   -2.5888682324   -1.0520578759
 C   -1.4802539290   -2.0984652771    0.1793116047
 C   -2.8498765470   -1.7965366603   -0.5632035139
 O   -3.9749821998   -2.1608253996   -0.5272233403
 H   -0.0788188882    1.5314359879   -1.0737555910
 H    0.8114478793   -0.4795934869   -0.4100435473
 H    0.4203753219    0.0170781587    1.2415164355
 H   -1.9826860139   -0.0254502788    0.7697322975
 H   -2.4135422658    0.1142302021   -1.8821661460
 H   -0.8340503563   -1.7319680411   -3.0714688805
 H   -0.1924856295   -3.5180288636   -1.1305600484
 H   -1.4143189358   -2.6509421976    1.1135465955