18

 C   -0.0282278175    1.4749367490   -0.1975891886
 O    1.3809580582    1.6567202503    0.2272282945
 C    1.2487732129    0.3799459075    0.8341983673
 C    2.0269997437   -0.8367232082    1.4808803900
 C    1.5940672635   -0.3394058986    2.8800195741
 C    0.3750791306    0.2118326065    2.1329345807
 N   -0.3439810887   -0.8724614726    1.2786572617
 C    0.8431525823   -1.8310547685    1.2224694230
 C    0.0709259069   -0.0716293346    0.0437733111
 H   -0.7102983639    2.0406812386    0.4417373993
 H   -0.1500885467    1.7644361917   -1.2430323127
 H    3.0376029083   -1.1496146288    1.2299297492
 H    1.4656572589   -1.0809379363    3.6733280597
 H    2.2010942478    0.4958651914    3.2406408366
 H   -0.2985813857    0.9589211105    2.5435911613
 H    0.8757700315   -2.3423776082    0.2582184157
 H    0.7543134346   -2.5758318098    2.0166001958
 H    0.1223213233   -0.6525654997   -0.8787075387