19

 C   -0.2639803209    1.4840456220   -0.0337075545
 N    0.1254645247    0.0880000114   -0.0116354129
 C    1.2094036683   -0.4022737086   -0.8907059083
 C    1.8341061992   -1.1588326784    0.3146462722
 C    0.7344152177   -0.4981152605    1.1985621925
 C    1.9077945437    0.3148035696    1.8160015739
 O    2.0386512112    1.2383582559    2.5783138462
 N    2.8259363743   -0.3815232045    1.0522286539
 C    4.2016857874   -0.0689036627    0.7505176324
 H    0.5665491455    2.1846839239    0.1562349479
 H   -0.7005345287    1.7216007420   -1.0095468707
 H   -1.0296047813    1.6580773243    0.7290910028
 H    0.8391748956   -1.0273859999   -1.7109389694
 H    1.8691716948    0.3735372880   -1.3050886580
 H    2.0174422446   -2.2306221670    0.2450555853
 H    0.0519487083   -1.0127567234    1.8774378938
 H    4.5297211236    0.6929824883    1.4618438147
 H    4.8418962658   -0.9516264913    0.8547779338
 H    4.3175961462    0.3271622010   -0.2667960655