21

 C   -0.0944468594    1.5146656943   -0.5184260320
 C   -0.0364801539    0.1539143547    0.1996913671
 C   -1.3511111705   -0.4568431092    0.3713407728
 C   -2.4503455011   -0.9332175264    0.4970027542
 C   -3.7743083109   -1.5322396356    0.6451167046
 C   -3.8479755463   -2.9777046507    0.1517371520
 C   -2.9020390956   -3.9578488482    0.8058947131
 C   -5.1075599626   -3.4478119273   -0.4416695698
 O   -3.9883722241   -3.1118190821   -1.2668284045
 H    0.9107780479    1.9330105445   -0.6264449534
 H   -0.5336006684    1.4089843838   -1.5140500817
 H   -0.7050070639    2.2254648878    0.0451915149
 H    0.6104725533   -0.5293615834   -0.3652460741
 H    0.4417557348    0.2773657414    1.1799269531
 H   -4.0769912897   -1.5070173299    1.7011063105
 H   -4.5139735523   -0.9415392307    0.0928011230
 H   -3.1109483588   -4.0416587477    1.8781425676
 H   -3.0029824942   -4.9459732596    0.3511690948
 H   -1.8674954760   -3.6225916881    0.6893329762
 H   -5.3597943846   -4.5070028410   -0.4019621422
 H   -5.9610876234   -2.7739297067   -0.5137482364