17

 C    0.0235214974    1.6723346195    0.3962187694
 C   -0.0776905903    0.2021264425    0.0049308890
 C   -1.4656421359   -0.1152954045   -0.5555091142
 O   -1.6219431809   -1.4289152211   -1.0613777735
 C    1.1810249282   -0.3868996650   -0.7153302421
 O    1.9234304787   -0.2823243402    0.5754437782
 C    0.5933724677   -0.7959869849    1.0038031487
 C    0.8337360405   -1.7963082464   -0.1686583064
 O    0.9690388922   -2.9533607670   -0.3881808272
 H    1.0102071404    1.9001948976    0.8003103026
 H   -0.1551673093    2.3157081708   -0.4720198258
 H   -0.7288290495    1.9231240872    1.1520429566
 H   -2.2219137199    0.1173555737    0.2095544728
 H   -1.6577556420    0.5547582459   -1.4015421518
 H   -1.7656219800   -2.0405738250   -0.3330547798
 H    1.6949941486   -0.0596256538   -1.6171470798
 H    0.4363324141   -0.9385037194    2.0723616733