21

 C    0.0045079192    1.5980103757    0.0042084006
 C    0.0449008549    0.0653786674   -0.0202841533
 C   -1.3679573115   -0.5112352115   -0.1442767825
 O    0.8154859687   -0.3025226808   -1.1812227434
 C    1.8289111277   -1.2309953540   -0.8384893421
 C    2.1860663708   -0.9121631213    0.6137601572
 C    0.8022722929   -0.5851098193    1.1990387282
 C    0.8569209255    0.2852879689    2.4314991192
 O    0.2188839051    0.0907973627    3.4347367823
 H    1.0069206136    2.0227782290    0.1057348808
 H   -0.4130480476    1.9562590923   -0.9407379958
 H   -0.6222063708    1.9728092083    0.8196588163
 H   -1.8816945862   -0.0771157594   -1.0069580585
 H   -1.3296341721   -1.5963530660   -0.2779095814
 H   -1.9548155794   -0.2969884245    0.7549763967
 H    1.4676577362   -2.2684185075   -0.9288466212
 H    2.6610705281   -1.1002699263   -1.5367612395
 H    2.6832084826   -1.7360689351    1.1314847345
 H    2.8412501420   -0.0341557012    0.6592047328
 H    0.2825014220   -1.5044873766    1.4833542724
 H    1.5545330785    1.1510870892    2.3585074666