23

 C    0.0823854462    1.1994982134   -0.3736456164
 C    0.0620351613   -0.2837407904    0.0031247130
 C    0.8352661776   -0.5693014587    1.2836178168
 O    0.7542370820   -1.9528762626    1.5610198962
 C    1.3956077808   -2.3549400224    2.7606262371
 C    0.9549284287   -3.7912951562    3.0604841101
 C    1.9492522908   -4.5953393217    2.2209894147
 O    3.1843083375   -3.8955146444    2.3427848664
 C    2.9235670862   -2.5157804639    2.5919392538
 H    1.1056104503    1.5580919363   -0.5312667264
 H   -0.4765342928    1.3778304045   -1.2966718856
 H   -0.3676217705    1.8178207849    0.4110384109
 H   -0.9693792073   -0.6297782150    0.1357804590
 H    0.4922994603   -0.8876118916   -0.8039875583
 H    1.8840525245   -0.2477232254    1.1692753721
 H    0.4139611582    0.0092096324    2.1247184353
 H    1.1458346743   -1.6522803843    3.5683807486
 H    1.0910646927   -4.0095985159    4.1241705983
 H   -0.0901655966   -3.9519907898    2.7908070253
 H    2.1049159984   -5.6181296631    2.5762058069
 H    1.6244955225   -4.6340043933    1.1705925885
 H    3.2872435615   -1.9044949812    1.7560457029
 H    3.4660882134   -2.2144786018    3.4975608408