17

 C    0.0467421821   -1.1460196348   -0.0458095631
 C    0.0295682349    0.0563180086   -0.0098579794
 C   -0.0306203633    1.4863607757    0.0144856660
 C   -0.6832771892    2.4309102271    1.0820434407
 C    0.0020814009    3.3415861026    0.0259018919
 N    1.2033578143    2.3987389996   -0.0226458562
 C   -0.6108911157    2.4427085663   -1.0547286860
 C   -0.6574342506    2.3963500254   -2.5120472704
 N   -1.9024185477    2.4963136219   -1.6806717111
 H    0.0726049615   -2.2074835998   -0.0746444923
 H   -1.7749311713    2.4454836225    1.1464877061
 H   -0.2110527267    2.4062608277    2.0681656972
 H    0.1216388898    4.4232966033    0.0292034060
 H    1.6305905294    2.3790327469    0.9099596399
 H   -0.4399894871    3.2793953952   -3.1053230146
 H   -0.4391136769    1.4495181514   -2.9988112257
 H   -2.3664087644    1.5910093707   -1.6377378690