19

 C   -0.5011071147    1.2820385233    0.2587446727
 C   -0.1724708829   -0.1826588652    0.4847295454
 C    1.0382429072   -0.8928223227   -0.1033886839
 C    0.8034406738   -0.7871887819    1.4392808246
 C    2.0886010371    0.0278008081    1.6310847678
 C    2.1043635087    1.3328912334    2.4068791132
 O    3.0730002541   -0.8672589229    2.1519032824
 C    2.2606284927   -0.0488835628    0.0738871950
 O    3.1908199485    0.2490928815   -0.6249494612
 H    0.3881783734    1.9051758732    0.1466209144
 H   -1.0858799221    1.3882886578   -0.6608354036
 H   -1.1011518286    1.6844736770    1.0821384558
 H   -1.0537887811   -0.8157667890    0.3908017937
 H    0.9399952139   -1.7351855128   -0.7770107835
 H    0.5399946561   -1.6052206912    2.0977281879
 H    2.0186274522    1.1208033399    3.4770487002
 H    3.0545772725    1.8528463444    2.2392044131
 H    1.2962266145    2.0070313231    2.1195807891
 H    3.9342564448   -0.5377640534    1.8676546767