23

 C    0.2552148266    1.0301108647    1.3899093176
 C    0.1879952729   -0.3372078143    0.8918938124
 C    0.1407149052   -1.4717231561    0.4884373643
 C    0.0560617665   -2.8453352143   -0.0080303457
 C   -1.4071593851   -3.3207099415    0.0295562995
 O   -1.4290712081   -4.6909988412   -0.3409324781
 C    0.7208142909   -3.0298725476   -1.4047839341
 C    0.1024992051   -2.1351385912   -2.4860622627
 C    2.2359147718   -2.8131375189   -1.3116015938
 H    1.2928180973    1.3704565370    1.4799753832
 H   -0.2635922403    1.7261960774    0.7214030757
 H   -0.2068799651    1.1166236731    2.3796998551
 H    0.6015555995   -3.4992597652    0.6874409446
 H   -1.7985505373   -3.1744264385    1.0467519448
 H   -2.0174128695   -2.7078233504   -0.6493297187
 H   -2.3439108230   -4.9857820389   -0.3513691306
 H    0.5364475252   -4.0746707737   -1.6761049925
 H    0.5992026008   -2.3020683299   -3.4473469193
 H   -0.9627444953   -2.3399885073   -2.6299586376
 H    0.2116926866   -1.0764337396   -2.2287357618
 H    2.6907799254   -3.4852267206   -0.5757244728
 H    2.7158884032   -3.0006504977   -2.2776126057
 H    2.4675863869   -1.7848542653   -1.0138326038