18

 N   -0.0177979585   -1.1864148939    0.0143324637
 C   -0.0085633634   -0.0325021841    0.0668641852
 C    0.0001386711    1.4282341823    0.1078196734
 C    1.4160040425    2.0148440040    0.0381974957
 C    1.4077500514    3.5419404746   -0.0979708743
 C    2.7887701357    4.0839251491    0.1670398147
 C    3.7238116062    3.3468567153    0.7606339297
 C    3.4474120527    1.9520997792    1.2471314506
 O    2.0681779868    1.6252962142    1.2329837060
 H   -0.5999104897    1.8089239767   -0.7256994110
 H   -0.4739603120    1.7621782676    1.0372049956
 H    1.9408680726    1.5845230342   -0.8302551578
 H    1.0747745608    3.8218173586   -1.1055247678
 H    0.6806078530    3.9784724801    0.6017834741
 H    3.0031678708    5.0990048735   -0.1546293091
 H    4.7293950596    3.7271303357    0.9176101105
 H    4.0216978438    1.2198468950    0.6514179310
 H    3.7716076365    1.8353398481    2.2875970596