23

 C   -1.9128087119    2.2770391768   -1.8821762649
 C   -1.1928558866    1.4147414909   -0.8382613956
 C   -1.9888831360    0.1893488068   -0.4327920492
 C   -1.9410908952   -1.1293523772   -1.1916444323
 C   -1.0859852292   -1.3519856764   -2.4212296322
 C   -1.3312101982   -1.0149894991    0.1761904121
 C    0.1254813877   -1.2022465531    0.5966031921
 O   -0.2875978998   -1.9083764962    1.7871979531
 C   -1.6864989195   -1.7643416803    1.4559232620
 H   -1.3270192733    3.1666250261   -2.1341229477
 H   -2.0888811179    1.7158791897   -2.8054851556
 H   -2.8867719053    2.6135336848   -1.5100848646
 H   -0.2098685152    1.1193715238   -1.2225263356
 H   -0.9916609544    2.0186912774    0.0565326557
 H   -2.9666980644    0.4322121863   -0.0172935699
 H   -2.8887157799   -1.6647844245   -1.2206091675
 H   -0.1321647755   -0.8201975597   -2.3641176504
 H   -0.8569360442   -2.4160931849   -2.5475085804
 H   -1.5989170448   -1.0147977997   -3.3284263780
 H    0.7441442636   -1.8314009292   -0.0577449762
 H    0.6817841499   -0.2862283094    0.8372048586
 H   -2.2308710897   -1.1876604886    2.2165329530
 H   -2.1793929302   -2.7375013341    1.3243459433