17

 C   -0.0126520793    1.4079779606    0.0093083120
 O    0.0784633369    0.0002652405    0.0011645941
 C   -1.1916907692   -0.6123879016    0.0096111949
 C   -1.0559651261   -2.0610281285    0.0006870975
 C   -0.9765270595   -3.2626109661   -0.0064086582
 C   -0.9662024399   -4.7054477887   -0.0141028774
 O   -1.9569700905   -5.3946962293   -0.0081263621
 O    0.2930332674   -5.1792923689   -0.0287219869
 C    0.3990635651   -6.6096840277   -0.0372194557
 H    1.0082022795    1.7948062569    0.0019505506
 H   -0.5459588418    1.7880438149   -0.8762331304
 H   -0.5295813629    1.7787861929    0.9083835486
 H   -1.7698097737   -0.3094756939    0.9007099856
 H   -1.7860773183   -0.3001261067   -0.8674489017
 H   -0.0690802640   -7.0359629063    0.8535905162
 H   -0.0863512806   -7.0266899513   -0.9231601396
 H    1.4674385570   -6.8236176368   -0.0487175375