23

 C   -0.3400372098    1.5848128784   -0.1967768534
 C   -0.0328029051    0.0860973924   -0.0323560314
 C   -1.3054466961   -0.6958981972    0.3223372449
 C    0.6798962418   -0.4575066737   -1.2500902914
 C    0.0115514586   -0.9316949294   -2.5312713838
 C    0.9194881897   -1.8535607830   -1.7763588802
 O    2.2855388745   -1.5976002950   -2.1044419795
 C    2.1820850245   -0.2606185500   -1.5270304174
 C    2.6943941756    0.8310907831   -2.4440857210
 H    0.5690235367    2.1640085317   -0.3875190413
 H   -1.0228698208    1.7499016530   -1.0375270262
 H   -0.8105371251    1.9900986543    0.7052437108
 H    0.6619873104   -0.0215358565    0.8137740697
 H   -2.0801095924   -0.5716480240   -0.4420372844
 H   -1.1033318426   -1.7663820600    0.4306965101
 H   -1.7216675377   -0.3359278868    1.2684514855
 H   -1.0488634549   -1.1424982354   -2.4370887654
 H    0.3166531569   -0.5629825065   -3.5065352519
 H    0.6596554805   -2.8391963015   -1.4066298258
 H    2.7356347981   -0.2469578051   -0.5771019444
 H    2.1139460604    0.8885076183   -3.3685132306
 H    2.6480810175    1.8030980349   -1.9415051382
 H    3.7388465694    0.6369614978   -2.7089023848