17

 C    0.0428380572    1.4409308274   -0.0178071014
 O    1.1747543318    0.5453676763    0.0076343259
 C   -0.1324020492   -0.0030288848    0.0173871567
 C   -0.6008716575   -0.9105164012    1.1492977707
 C    0.2890530610   -2.1568235372    0.8752028572
 C   -0.5613260880   -2.2953714633   -0.4035421623
 C   -1.7593606854   -1.6297546146    0.3054968767
 O   -2.0944712158   -0.8164092137   -0.8297084084
 C   -0.6611909476   -0.8837024558   -1.1119849537
 H   -0.1011198053    2.0258951040    0.8891158594
 H   -0.0995293813    1.9856901006   -0.9500079256
 H   -0.7443239312   -0.4911872005    2.1423964556
 H    1.3649921414   -1.9896898626    0.7957654295
 H    0.0845253296   -2.9796066400    1.5653365082
 H   -0.6325901704   -3.1892677776   -1.0195362795
 H   -2.5930097384   -2.1171771285    0.8079609378
 H   -0.3862725509   -0.6795642786   -2.1450846666