21

 C   -0.1426862861    1.5343700609    0.7727394998
 C   -0.1284136041    0.0454284587    0.4727125964
 C    1.0332259953   -0.5286696288   -0.3721474309
 O    1.9546568337   -0.2758474922    0.7709727047
 C    0.7221108361   -0.8888043579    1.3808897351
 C    0.7079208168   -1.0930671776    2.8620508565
 C    0.8000137120   -1.9567697951    0.2237503865
 C   -0.3687004956   -2.8386594441   -0.1663139386
 O    1.9340621150   -2.7738729883    0.2666661167
 H    0.8601295487    1.8902589300    1.0155112912
 H   -0.5141911363    2.0996462117   -0.0887222256
 H   -0.8055094265    1.7543542881    1.6168374111
 H   -1.1258306804   -0.3229046145    0.2222364769
 H    1.3886549118   -0.2333771682   -1.3609391073
 H    0.8689680746   -0.1490021518    3.3913140065
 H   -0.2568304123   -1.5052564724    3.1749748333
 H    1.4928302348   -1.7977385546    3.1539381808
 H   -1.3156702385   -2.3029005045   -0.2350755273
 H   -0.1621765745   -3.3042019427   -1.1346127856
 H   -0.4765683099   -3.6436795103    0.5670208464
 H    2.6553647553   -2.1699474364    0.5006565134