19

 C    0.2991115605    1.5426584100    0.2937040559
 C   -0.2073132542    0.1528777114   -0.1151574802
 C    0.5864747016   -0.4448637075   -1.2663222159
 C    1.9509380381   -1.0439782844   -1.0443369021
 C    0.8262832149   -1.9719676435   -1.4166704193
 C    0.2894618832   -2.9331700518   -0.4204462442
 O   -0.2058006131   -3.9916708800   -0.7154445369
 C    0.3863876006    0.1986497472   -2.5989827791
 O   -0.3867938223    1.0963129335   -2.8174753999
 H    1.3475686555    1.5057868075    0.6084874981
 H    0.2134437404    2.2483561520   -0.5352114970
 H   -0.2878499087    1.9304700264    1.1313121316
 H   -0.1698870708   -0.5138041212    0.7507556322
 H   -1.2569817639    0.2197244925   -0.4191571264
 H    2.7300783197   -0.8802530503   -1.7814421209
 H    2.3013839706   -1.0684797528   -0.0171513386
 H    0.8034826513   -2.3588635984   -2.4307440688
 H    0.3967710298   -2.6260630873    0.6431096724
 H    1.0184246367   -0.2300803632   -3.4120167610