19

 C    0.0292518770    1.5399933606   -0.1533474804
 C    1.5521956545    1.5330490322    0.0115133809
 C    1.9068103303    0.9593410870    1.3441518104
 O    1.0838823884    1.2097982143    2.4431861251
 C    0.6249752616    0.0524598761    3.1273641029
 C   -0.5438554224   -0.6306832684    2.4598792403
 C   -0.8225277643   -0.6371231430    1.1551631380
 C    0.0098846231   -0.0258143753    0.0639574289
 C    1.5352884693    0.0063222552    0.2518982370
 H   -0.5164893401    2.1274512063    0.5874550143
 H   -0.2968095795    1.8184954586   -1.1570700673
 H    2.2507523372    2.1325505358   -0.5594443995
 H    2.9713286997    0.9719469066    1.5827814964
 H    1.4541881506   -0.6571047456    3.2858547246
 H    0.3172169747    0.3997381146    4.1203219920
 H   -1.2196251133   -1.1432281588    3.1424543655
 H   -1.7335372677   -1.1396269484    0.8352994979
 H   -0.2405233624   -0.5048376731   -0.8860261176
 H    2.2171917132   -0.7630580847   -0.0929079492