22

 C    0.0277781715    1.3910139370   -0.0352800127
 O    0.0727326786   -0.0217726132   -0.0414114481
 C    0.6583639004   -0.5633676986    1.0979752579
 C    2.1843187082   -0.4092202314    1.3156998160
 C    2.2621007901   -1.9232779396    1.6826036043
 C    0.7585293289   -2.1052596545    1.2767390250
 N   -0.2528436525   -2.0409492232    2.3372951605
 C   -0.1507180272   -2.8358058632    3.5367804730
 C   -0.1854689845   -0.5680460834    2.4125267501
 H    1.0340117413    1.8327562597    0.0097817301
 H   -0.4516451040    1.7012431900   -0.9663667395
 H   -0.5589444728    1.7789757575    0.8105174858
 H    2.6909846326   -0.1899895203    0.3719022461
 H    2.5139235418    0.3085797598    2.0720988695
 H    2.9658637837   -2.4990500677    1.0782044243
 H    2.4693505424   -2.1295941916    2.7351598968
 H    0.5527853607   -2.8270096355    0.4820052833
 H    0.7550127196   -2.6369807411    4.1399976887
 H   -1.0200540268   -2.6465768733    4.1763633996
 H   -0.1544171108   -3.8995512440    3.2748118554
 H    0.3557592936   -0.1719874027    3.2870972971
 H   -1.1662973348   -0.0810164910    2.3544429866