17

 C    0.0015568457    1.5267700153   -0.0125402479
 C    0.0324776330    0.0236170058   -0.0430846057
 C    0.5219515805   -0.9419481877   -1.1211271528
 N    0.0268027796   -1.9410042901   -0.0797027878
 C    0.5250493774   -0.9902384880    1.0454633056
 C   -0.8210276428   -1.0632860241    1.7699394590
 C   -1.1468917225   -0.9793408756    0.2730401226
 C   -2.4209913780   -1.0595303704   -0.3926081512
 N   -3.4467966382   -1.0893246044   -0.9262689990
 H    1.0131154652    1.9344153800   -0.1134518626
 H   -0.6041269473    1.9201641201   -0.8355099608
 H   -0.4204407140    1.9000212587    0.9265216241
 H   -0.0268942069   -0.9873516028   -2.0668101797
 H    1.6006520661   -1.0058012788   -1.2954080991
 H    1.5361416648   -1.0988200059    1.4370523935
 H   -1.0599719147   -2.0148281980    2.2492716837
 H   -1.1107781679   -0.2082699040    2.3833570782