20

 C   -0.2238599472    1.4757913362   -0.1148531054
 N    0.0690994966    0.0585540808    0.0470532184
 C    1.3996650343   -0.5221761345   -0.1910331032
 C    2.5778021217    0.3995384392   -0.1447598398
 C    2.7024650596    0.9634535961    1.0572382734
 C    1.6787846784    0.4191039563    2.0390897427
 O    0.8820348877    1.4040949590    2.6932131591
 C    0.7875324053   -0.4992486967    1.1836511476
 C    0.1472113673   -1.6789135371    1.8731388781
 H    0.5923994457    2.1567690128    0.1519554953
 H   -0.5018164221    1.6485122876   -1.1602890365
 H   -1.0823412657    1.7207578555    0.5157581905
 H    1.4164416924   -1.4051711591   -0.8246525339
 H    3.1984774951    0.6072609571   -1.0093926313
 H    3.4237791765    1.7253736275    1.3355548532
 H    2.1850935128   -0.2020669832    2.7978115260
 H    1.4566762602    1.9227359001    3.2650808376
 H   -0.5282948122   -1.3345930520    2.6647268060
 H   -0.4359587339   -2.2661409508    1.1603426141
 H    0.9013110176   -2.3272932648    2.3334700881