17

 O    0.0166084426   -0.0533519714    0.0121243891
 C    0.0119916514    1.1643183256    0.0300137109
 C   -1.3409662275    1.9046753973    0.1677129893
 N   -1.2403024839    3.2573786025    0.7491190592
 C   -0.3057223933    4.0236731844   -0.0395363889
 C    0.5199647220    5.2115412318    0.5601195162
 N    1.7302542691    4.4861101266    0.0844644526
 C    1.0228836865    3.3144268916   -0.0760551285
 C    1.2173172146    1.9856462384   -0.0462565703
 H   -1.7954742882    1.9114237091   -0.8415728565
 H   -1.9742847104    1.2814235841    0.8024271932
 H   -2.1590526907    3.6900471162    0.7560678451
 H   -0.6617536816    4.2799985913   -1.0523963577
 H    0.3844894080    6.2026149467    0.1208317039
 H    0.4389435425    5.2525784712    1.6506577757
 H    2.6396776015    4.5367658608    0.5233186119
 H    2.1848381774    1.5031102436    0.0281596648