11

 O   -0.0350046786   -0.0617420478   -0.0004212913
 C   -0.0101653424    1.1467121333    0.0090450650
 C    1.1861094903    1.9672573755    0.0021453002
 C    1.3012293199    3.3156972688    0.0118974829
 N    2.6440441704    3.5976893624   -0.0011397454
 C    3.3826785909    2.4149640001   -0.0192353801
 O    4.5684132546    2.2685450718   -0.0336968666
 O    2.4469406391    1.4053227220   -0.0166427141
 H   -0.9379564714    1.7611398455    0.0245608972
 H    0.5370163746    4.0750570531    0.0267899601
 H    3.0829717326    4.5025275454    0.0012464621