15

 O   -0.0217394708    0.0217776045    0.0466693794
 C    0.0135554265    1.2131214733    0.0149559314
 O   -1.0940312928    2.0259816114    0.0346986423
 C   -0.5530752611    3.3722203795    0.0527997117
 O    0.6028467606    3.2736453866   -0.7505847564
 C    1.1987960710    2.1995623035   -0.0064311725
 C    1.2490829429    2.7582110872    1.4267259272
 C    1.3397659454    4.2570594152    1.5560393711
 C   -0.0134498162    3.6019061120    1.4650053105
 H   -1.2810973176    4.0579319050   -0.3744771176
 H    2.1117035874    1.8422088493   -0.4747958037
 H    1.5309841745    2.1007510225    2.2383559133
 H    1.6258051036    4.6319107048    2.5323919536
 H    1.7003749231    4.8368850812    0.7150389353
 H   -0.7035142565    3.5859276038    2.2979371646