17

 N   -0.1202373044    1.2703513919    0.2434339349
 C   -0.0015549154   -0.0035950601   -0.2289620850
 O    1.0292359067   -0.4257702173   -0.7163642375
 C   -1.2697154451   -0.8477790582   -0.1233088782
 C   -0.9368701285   -2.3296221374   -0.0360353454
 O   -2.1823285967   -3.0402161974   -0.1215828141
 C   -2.1174897136   -4.3594688938    0.1884768063
 N   -3.3638649213   -4.9179498726    0.0933327364
 O   -1.1161784282   -4.9407500917    0.5318708756
 H    0.6738014702    1.8843793546    0.1653189238
 H   -0.9662335271    1.6183210141    0.6578252932
 H   -1.8806118131   -0.5406714853    0.7323742639
 H   -1.8715377264   -0.6660578657   -1.0226944265
 H   -0.2769630296   -2.6228381349   -0.8553614309
 H   -0.4348012908   -2.5820252126    0.9009149750
 H   -4.0712216449   -4.4266708677   -0.4265819075
 H   -3.3920065619   -5.9231375059    0.0848748059