19

 C   -0.0195522758    1.5669090187    0.0115347115
 C   -0.0264440231    0.0660200619    0.0027290384
 C    0.7114551898   -0.8569523996   -1.0444745393
 C    1.7092968535   -1.2996815398    0.0476099979
 C    0.6468836273   -0.8691322797    1.0821397769
 C   -0.6041662385   -1.8319881976    0.9809129968
 O   -0.3934649965   -2.8492277193   -0.0251109398
 C   -0.5430963118   -1.8204697470   -1.0303586034
 C   -1.2742435218   -0.8716921924   -0.0405296017
 H    1.0023433940    1.9623894015    0.0447401779
 H   -0.5022299030    1.9723999808   -0.8858729732
 H   -0.5557771594    1.9622712502    0.8826792829
 H    1.0568479091   -0.5142488267   -2.0209950634
 H    2.0274597277   -2.3444284791    0.0512863778
 H    2.5807537572   -0.6399852915    0.0778487465
 H    0.9322764679   -0.5377454318    2.0816736451
 H   -1.0423184955   -2.2273501367    1.8980374493
 H   -0.9246624004   -2.2051590496   -1.9768401478
 H   -2.3290871607   -0.6020154923   -0.0710147025