18

 O    0.3433668476    0.1071980714    0.4158441237
 C    0.1213432850    1.2446526792    0.0592560768
 C   -1.1662477141    1.9988381628    0.1104403372
 C   -0.9348253561    3.2851428002   -0.1579195613
 C    0.5152247890    3.4930512934   -0.5128254681
 C    1.4086202691    4.3577704982    0.4343722129
 C    2.3763026843    3.3471019798    1.0975687304
 C    2.4205527149    2.1649202503    0.1075298510
 N    1.0692936796    2.1400751341   -0.4421169927
 H   -2.0991829029    1.5247297973    0.3806751250
 H   -1.6592222513    4.0900375721   -0.1841175676
 H    0.5821352144    3.8861546068   -1.5369928839
 H    1.9597594752    5.0962652853   -0.1541993797
 H    0.8149477747    4.9055576406    1.1699660912
 H    3.3599780486    3.7789224887    1.2988295058
 H    1.9659020005    2.9997756110    2.0510156069
 H    3.1541638908    2.3348712525   -0.6894783905
 H    2.6301219807    1.1994742764    0.5717153529