14

 N    0.0497470661   -1.1253376466   -0.0351169144
 C    0.0119493313    0.0322475705   -0.0296962727
 C   -0.0478955507    1.4520406893   -0.0110953704
 C    0.2667350094    2.3169204149   -1.2165807241
 C    1.0861528509    2.4816637941    0.0196434599
 N    0.4914626136    3.2200354487    1.1958308699
 C   -0.8735794637    3.6967302006    0.8767776091
 C   -0.6669110852    2.2635915983    1.1530244218
 H    0.7870448379    1.7756204933   -2.0001763762
 H   -0.4400782803    3.0481727607   -1.5887586474
 H    2.1533554433    2.3067065928    0.0454033513
 H   -1.2819383971    4.2887989878    1.6904793366
 H   -1.1237233133    4.0722679614   -0.1077899700
 H   -1.0095487021    1.7668700542    2.0538884367