23

 C    0.0010797734    1.4656560219   -0.4006425401
 C    0.0553228061   -0.0293888523   -0.0457568525
 C   -1.3629216155   -0.5705127022   -0.2892758977
 C    1.3266593502   -0.8418829756   -0.5206382049
 C    2.1468883957   -0.0699680464    0.5599351748
 C    0.8175437711   -0.4885634655    1.2552752346
 C    1.0783161084   -1.8940081219    0.6052477187
 C    0.1033285899   -3.0706563928    0.5050317420
 O    0.9018534092   -4.2487356322    0.5958080799
 H    0.9671819808    1.9679282297   -0.4428028179
 H   -0.4692973277    1.5905021473   -1.3830963459
 H   -0.6236302892    2.0052150862    0.3209359322
 H   -1.5369599107   -0.7532938550   -1.3564814537
 H   -1.6027541800   -1.4818607654    0.2535896957
 H   -2.0971689369    0.1792674558    0.0254649750
 H    1.6272795123   -1.0463722721   -1.5515683454
 H    3.0492331924   -0.5719482034    0.9156471359
 H    2.3334320359    0.9906027466    0.4119515024
 H    0.5279062167   -0.2892208433    2.2905951678
 H    2.0075132918   -2.3381695208    0.9745571193
 H   -0.6321341043   -3.0416783338    1.3256267747
 H   -0.4526237475   -3.0647420522   -0.4410732836
 H    0.3230300178   -5.0081704727    0.4797689988