16

 N   -0.2869900597    1.4226179731   -0.1627032203
 C   -0.0788902761    0.0038536988   -0.0587177741
 C   -0.3183495057   -0.6164086089    1.2942115807
 C   -1.3078154434   -0.8340339705    0.1750706401
 C    1.0242859586   -0.6079651282   -0.9255634389
 O    0.8176141994   -0.4092612986   -2.3120485396
 C    2.3395397942   -0.0658627636   -0.5122457161
 N    3.3415267200    0.4138771527   -0.1928164933
 H    0.5527727430    1.9474632921    0.0640247359
 H   -0.6040771381    1.6928575288   -1.0880270167
 H    0.3082035189   -1.4472697288    1.6006925870
 H   -0.5978219884    0.0629890519    2.0898850581
 H   -2.2495162269   -0.3015184509    0.2277191808
 H   -1.3593412378   -1.8118782138   -0.2905017901
 H    1.0431689536   -1.6933080667   -0.7840668616
 H    0.8786994985    0.5371840724   -2.4867134719