25

 C   -0.0584704183    1.5306443421    0.0960826703
 C    0.0066468893    0.0133311299    0.0026580432
 C    0.6524882608   -0.4874059965   -1.2944511375
 C    0.8415075759   -2.0109888063   -1.2537430778
 C    1.5642221965   -2.4617268459    0.0330942197
 C    3.0547500788   -2.0906247915    0.0245469001
 C    0.8043727967   -1.8631524265    1.2375011344
 C    1.4030110595   -2.1835546559    2.6005390999
 O    0.7372502313   -0.4437587793    1.1368402020
 H    0.9484104774    1.9580594620    0.0533652159
 H   -0.6456965096    1.9428639543   -0.7302091023
 H   -0.5193792857    1.8366341627    1.0391277136
 H   -1.0186726200   -0.3977532188    0.0596838389
 H    0.0280475840   -0.2030211787   -2.1494751843
 H    1.6181804499    0.0161574208   -1.4243216044
 H   -0.1451565713   -2.4922792773   -1.2923392885
 H    1.3898403101   -2.3537738157   -2.1385148169
 H    1.4806956688   -3.5544786988    0.1040685463
 H    3.1952602362   -1.0113592838    0.1301578452
 H    3.5955425054   -2.5761430404    0.8419991674
 H    3.5262975431   -2.4053663312   -0.9123128741
 H   -0.2254180277   -2.2646906243    1.2058727961
 H    2.3939657634   -1.7352451375    2.7090599494
 H    0.7646529665   -1.7841714783    3.3932197785
 H    1.4925376290   -3.2657671354    2.7380821248