15

 C   -0.0195290984    1.6651269044   -0.0153443404
 C   -0.0368180219    0.1460763198   -0.0166024438
 C    0.7548153595   -0.5694084225   -1.1279460758
 O    1.7034167770   -1.0854895386   -0.1346451025
 C    1.0057070168   -0.5416186907    0.9044405284
 O    1.2171757573   -0.6318504561    2.0703732801
 O   -1.3657589749   -0.3659502350    0.0783913993
 C   -1.9727404874   -0.3605947810    1.2972929755
 O   -3.1082147983   -0.7000822306    1.4247652302
 H    0.9942393248    2.0431672586   -0.1750482077
 H   -0.6690049014    2.0418974685   -0.8106913149
 H   -0.3793344805    2.0526579850    0.9418901049
 H    0.2143346213   -1.3826484234   -1.6124775292
 H    1.2623587544    0.0676919383   -1.8532322411
 H   -1.3090069284   -0.0384353067    2.1157148169