17

 N    0.4253281230    1.3232854499   -0.5188105903
 C    0.2463558498   -0.0030414555   -0.1715828639
 N   -0.9585560834   -0.5041798327    0.1072884105
 N   -0.7029346621   -1.8006358846    0.3134285017
 N    0.5536966296   -2.1804226096    0.1872848747
 C    1.2047367543   -1.0523073023   -0.1159197585
 C    2.6960959308   -1.0590660712   -0.2831715906
 C    3.2473113594   -0.2490517367   -1.4557749061
 O    3.2795598151    1.1310149802   -1.0785649053
 H    1.3864216891    1.6340222289   -0.4528598519
 H   -0.2478917850    1.9493567160   -0.1024987316
 H   -1.4358254625   -2.4515239031    0.5366331913
 H    3.1918926204   -0.6846734048    0.6231633538
 H    3.0044764265   -2.1025578682   -0.3968734723
 H    4.2661862787   -0.5925130342   -1.6844485762
 H    2.6277805422   -0.3982682815   -2.3504447334
 H    3.4830250940    1.6521192095   -1.8613338721