17

 O    0.0627297889    0.0211345304    0.3162593901
 C   -0.0573915382    1.1975982362    0.1141130676
 C   -1.4215370203    1.8509679178   -0.0794057416
 C   -1.5702475630    2.6618157688   -1.3480309771
 C   -0.7779546392    3.6559421342   -1.7503495121
 C    0.4125702072    4.1890797884   -1.0495738485
 C    0.3996210841    4.4124844699    0.4689226980
 C    1.2388860630    3.3279209179   -0.1227973019
 O    1.0796201555    1.9415870825    0.0556568077
 H   -2.1245134513    1.0175745583   -0.0807851576
 H   -1.6596566485    2.4466625421    0.8105818938
 H   -2.4077636346    2.3839378795   -1.9801470082
 H   -1.0070290238    4.1380893220   -2.6967450106
 H    0.9838414760    4.9078952396   -1.6275365496
 H    0.9139181566    5.2796070134    0.8683560851
 H   -0.5138264153    4.1634464205    0.9903841216
 H    2.3079650129    3.5061554286   -0.1366420867