18

 O   -0.9709276553    1.4459719463    0.3418041274
 C    0.0555229584    0.8749672199    0.0836533205
 C    1.4046420691    1.5890084980   -0.0545802638
 N    2.4768084378    0.6368327300   -0.3863350917
 C    2.8462369684    0.5937848415   -1.8170780632
 C    2.4750721384    1.8956132039   -2.5255511729
 C    2.6816452707    3.1218912484   -1.6123425079
 C    1.2884205256    2.7023896853   -1.1064993908
 O    1.0287180321    2.0444748277   -2.3821980043
 H    0.1111088928   -0.2273474795   -0.0536480260
 H    1.6189632753    2.0323555498    0.9266666815
 H    3.2955155310    0.8481189049    0.1659064617
 H    3.9183167156    0.3841315773   -1.8966191055
 H    2.3119403336   -0.2226521333   -2.3196050330
 H    2.7962759818    1.9303075597   -3.5700591880
 H    3.5186813646    3.1179473591   -0.9101499043
 H    2.6507769608    4.0598087585   -2.1674864076
 H    0.5297032592    3.4448156525   -0.8543149619