18

 C    0.0146324310    1.4378003281    0.1477923526
 C    1.4622206520    1.9030005817   -0.1428179061
 C    2.2368979091    0.6059148181   -0.0506252634
 C    3.5934867954    0.3551478657    0.0484198076
 C    4.0455133550   -0.9696507295    0.0804604144
 C    3.1319398947   -2.0183217129    0.0048106608
 C    1.7599746909   -1.7777813755   -0.1035684817
 C    1.3235493595   -0.4569532987   -0.1303828839
 N    0.0173903684    0.0250844224   -0.2732169730
 H   -0.2033948492    1.5358215117    1.2226553397
 H   -0.7365176061    2.0088202721   -0.4044691482
 H    1.5338981243    2.3245503549   -1.1541734114
 H    1.7977510330    2.6742835800    0.5553654557
 H    4.3021156069    1.1758616579    0.1105464434
 H    5.1060086646   -1.1782885546    0.1676938011
 H    3.4875526191   -3.0434436244    0.0342279923
 H    1.0551846958   -2.6011051866   -0.1603129678
 H   -0.7168190144   -0.5496948506    0.1157352580