19

 O    0.3793570187    1.3697432402   -0.2152616867
 C    0.1720189530   -0.0065263621   -0.0861453378
 C    0.3095565111   -0.6049119544    1.4040203105
 C   -1.2387864948   -0.4980559322    1.4865814589
 C   -2.6406986640   -1.2561347919    1.4776887017
 C   -2.8315993801   -0.2891964867    0.2006571199
 C   -2.7807614219    1.0716275056    0.8994781345
 C   -1.7522203779    0.9335146944    1.7414847641
 C   -1.2989166927   -0.5988723259   -0.0294085102
 H   -0.3370588019    1.8169637706    0.2514593064
 H    0.8179939268   -0.4822368744   -0.8291996554
 H    0.6875747353   -1.6301090809    1.3887293726
 H    0.9023239079   -0.0037850177    2.1001003531
 H   -2.5837872919   -2.3182022355    1.2220306253
 H   -3.3215857034   -1.0874495682    2.3168702915
 H   -3.6057197095   -0.4740509472   -0.5451216852
 H   -3.4737540000    1.8901224882    0.7641286780
 H   -1.3620764440    1.6121202932    2.4891801259
 H   -1.2000596509   -1.6445893552   -0.3420157070