16

 N    0.2018538206    1.4390554423    0.0040963617
 C    0.0280067336    0.0388170992   -0.0362366414
 C   -1.0712799688   -0.7862671733   -0.0418831961
 O   -2.3784752461   -0.3876413533   -0.0092198955
 C   -0.6101052158   -2.1347125296   -0.0692459297
 O   -1.4213248045   -3.2552849051   -0.0004598185
 C    0.7691176209   -2.1096884307   -0.0769376662
 N    1.7153889969   -3.1496154895   -0.1516765640
 N    1.1439889840   -0.7955735870   -0.0602873079
 H   -0.2981672668    1.8524246539    0.7850829794
 H   -0.1478241100    1.8884016351   -0.8369805651
 H   -2.8978652517   -1.1700837725    0.2101314353
 H   -1.7229643312   -3.4726054936   -0.8898681203
 H    1.2291894687   -4.0278900948   -0.2961635151
 H    2.2445269460   -3.2428524689    0.7120163662
 H    2.0847322242   -0.4555442722   -0.1587885727