20

 O    0.0111159440    1.4023920205    0.0953575539
 C    0.0341159829   -0.0081540349    0.0764033603
 C   -1.3619964415   -0.6015706467   -0.0710772580
 C   -1.3900057377   -2.1230838102   -0.1241582752
 C   -2.8377299816   -2.6180320519   -0.0719357379
 C   -3.5117386880   -2.0812639697    1.1965281429
 C   -3.3349076861   -0.5920815348    1.3761145025
 N   -4.2394288194    0.1264306751    1.8918451329
 O   -2.1053385458   -0.0753186997    1.0561485629
 H   -0.6282614968    1.6508269949    0.7730085003
 H    0.6471997429   -0.3074304354   -0.7800985655
 H    0.4987432731   -0.4211903347    0.9867906910
 H   -1.8224897453   -0.1900763211   -0.9813234454
 H   -0.8909089254   -2.4527810687   -1.0417630284
 H   -0.8226035484   -2.5320981595    0.7219672908
 H   -3.3784099958   -2.2680166761   -0.9603912701
 H   -2.8790093427   -3.7112487986   -0.0853346525
 H   -4.5801938795   -2.2985578595    1.2279210753
 H   -3.0564918995   -2.5659296710    2.0713665026
 H   -3.9186881994    1.0949701720    1.9619591574