22

 C    0.0931250471    1.5272565705    0.1965102705
 C   -0.0023867195    0.0144591161    0.0270178865
 C   -1.4307220937   -0.4066172953   -0.3277273088
 C    1.0549086045   -0.6368177676   -0.9244884840
 C    1.2997699724   -1.7409970201    0.1376360877
 C    2.7517787590   -2.1642955349    0.3895295110
 C    2.8776339380   -3.1034358616    1.5036386087
 N    2.9524576699   -3.8447501039    2.3871514333
 C    0.5930543685   -0.8460102882    1.1896728790
 H    1.1123025058    1.8362938201    0.4521341449
 H   -0.1934603856    2.0474551551   -0.7251206476
 H   -0.5718229371    1.8779655826    0.9945487495
 H   -1.7556081775    0.0627584363   -1.2633274571
 H   -1.5160092471   -1.4912222266   -0.4525412819
 H   -2.1324241605   -0.1071148604    0.4589028614
 H    0.7112973221   -0.9574215456   -1.9118719592
 H    1.9332220614    0.0049017260   -1.0542626562
 H    0.7057270998   -2.6332534504   -0.0780850568
 H    3.1740575649   -2.6318315028   -0.5083522153
 H    3.3687934012   -1.2837631833    0.6064223126
 H    1.3133399939   -0.2775816953    1.7875631053
 H   -0.1125327077   -1.3309976907    1.8686196465