21

 O   -0.4495539889    1.3482480384    0.0589992694
 C   -0.0193480300   -0.0086997081   -0.0078050244
 C    0.8158458245   -0.2580382264   -1.2800729864
 C    0.0494871692    0.0446063615   -2.5505806399
 O    0.0314736710   -0.6725705743   -3.5188407493
 C    0.7151972235   -0.4590005651    1.2545993564
 C    1.9751728785    0.3202477396    1.7403291683
 C    1.4702574446    0.1389205645    3.1976645241
 C    0.0592605386   -0.1777966010    2.6343895343
 H    0.3336152050    1.9049261960    0.1350561118
 H   -0.9536134538   -0.5810526922   -0.0789180625
 H    1.6963955481    0.4028218974   -1.2514447684
 H    1.1796158996   -1.2886791777   -1.3298216819
 H   -0.5163552140    1.0004082480   -2.5277903518
 H    0.9548257858   -1.5234129425    1.1539107896
 H    2.9569368023   -0.0818396071    1.4801831887
 H    1.9496296197    1.3755788739    1.4438823567
 H    1.9245646974   -0.7350523620    3.6726363139
 H    1.5674555938    0.9907971606    3.8742721306
 H   -0.5680624414    0.7158501177    2.5816380529
 H   -0.5098006535   -0.9858381611    3.0998428279