16

 C   -0.0978221902    1.4201359672   -0.0171070154
 N   -0.0472773155   -0.0368754507    0.0261941640
 N   -0.2525137679   -0.6605580793   -1.1402304539
 N   -0.2270557562   -1.9343318984   -1.1995933455
 C    0.0136606212   -2.6768870279   -0.0544569546
 C    0.0139474887   -4.1593083526   -0.2769484755
 C    0.2278873322   -2.0925434682    1.1530181642
 C    0.2094066670   -0.6581812218    1.2734185660
 O    0.3806670642    0.0184318107    2.2706108694
 H    0.8551131384    1.8323785916    0.3221965892
 H   -0.3027119590    1.7097495776   -1.0462095824
 H   -0.8803902827    1.7820968148    0.6535246636
 H    0.7755024670   -4.4285320618   -1.0158334083
 H    0.2069812928   -4.7033777585    0.6493440071
 H   -0.9501602431   -4.4784253612   -0.6856497949
 H    0.4165667831   -2.6670813515    2.0519436368