21

 C    0.0939079552    1.5452478556    0.0244762020
 C   -0.0057603697    0.0376446273    0.0047677404
 C    0.4476846169   -0.7200843484   -1.2768616620
 C   -0.6844493465   -1.7485687836   -1.0659655049
 O   -0.3552294411   -2.7052396684   -0.0349482878
 C   -0.7315267414   -1.7725116122    1.0018817212
 C    0.3892962043   -0.7497807912    1.2878218500
 C   -1.3663543079   -0.7970293470   -0.0358749247
 C   -2.7674159239   -0.2619467729   -0.0615797507
 H    1.1428276856    1.8658415919    0.0519110983
 H   -0.3619319042    1.9911653287   -0.8670380549
 H   -0.4020026474    1.9706677976    0.9045445463
 H    0.2529345625   -0.1141760135   -2.1695046248
 H    1.4691922428   -1.1089928688   -1.3192848057
 H   -1.1556055929   -2.2229441313   -1.9302776445
 H   -1.2412762464   -2.2665126789    1.8326489051
 H    1.4080193631   -1.1401063934    1.3676720203
 H    0.1538092087   -0.1645924739    2.1844625127
 H   -2.9790030198    0.3479789242    0.8243805168
 H   -2.9390140678    0.3678201845   -0.9422911078
 H   -3.5007816800   -1.0761620560   -0.0873301355