15

 C   -0.1904166948    1.3665469264   -0.1824514217
 N   -0.0860210814   -0.0808714894   -0.1631760117
 C    0.7979787927   -0.6600850442   -0.8556754304
 N    1.7936225630   -0.0265844327   -1.6442176727
 N    2.1525483833   -0.6232297614   -2.6908541295
 N    1.5917850341   -1.8484467643   -2.9289453319
 C    2.1288301777   -2.5627461812   -4.0839119620
 N    1.2659717567   -2.6522121946   -1.8518247548
 N    0.8986537060   -2.0773211960   -0.8028856360
 H    0.5848876049    1.8785590771   -0.7609014398
 H   -1.1751788003    1.6377442608   -0.5803687095
 H   -0.1654464642    1.7224323150    0.8533636749
 H    3.1324951797   -2.9502091744   -3.8860064824
 H    1.4552783662   -3.3886846840   -4.3107250190
 H    2.1620057964   -1.8672883369   -4.9219284235