18

 C    0.1082488155    1.5644697554   -0.0171905184
 C    0.0503219853    0.0580667601    0.0467947044
 C   -0.9119059481   -0.6540984591    0.9870211015
 C    0.5712317039   -0.8206858630    1.1613927839
 N    1.2961437484   -1.9912060901    0.6198851787
 C    0.4921960093   -3.0216039064   -0.0329881721
 C    1.1487119577   -1.9543135155   -0.8451230467
 C    0.4007040850   -0.6925365511   -1.2252050734
 O    0.2625862959   -0.2698786725   -2.3458540983
 H    1.1047083777    1.9128297408   -0.3073085763
 H   -0.6022721562    1.9392002500   -0.7601336602
 H   -0.1401829968    2.0069386474    0.9518845336
 H   -1.4086335935   -0.0121994780    1.7082741416
 H   -1.5404315487   -1.4581747161    0.6260905575
 H    1.0425403153   -0.4037638822    2.0441405096
 H    0.9408742854   -4.0112355736   -0.0318066839
 H   -0.5861678098   -3.0263212691    0.0743533098
 H    2.0128486637   -2.1942025169   -1.4582723512