21

 C   -0.0895935071    1.5840715027    0.0766927225
 C    0.0637123871    0.0786148629    0.0808251411
 O   -1.0784543004   -0.5786406316   -0.4275954853
 C    1.3401369686   -0.6765364932   -0.2436836442
 C    2.5860831984   -0.0462829814    0.3479285042
 O    2.9919546046    1.1641101245   -0.2643323441
 C    1.9032461467   -0.0103967156    1.7606212492
 C    0.6905338114   -0.7447442550    1.1694366254
 C   -0.0106470522   -1.8773330708    1.8633593306
 H    0.8189421011    2.0938480571    0.3945368375
 H   -0.3075019805    1.9307538079   -0.9414026921
 H   -0.9258482139    1.8821533554    0.7181588694
 H   -1.1657359277   -0.3277295761   -1.3535790045
 H    1.3267497151   -1.4194542822   -1.0337536671
 H    3.4144091580   -0.7675287146    0.3500056125
 H    3.8045317165    1.4565890499    0.1609562478
 H    2.4405983415   -0.6083175242    2.5015475661
 H    1.7178410412    0.9829166638    2.1795277659
 H   -0.5187041047   -1.5227440786    2.7689638896
 H   -0.7613527543   -2.3286761522    1.2127652824
 H    0.7010274005   -2.6528771086    2.1694359331