19

 O   -0.2558421049    1.4194769685   -0.1634988858
 C   -0.0232033062    0.0186380456   -0.0692028053
 C   -1.2274027383   -0.5997939844    0.7203342654
 C   -0.3572094990   -0.5433785979    2.0345735166
 C    0.8271170276   -0.4261439654    1.0978687069
 C    1.9587949754   -1.0277995426    0.7233116158
 C    2.0452655034   -1.0606261436   -0.7757796016
 C    1.0238819383   -1.9928842645   -1.4026312433
 C    0.6959461642   -0.5292631030   -1.2909925955
 H    0.6050437866    1.8451833883   -0.2488640379
 H   -2.1354857801    0.0053379403    0.7059542104
 H   -1.4474660345   -1.6248711629    0.4175853209
 H   -0.5609352125    0.3686491791    2.6017297233
 H   -0.3882964043   -1.4027344148    2.7075261485
 H    2.6407421321   -1.5884816757    1.3540618346
 H    2.9791667730   -0.8851811035   -1.2994790798
 H    1.2308368441   -2.3653834461   -2.4011775341
 H    0.5205860945   -2.7034118101   -0.7546483641
 H    0.6424726706    0.0519335727   -2.2043971049