19

 C   -0.1777250369    1.5353336440   -0.0284610085
 C   -0.0163224217    0.0231489297   -0.0695508837
 O   -1.2215937438   -0.6277448680   -0.4047571867
 C    1.2575648436   -0.4740845457   -0.8016127476
 O    1.8674925107   -0.8343482762    0.4566820508
 C    0.6505612877   -0.6143846478    1.1778929162
 C    0.7373290737    0.0252026595    2.5715971421
 O   -0.0127650898   -1.0545133878    3.1588012097
 C   -0.0000295011   -1.7978977487    1.9191411151
 H    0.7478804286    2.0236100002    0.2898654678
 H   -0.4272643954    1.9196230004   -1.0255450312
 H   -0.9786157212    1.8207129945    0.6602592288
 H   -1.6638984811   -0.1221598344   -1.0942733175
 H    1.0712608363   -1.3479005758   -1.4372402255
 H    1.8513240702    0.2679768553   -1.3475114481
 H    1.7690342968    0.0765738642    2.9445153087
 H    0.2492970410    0.9969239007    2.7138460553
 H   -1.0041452899   -2.0837179016    1.5940345898
 H    0.6533011025   -2.6783959127    1.9655048945