21

 C    0.2275418250    1.5190297140    0.2104096684
 C   -0.0899928991    0.0487665445   -0.0901284051
 C    0.6202001892   -0.4872225240   -1.3057825105
 C    0.7597899293   -1.9942506407   -1.6304242754
 C    2.0121343638   -1.4255589199   -2.3238277953
 C    1.4488883285   -0.6116719064   -3.5028412383
 C    0.3303934338    0.1303722037   -2.7000949488
 O   -0.9993819128   -0.1821952977   -3.0799754762
 O    2.0874983494   -0.4032398161   -1.2770029789
 H    1.3060940641    1.6691026787    0.3121945344
 H   -0.1318732273    2.1815122669   -0.5831006239
 H   -0.2503605143    1.8330132910    1.1429297274
 H    0.1839979015   -0.5700946599    0.7718834085
 H   -1.1665527645   -0.0846270253   -0.2508368944
 H    1.0096721745   -2.5704036637   -0.7385064628
 H   -0.0135744945   -2.4779149261   -2.2293048091
 H    2.9334146579   -1.9917529996   -2.4599087901
 H    2.1980248873    0.0649038956   -3.9200922408
 H    1.0297629474   -1.2289189600   -4.3028789201
 H    0.4904869551    1.2146454530   -2.6846479566
 H   -1.1775192942    0.2312594023   -3.9296823625