17

 C   -0.6227058611    1.3382405922    0.0533361656
 C    0.2205730731    0.0883312077   -0.0265453835
 O    0.9290218980   -0.3065882171    0.8721411579
 C    0.1429406827   -0.7012860825   -1.3095196627
 C   -0.8614782568   -1.8908299892   -1.5233476238
 C   -0.5390912933   -1.4293783022   -2.9756248784
 O   -0.4932210039   -0.0538927331   -2.4642809643
 C    0.9593278053   -1.7752424538   -3.0846452834
 C    1.4257903977   -1.2861436670   -1.9356179849
 H   -0.3425428436    2.0234203493   -0.7540190640
 H   -1.6777250256    1.0941842527   -0.1103060772
 H   -0.4884689100    1.8144531121    1.0249112185
 H   -0.5544708401   -2.8857066688   -1.1989673000
 H   -1.8804906244   -1.6448493080   -1.2142930051
 H   -1.2066540756   -1.5742974806   -3.8233654121
 H    1.4567655916   -2.2899826882   -3.8929010911
 H    2.4093174961   -1.2697317935   -1.4928789217