15

 C    0.0009170393    1.3943675634   -0.0196765323
 O    0.0088762348   -0.0149716102    0.0921741578
 C   -1.2787139203   -0.6067608025    0.0261419240
 C   -1.7782295486   -0.7710955259   -1.4195285141
 C   -1.2018329891   -1.9026823712    0.7027612504
 C   -1.1686625026   -2.9797052099    1.2473709313
 C   -1.1264421113   -4.1970062062    1.8647023007
 N   -1.0942446350   -5.2329626765    2.3891682582
 H    1.0334189511    1.7233177895    0.1135757683
 H   -0.3522412369    1.7380455173   -1.0019656597
 H   -0.6239742258    1.8573908600    0.7588821982
 H   -2.0001335151    0.0147059358    0.5844959877
 H   -1.8717281312    0.2067382558   -1.8986087691
 H   -1.0729677710   -1.3802288486   -1.9893236436
 H   -2.7584102483   -1.2550833107   -1.4331360278