17

 N   -0.0461310254   -1.1403076423    0.0507571668
 C   -0.0561469855    0.0164486122    0.0334758012
 C   -0.0758240622    1.4539414637   -0.0100807184
 N   -1.0262926486    2.2282410718    0.8347820006
 C   -0.6623752023    3.3471780211   -0.1150878191
 C    0.7620085132    3.6366299773    0.3934233945
 C    1.3150321432    2.2649787487   -0.0431726443
 C    1.1661612061    2.3440201240   -1.5856885389
 C   -0.3390066487    2.3189149320   -1.2838580422
 H   -1.9632896394    1.8960464908    0.5997203679
 H   -1.3745171606    4.1624607327   -0.2230674299
 H    1.2678379002    4.4603304095   -0.1164441006
 H    0.7625682373    3.8061196905    1.4704749538
 H    2.2066783546    1.8696849115    0.4375504775
 H    1.6014560289    3.2109564692   -2.0893073190
 H    1.4759404042    1.4245504506   -2.0895528137
 H   -1.1209579350    2.0841923768   -2.0048230862