12

 C   -0.0254295715    1.5403257769   -0.0421594388
 C    1.5256439949    1.5041998877    0.0412127589
 C    1.4214672735    0.0614679043    0.6084488507
 C   -0.0263883290   -0.0107095612    0.0493508773
 H   -0.4659137201    1.9963989367    0.8496289378
 H   -0.4790023915    2.0002820704   -0.9236538920
 H    1.9824827812    1.5137533382   -0.9530318270
 H    2.0219136530    2.2598657897    0.6552212858
 H    2.1429167857   -0.6795635768    0.2553147962
 H    1.4310585302    0.0575147869    1.7026187908
 H   -0.7905344019   -0.4853029618    0.6699657311
 H   -0.0523324543   -0.4723844610   -0.9423639408