19

 C    0.5184653912    1.2101972160    0.6010369252
 C   -0.0347560231   -0.1187535611    0.0785392761
 O   -0.0159201859   -1.1241352481    1.0846475333
 C   -1.5219350353    0.0207812592   -0.2772629813
 O   -1.9915993267    0.9742284417   -0.8411424875
 C    0.6881109543   -0.5861280180   -1.2086594271
 C    0.9084610990    0.4528450507   -2.2878952673
 C    1.5432542214   -1.7830382744   -1.1555181566
 O    0.2217935433   -1.8562164001   -1.6907835948
 H    1.6067361391    1.1616960912    0.7190533558
 H    0.2751360415    2.0262742736   -0.0809879298
 H    0.0694844697    1.4325624114    1.5731334281
 H    0.8070258348   -1.0415464808    1.5762295014
 H   -2.1292531858   -0.8558095819    0.0266577346
 H    1.6542581354    1.1935309216   -1.9841852375
 H    1.2588408854   -0.0402724253   -3.1975346845
 H   -0.0223946828    0.9800671358   -2.5139957577
 H    2.3496104146   -1.8840748777   -1.8816889882
 H    1.6846642901   -2.3148805637   -0.2185194421