17

 C   -0.9631189077    1.1688758333    0.0239861057
 C   -0.0826225439   -0.0697325854   -0.0449545170
 N    1.1886345884    0.1043894567   -0.8169152601
 C    2.0194477445   -0.4825636578    0.2845186336
 C    3.1906917018    0.2909939326    0.6638097890
 C    4.1666421484    0.9258662810    0.9597843260
 C    0.7651684962   -0.4240189009    1.1587298667
 N    0.4628121703   -0.5794082491    2.3733623974
 O    1.5795492416   -0.9155296771    3.1499075825
 H   -0.3776237833    2.0322611360    0.3492370863
 H   -1.3882148215    1.3897737114   -0.9603039077
 H   -1.7853611823    1.0118627431    0.7289554302
 H   -0.6768881314   -0.9353775804   -0.3753861357
 H    1.2333204314   -0.4259386895   -1.6798711679
 H    2.3137835372   -1.5296126072    0.1134819473
 H    5.0229621452    1.4928667162    1.2294341703
 H    1.2053052349   -0.9687381830    4.0361136833