18

 C   -0.0278651300    1.5429834926   -0.0231050058
 C    0.0442132807    0.0471416626    0.1418248571
 O    1.3353359618   -0.5760616451    0.0640874797
 C    0.5986205763   -0.6663391631    1.3074733289
 C    1.2753205975    0.0412955301    2.4621716337
 O    2.4945137065   -0.6107838461    2.8232205075
 C    0.0473078426   -2.0786630418    1.5457546131
 N    0.6059886705   -2.7311116990    2.6005434380
 O   -0.8223298828   -2.5535893634    0.8411522670
 H    0.7911290518    2.0617654227    0.4784386956
 H    0.0175929768    1.7959665789   -1.0872450255
 H   -0.9785824915    1.9209283390    0.3674878184
 H   -0.7222537870   -0.5169786512   -0.3874897244
 H    1.4654139417    1.0890191464    2.2082906066
 H    0.6413910451    0.0147657952    3.3532294286
 H    3.0344346318   -0.6390100069    2.0233071101
 H    1.4634446112   -2.3799525464    3.0054613924
 H    0.3499816469   -3.6971532946    2.7302069690