13

 N   -0.0961201701    1.2334213859    0.3066381318
 C   -0.0315713563    0.0246432650   -0.0352599755
 O    1.1300227489   -0.6547211957   -0.3270218199
 C    0.8313295665   -1.9521925517   -0.8511007806
 C   -0.6525462516   -2.1307632637   -0.5872214317
 C   -1.1222531956   -1.9456571703    0.8019619446
 N   -1.1738366792   -0.8173880231   -0.1661345415
 H    0.8375223180    1.6430416428    0.3221520247
 H    1.0471076762   -1.9711225286   -1.9256965466
 H    1.4686225808   -2.6866986021   -0.3491643232
 H   -1.2469130943   -2.6809720219   -1.3086428593
 H   -2.0977516107   -2.3132912945    1.1009798630
 H   -0.3812562326   -1.8908626521    1.5952119842