23

 C    0.7373152054    0.7172307037   -0.9766909698
 C    0.0899019337   -0.6155498995   -0.5975076359
 C   -1.2650887829   -0.4509997261    0.0973101372
 O   -2.1431933570    0.1766287300   -0.8260395750
 C   -3.1713723529    0.9292000198   -0.2226241939
 C   -1.7950237701   -1.8031103588    0.6025310296
 C   -1.3730466689   -2.1835596396    2.0058256805
 C   -3.0112510290   -2.3937996253    0.0218767959
 O   -1.7194701911   -2.8727531459   -0.3548483014
 H    1.6816589258    0.5570297086   -1.5056274273
 H    0.0750606393    1.2941366184   -1.6269990944
 H    0.9526100751    1.3243916245   -0.0895953241
 H   -0.0721236089   -1.2350859975   -1.4847755808
 H    0.7539047020   -1.1862086994    0.0626499330
 H   -1.1421422870    0.2053335926    0.9756363250
 H   -3.7687881786    1.3649508706   -1.0275395330
 H   -3.8283909075    0.3119379902    0.4079702670
 H   -2.7644975565    1.7422581258    0.3981722690
 H   -1.8035580360   -1.4969850494    2.7429079470
 H   -1.7012469255   -3.1992631925    2.2388211470
 H   -0.2833538563   -2.1472536927    2.1127266585
 H   -3.6092315600   -3.0807736348    0.6213863890
 H   -3.5453271531   -1.8619341927   -0.7608613930