21

 O   -0.0899381255    1.4800595201   -0.1731710311
 C   -0.0084930391    0.1435316779    0.2836303077
 C   -1.3522417667   -0.5435387332    0.0924394632
 O   -1.7224949730   -0.4883356481   -1.3131382332
 C   -1.6211500002   -1.9241297405   -1.4416904619
 C   -1.4252218028   -2.0970693381    0.0827481450
 C   -0.2713640943   -2.9231844261    0.5810938839
 C   -0.2159731265   -3.3582051551    2.0265234896
 C   -0.4880938889   -4.3732072747    0.9466457575
 H   -0.4725613883    1.4263343553   -1.0584150365
 H    0.7806036518   -0.4100987119   -0.2494625067
 H    0.2626190812    0.1758426144    1.3443786133
 H   -2.1070804056   -0.0357838050    0.7051145229
 H   -2.5266690806   -2.3584237984   -1.8790737822
 H   -0.7550736094   -2.2227660871   -2.0477222197
 H   -2.3464256335   -2.4386888861    0.5642921524
 H    0.6862475488   -2.6990047730    0.1195382732
 H    0.7485097626   -3.3760755979    2.5213021568
 H   -1.0398376486   -3.0726291929    2.6724569947
 H   -1.4948819236   -4.7700705534    0.8659652399
 H    0.2905118622   -5.0863766960    0.7007265913