25

 C    0.1966831602    1.5108964766   -0.0100658777
 C    0.0457482173   -0.0115203820   -0.0477856724
 C   -1.4154461672   -0.5442621331   -0.0018254295
 C   -1.3758284912   -2.0896755265   -0.0638630971
 C   -2.1790663498   -0.0691464303    1.2719452756
 C   -1.5500793789   -0.4487866463    2.6169470514
 C   -2.1528145708   -0.0524854694   -1.1745371739
 C   -2.7699707351    0.3446787399   -2.1305306659
 C   -3.5170850880    0.8205285352   -3.2873554852
 H    1.2463920138    1.7949000700   -0.1340240612
 H   -0.3781707129    1.9797893935   -0.8142038811
 H   -0.1467181459    1.9339997759    0.9392137661
 H    0.5076122940   -0.3958871931   -0.9646642472
 H    0.6011444853   -0.4603220790    0.7842405206
 H   -0.7961289438   -2.5013011193    0.7679188479
 H   -2.3858037998   -2.5080659034   -0.0221439594
 H   -0.9116033601   -2.4228932547   -0.9963452751
 H   -2.2940213830    1.0184320494    1.2198982833
 H   -3.1944437060   -0.4784088185    1.2179283252
 H   -1.4585197100   -1.5322903618    2.7389832071
 H   -0.5541528616   -0.0132032956    2.7443155567
 H   -2.1734353064   -0.0805678350    3.4379973791
 H   -4.2801908558    0.0965201598   -3.5945409444
 H   -4.0275918492    1.7660853969   -3.0725241743
 H   -2.8586987951    0.9893711109   -4.1468851788