19

 C    0.3341710271    0.5540275602   -1.3422309488
 C    0.0374970788    0.0487654020    0.0853568861
 C    0.1634575385    1.1425329931    1.0579051195
 N    0.2666768756    2.0106761558    1.8137225060
 C   -1.3559117716   -0.5693051006    0.1536431346
 C   -1.6565101206   -1.9941143360   -0.0981231298
 C   -0.5846570501   -2.9374931313    0.4451276901
 C   -0.7802111698   -2.2267104618    1.8075323824
 N   -1.8937782896   -1.3589965942    1.2738788292
 H    1.3304558219    0.9983949111   -1.3994980425
 H    0.2804681433   -0.2816169804   -2.0449386527
 H   -0.3952260531    1.3099330734   -1.6457284467
 H    0.7941277415   -0.6969303422    0.3471415155
 H   -2.1200950026    0.1199485071   -0.2015703440
 H   -2.4833367790   -2.2959942163   -0.7338679536
 H   -0.9151304499   -3.9769691014    0.4663650520
 H    0.4004657106   -2.9019548243   -0.0314820979
 H   -1.1822667118   -2.8789267183    2.5838876674
 H    0.0626298611   -1.6696758460    2.2273496233