19

 C   -0.1449415239    1.5061918211   -0.0965956335
 C   -0.0037279799    0.0159899859   -0.0066493243
 C    0.8532661945   -0.8972363466   -0.8935323063
 C    0.0698235049   -2.0606249137   -0.2411452296
 O    0.5332127351   -2.0378060095    1.1418852766
 C   -0.2109184474   -0.8138735997    1.2775522203
 C   -0.4573080914   -0.3517773359    2.6734510108
 O   -1.1443767742   -1.3292777363    3.4350745355
 C   -1.0929445523   -1.0617591156    0.0960777234
 H    0.7923621962    2.0105606656    0.1651809814
 H   -0.4170676158    1.8152784791   -1.1121458769
 H   -0.9221345323    1.8793537514    0.5785074990
 H    0.5923272120   -0.7705026153   -1.9482060853
 H    1.9404897194   -0.9070081251   -0.7627758867
 H    0.0085394240   -3.0606931902   -0.6642452433
 H    0.5080235387   -0.0914711740    3.1386453444
 H   -1.0760095926    0.5510926346    2.6703531812
 H   -0.7190803302   -2.1712088062    3.2337244812
 H   -2.1645087648   -1.0537629294   -0.0477709278