18

 C    0.2143502753    1.2027096622   -0.4612653453
 C    0.0301104264   -0.0561742765    0.3846561899
 O    0.3628861772    0.1492934399    1.7516308792
 C   -1.3910431521   -0.6167192030    0.2662681245
 C   -2.4937867628    0.1441044098    0.9674252801
 O   -1.7143314834   -1.1119853350   -1.0396803621
 C   -1.5944213088   -2.0664751216    0.0199178902
 C   -0.4948133852   -3.0027860820   -0.0701546260
 N    0.3673598604   -3.7702814416   -0.1311708407
 H    1.2509465417    1.5431706149   -0.3957775051
 H   -0.0237438489    0.9985678705   -1.5084203094
 H   -0.4355953101    2.0170561297   -0.1182483411
 H    0.7239032491   -0.8230060786    0.0262896476
 H    0.0654566940    1.0291236926    2.0054409067
 H   -2.5540690918    1.1713372971    0.5941191320
 H   -3.4614264455   -0.3317693597    0.7941139681
 H   -2.3032882794    0.1757903751    2.0433407495
 H   -2.5313953062   -2.5212896537    0.3375370020