20

 C   -0.1197401662    1.5596973181    0.0172868656
 C    0.0118635326    0.0390370053   -0.0130291273
 C    0.9844326481   -0.5224875298   -1.0672442310
 C    2.3463866777   -0.0070512264   -0.5723041943
 C    2.7277379500   -1.3366757091   -0.0547433829
 C    1.4015148256   -1.9671667170   -0.5068097039
 C    0.6524775318   -2.1016221111    0.8296007728
 C    0.7799915031   -0.6047944439    1.1670954803
 N    2.2422678618   -0.2903638458    0.8842779880
 H    0.8493420391    2.0442687857    0.1674318588
 H   -0.5454588796    1.9378594408   -0.9185337554
 H   -0.7783335911    1.8765466949    0.8327339195
 H   -0.9834062562   -0.4122263741   -0.1006879914
 H    0.7279797219   -0.4359877839   -2.1216146250
 H    2.9393766370    0.8337071725   -0.9139025561
 H    3.6914705550   -1.8035014325    0.1164095600
 H    1.4138614154   -2.8041702883   -1.2017528512
 H   -0.3875963613   -2.4308510335    0.7504195799
 H    1.1819308050   -2.7540690241    1.5307818376
 H    0.5094966502   -0.2855298080    2.1732531561