19

 C   -0.1068476098    1.5484959077   -0.0122027915
 C    0.0192196319    0.0178794577    0.0007785725
 C    0.7991675056   -0.5387971516   -1.1918601772
 N    2.1987470756   -0.0628233300   -1.2697572113
 C    1.8915221912   -1.3995686942   -0.6727218633
 C    1.7847310264   -1.3480251310    0.8122912618
 C    0.7856829017   -0.5463769841    1.1994497412
 C    0.4151310231   -0.1898309188    2.6040456534
 H    0.8852797105    2.0043699031   -0.0624495802
 H   -0.6812181609    1.8813848752   -0.8830343202
 H   -0.6194611392    1.9172214743    0.8817471853
 H   -0.9949860802   -0.4108469208   -0.0045470554
 H    0.2760239822   -0.7608743135   -2.1162587931
 H    2.5229917569   -0.2027523978   -2.2259307550
 H    2.2401003557   -2.2883186456   -1.1880981152
 H    2.4638900760   -1.8667723842    1.4795558956
 H    1.0185736971   -0.7430063107    3.3288302576
 H    0.5565208191    0.8807192284    2.7976466073
 H   -0.6429939030   -0.4046864041    2.8034675377