18

 C    0.0553924212    1.3487798444    0.3126257826
 C    0.0749612584   -0.1453758249   -0.0045444083
 O    0.7276493693   -0.9509065779    0.9632097803
 C    2.1228088702   -0.9115113084    0.9237616002
 C    2.8793757557    0.0319781636    1.8247614778
 C    2.8310805064   -1.4545942740    2.1204038002
 C   -1.3320562504   -0.7230590748   -0.1329637418
 O   -2.2702026570   -0.1241131197   -0.5879572903
 H    1.0558143875    1.7807925406    0.2462484706
 H   -0.6022033296    1.8544561061   -0.3986196601
 H   -0.3344202064    1.5142807911    1.3211692768
 H    0.5505760110   -0.3010844829   -0.9914461096
 H    2.5391345242   -1.1194120734   -0.0629808408
 H    3.8055927394    0.4665619005    1.4644848225
 H    2.2894640221    0.6775575745    2.4646746788
 H    2.2040751709   -1.7724955796    2.9455197054
 H    3.7219565229   -2.0529161850    1.9680907410
 H   -1.4081670258   -1.7734266004    0.2235762749