19

 O    0.4811273194    0.5033467764    0.8150983656
 C   -0.0907414319    0.2358871479   -0.4468325575
 C   -1.4188700230   -0.4888513454   -0.3319628197
 C   -2.0091017306   -1.4452198162   -1.3284649549
 C   -0.9499302567   -2.3602393830   -1.9663086114
 C   -0.5940069715   -2.8901491527   -0.5235307770
 C    0.8386905240   -2.8901095856   -0.0707879968
 O    1.2937806287   -2.2470577718    0.8466328672
 C   -1.6174818884   -1.9269768477    0.0797051487
 H    0.7199236786   -0.3576315008    1.1875955353
 H   -0.2561993313    1.2076779990   -0.9262874990
 H    0.6066603107   -0.3155063204   -1.0952319208
 H   -2.1823136033    0.1373651882    0.1263325302
 H   -3.0019009465   -1.3060058435   -1.7387016264
 H   -1.3811023985   -3.1431090496   -2.5917910660
 H   -0.1487801236   -1.8707483792   -2.5267146292
 H   -0.9318003932   -3.9318017077   -0.4506960765
 H    1.5008631476   -3.5717503948   -0.6521576885
 H   -2.2635476804   -2.1827752531    0.9103121568