11

 O   -0.1449649920    0.1012313144    0.0016310409
 C    0.0046391959    1.2881090515    0.0063489026
 C    1.4084071049    1.9157832781   -0.0018334842
 O    2.4455003713    1.3174893240   -0.0131187889
 O    1.2870525314    3.2623877149    0.0053736895
 C    2.5367299766    3.9681974153   -0.0013570688
 C    2.2501513818    5.3996491928    0.0092784506
 N    2.0584935559    6.5377074145    0.0174239735
 H   -0.8279901909    2.0174983597    0.0164972890
 H    3.1299671856    3.6895413545    0.8755225715
 H    3.1147080794    3.6996809902   -0.8914993357