16

 C   -0.0493565149   -1.1942368757    0.4150764110
 C   -0.0221766512   -0.0352981945    0.1007700996
 C    0.0205610686    1.3756737974   -0.2743792038
 C    1.3966227629    1.9882488442   -0.1650162540
 C    2.0484383809    2.3882566410    1.1237212366
 C    1.7722655141    3.4454831545    0.0682929275
 N    2.8554069280    3.7276908722   -0.8459291672
 C    3.0766248263    2.6349125711   -1.4581217685
 O    2.2962365318    1.5561410873   -1.1857971358
 H   -0.0735881090   -2.2200092328    0.6883013995
 H   -0.3426497463    1.5011673723   -1.3018135264
 H   -0.6589509085    1.9489120565    0.3682377477
 H    1.4067057466    2.3963659193    1.9980299580
 H    3.0783728942    2.1007699615    1.3058669597
 H    1.0723744452    4.2489343094    0.2655186064
 H    3.8411866414    2.4641564061   -2.2058458901