19

 C   -0.0551561070    1.5620330908    0.1386741284
 C   -0.1152606094    0.0629424450    0.3712492791
 C   -1.2267899851   -0.7535995299   -0.1291866787
 O    0.0461007153   -0.7643813180   -0.7797065220
 C    1.3475218488    2.0771523552    0.0058769951
 C    1.9744305646    2.5052777330   -1.0861008795
 C    3.3774389725    2.9199361912   -0.7529811299
 O    3.5112826452    2.6931526517    0.6493344634
 C    2.2953232463    2.1804465801    1.1771042703
 H   -0.6263247518    1.7944431613   -0.7655159722
 H   -0.5574813798    2.0595101767    0.9810384087
 H    0.4198347245   -0.2982855642    1.2512264087
 H   -1.5009811500   -1.6744799502    0.3835942903
 H   -2.0320793275   -0.2768852044   -0.6873399749
 H    1.5611079824    2.5586486838   -2.0856468153
 H    4.1325322864    2.3317486346   -1.2985844442
 H    3.5705255042    3.9809092266   -0.9799838852
 H    1.9073789101    2.8548628870    1.9596731179
 H    2.4806433004    1.2067688999    1.6599978500