14

 N    0.3360557682    1.3726068550   -0.1353596859
 C    0.0666531782   -0.0197145967   -0.0876486359
 C   -1.0702630931   -0.7626834009   -0.1057789144
 O   -0.7820207385   -2.0640666460   -0.0054420855
 N    0.6117694030   -2.2368466020    0.0787807154
 C    1.0915448146   -1.0162111131    0.0355096298
 N    2.4277024763   -0.6641958381    0.1060130223
 C    3.5265764096   -1.4912026918    0.1860082877
 O    3.5073810891   -2.6940853124    0.1884738979
 H    0.2236688548    1.7534175487   -1.0694831227
 H   -0.2646905915    1.9003186458    0.4874308876
 H   -2.1174746419   -0.5099772651   -0.1765159358
 H    2.5751579173    0.3370523170    0.1214115205
 H    4.4553763538   -0.8894571104    0.2459820390