20

 C   -0.0774596930    1.5842501271    0.0990126409
 C   -0.0179473484    0.0486063152    0.0247394614
 C    0.9008875159   -0.5307058501    1.1144208258
 C   -1.3951982954   -0.5516528745    0.1014812077
 N   -1.8606921278   -1.2512876608   -0.9061650360
 O   -3.1417520908   -1.6617001897   -0.5269438273
 C   -3.4106688595   -1.1939131886    0.7052280458
 C   -4.7411587880   -1.5342998335    1.2776952594
 C   -2.3470925148   -0.4817528448    1.1632132394
 H    0.9253077345    2.0105640116   -0.0061125839
 H   -0.7084585146    1.9944832606   -0.6945182412
 H   -0.4830724549    1.9194742429    1.0599763724
 H    0.3842839783   -0.2352285817   -0.9539794300
 H    0.9639154764   -1.6200725242    1.0405954489
 H    1.9118267165   -0.1219636729    1.0181535953
 H    0.5344088602   -0.2810082666    2.1162615779
 H   -5.5492381301   -1.1506766770    0.6462148423
 H   -4.8698389584   -2.6191181356    1.3521142215
 H   -4.8446054737   -1.1027639712    2.2749607031
 H   -2.2542749826    0.0178249038    2.1133007765