22

 C    0.0219288951    1.5733140158    0.0646911144
 C    0.0600832991    0.0561559296    0.0361284008
 C   -1.2556282116   -0.5408938601   -0.4416940909
 C    1.2952916390   -0.7309889972   -0.3577075546
 C    2.6720380059   -0.0775743919   -0.3753489092
 C    2.9198276351    0.4904652210    1.0501859481
 C    1.8469581123   -0.1431685706    1.9795131903
 C    0.7933671698   -0.7708749713    1.0747006057
 H    0.9502737626    2.0293340500    0.4087931156
 H   -0.1880106979    1.9696159739   -0.9361949885
 H   -0.7806518759    1.9231598451    0.7252938384
 H   -1.4993444117   -0.1986635310   -1.4548520970
 H   -1.2185870010   -1.6346095974   -0.4602163791
 H   -2.0838499990   -0.2466529349    0.2144109055
 H    1.1435961694   -1.5766696356   -1.0219614857
 H    3.4169154561   -0.8439906383   -0.6166485560
 H    2.7680042348    0.6996300882   -1.1421871293
 H    3.9314169105    0.2623109965    1.3982987589
 H    2.8423401975    1.5805819437    1.0533415406
 H    2.2919198134   -0.9335374849    2.5941489430
 H    1.4302896433    0.5931472225    2.6763250082
 H    0.2752618032   -1.6456772432    1.4563996508