19

 C    0.0057831288    1.4668813982   -0.0378935433
 C    0.0581229937   -0.0309867850   -0.0955226342
 C    0.6304210922   -0.9692192902   -1.1841064834
 C    0.0824332496   -1.9459096608   -0.1178161647
 O    0.0024707327   -3.3190362489   -0.1429864194
 C    0.4692226149   -0.9908194452    1.0662930875
 O   -0.8516406986   -1.0132009428    1.6742645512
 C   -1.1236638726   -1.0212881433    0.2340886303
 C   -2.5394032268   -1.0532345512   -0.2415692125
 H    1.0099366272    1.9033001618   -0.0699423071
 H   -0.5628472452    1.8793744563   -0.8784467842
 H   -0.4761933314    1.7871159549    0.8917896349
 H    0.1219233470   -0.9659640326   -2.1529278888
 H    1.7165907347   -0.9471777964   -1.3214826984
 H    0.8913139582   -3.6823364381   -0.2207853215
 H    1.3473868093   -0.9701017247    1.7123856157
 H   -3.0919637580   -0.1851288696    0.1308758182
 H   -2.5743994167   -1.0449607657   -1.3356035132
 H   -3.0382366289   -1.9606571468    0.1117376427