11

 C   -0.0018875477    1.5374812524    0.0395556188
 C    0.0046445566    0.0003479853    0.0064656016
 O    0.6931569014   -0.4313343882    1.1614149485
 C   -1.3872916203   -0.5176430529    0.0027314367
 N   -2.4673125080   -0.9247092944    0.0376519111
 C    0.6873740384   -0.4824929593   -1.2209364207
 N    1.2503586251   -0.8617584733   -2.1550531978
 H    1.0310402861    1.8895065646    0.0454415713
 H   -0.5225938641    1.9382510086   -0.8314994024
 H   -0.5047906387    1.8634583278    0.9515447864
 H    0.7182591312   -1.3964014205    1.1753392965