17

 C   -0.0093280904    1.5007027805   -0.0039842893
 C   -0.0082351773   -0.0141598467    0.0301108320
 O   -0.0128311467   -0.6322209148    1.0733848559
 C   -0.0012487113   -0.7378833023   -1.2839584064
 C    0.0003282520   -2.0775617980   -1.3800937316
 C    0.0076343209   -2.5049251277   -2.7993898589
 O    0.0110252162   -3.6386177613   -3.2166886650
 C    0.0100969969   -1.2247171941   -3.6505946861
 C    0.0048918950   -0.0594116647   -2.6415065352
 H    0.8723681172    1.8754603372   -0.5362595268
 H   -0.8870313479    1.8739166209   -0.5439052371
 H   -0.0141396952    1.8867529382    1.0153195367
 H   -0.0030928700   -2.7672595096   -0.5467613504
 H    0.8901392801   -1.2245260449   -4.3000192094
 H   -0.8648696308   -1.2260625307   -4.3068744472
 H   -0.8698150098    0.5905464212   -2.7608361441
 H    0.8803906511    0.5909795070   -2.7524986070