23

 C   -0.2426801875    1.5384083273    0.0207651454
 C    0.0022107923    0.0255602717   -0.0021640055
 C    0.8619484512   -0.4533309435   -1.2013300882
 C    1.6962333956   -1.6402511389   -0.6676115725
 C    1.7168173824   -1.4029134501    0.8334641099
 C    0.7861488436   -0.5055348871    1.1764114975
 C    2.6074000077   -2.1219027597    1.7645475409
 C    3.0731185455   -3.5407500439    1.4886812228
 C    4.0596875744   -2.4118271660    1.4233016885
 H    0.7055846760    2.0855285872    0.0668864001
 H   -0.7782420009    1.8653584762   -0.8773339350
 H   -0.8415488050    1.8320994719    0.8896863757
 H   -0.9821193629   -0.4698347048   -0.0325889039
 H    0.2638015503   -0.7110376808   -2.0798617738
 H    1.5366916976    0.3590638159   -1.4958239157
 H    1.2155956273   -2.6036320961   -0.8909694709
 H    2.6945290447   -1.6854319822   -1.1178210641
 H    0.5725955195   -0.2022629968    2.1972264498
 H    2.4228135945   -1.8920877395    2.8099729319
 H    3.1202222847   -4.2264990202    2.3272784481
 H    2.7662237467   -4.0001739463    0.5558162681
 H    4.4245301754   -2.1085608101    0.4484566330
 H    4.7876875967   -2.3105540442    2.2205008681