20

 C   -0.1509927659    1.3141878380   -0.0528199246
 N    0.0879558382   -0.1199610433    0.0847342631
 C    1.4881816690   -0.4964364237   -0.1682302645
 C    0.9353532333   -0.4676070263    1.2283961965
 C    1.0165224329   -2.0166871738    1.3335039331
 C    1.7407789525   -2.5771771712    2.5343655576
 C   -0.1611519329   -2.8042440073    0.7003940701
 O    0.4717516557   -2.7919508264   -0.6061331698
 C    1.5884414200   -2.0429721068   -0.1061741049
 H    0.6964311481    1.9441133957    0.2671756845
 H   -0.3681733656    1.5390153184   -1.1014255128
 H   -1.0254682121    1.5881696082    0.5454608464
 H    2.1497583211    0.1966710698   -0.6756017933
 H    1.1033059211    0.2454411160    2.0283971558
 H    1.1307217872   -2.4868592463    3.4413320217
 H    1.9785885591   -3.6366118576    2.3941190871
 H    2.6800348823   -2.0420224546    2.7143981394
 H   -0.2655514477   -3.8300232890    1.0763240859
 H   -1.1311368041   -2.3007301200    0.6880882875
 H    2.5620162978   -2.4684805699   -0.3678311888