16

 O    0.1599572487    1.4503459442   -0.0902613608
 C    0.1166429829    0.0563869066   -0.0653037083
 C    0.0495139494   -0.6553249849    1.2941426724
 N   -1.4429157639   -0.2470484379    1.4627608213
 C   -1.7879397337   -1.6924325881    1.7834271634
 C   -0.7048876815   -1.9046994136    0.7169094764
 C   -0.1587672707   -3.1119511119    0.1652450474
 C    0.2894122104   -4.1325317504   -0.2878676389
 C   -1.2526603117   -0.6385980870   -0.0315485042
 H   -0.4910214341    1.7605397770    0.5530846143
 H    0.8444117065   -0.3239047213   -0.7849604485
 H    0.7286375129   -0.6373910108    2.1482306535
 H   -1.5528627841   -1.9835625023    2.8117268934
 H   -2.8154381266   -1.9673439797    1.5263494463
 H    0.6866415714   -5.0319702019   -0.6894260102
 H   -2.0941078660   -0.6011318582   -0.7254930074