18

 O   -0.1044887895    1.4385518174   -0.0356781048
 C   -0.0592440356    0.0419509482   -0.0000164274
 C   -0.5502567404   -0.6923400283    1.2225876634
 C   -1.3721796320   -0.6907766917   -0.0482348489
 C   -2.6810206131    0.1070513769   -0.1557168252
 C   -3.4203231095   -0.6060276089   -1.2611052969
 C   -2.7956087716   -1.7087527429   -1.6686779607
 C   -1.5125629097   -1.9548409805   -0.9120272217
 H    0.5366427688    1.7749641542    0.5985596754
 H    0.7716697254   -0.3980834405   -0.5542171439
 H   -0.0464497796   -1.6075681668    1.5193224996
 H   -0.9117145332   -0.0830929552    2.0460435195
 H   -3.2559385049    0.0880784563    0.7812411890
 H   -2.4893898757    1.1617197586   -0.3800948345
 H   -4.3660392648   -0.2440752142   -1.6497032321
 H   -3.1516506540   -2.3832761538   -2.4395951594
 H   -0.6520008981   -2.0999663678   -1.5787366359
 H   -1.5810265725   -2.8659666409   -0.2996077854