21

 O   -0.0734587919    1.4432006024    0.0591005015
 C   -0.0402939650    0.0443725360   -0.0109895022
 C    0.3997575462   -0.7077386434    1.2900127847
 C   -1.0431420826   -1.2890479665    1.4458130750
 C   -1.3854139992   -0.7481235901    0.0561412035
 C   -2.6860067107   -0.2515363571   -0.5775477413
 C   -2.1944455019   -0.7909709252   -1.9588004667
 C   -0.9566143350   -1.4562932197   -1.2804650064
 C    0.3607975210   -0.6350822192   -1.3492059042
 H    0.8329881340    1.7704493993    0.0352217939
 H    1.1858825937   -1.4535405824    1.1441018633
 H    0.7005000772   -0.0251742732    2.0880615909
 H   -1.1308168813   -2.3704005355    1.5866642957
 H   -1.6038404626   -0.7918281024    2.2436383483
 H   -3.5671386253   -0.7868549519   -0.2095848843
 H   -2.8762719802    0.8224411115   -0.4993830482
 H   -2.8782973558   -1.4933015711   -2.4409154298
 H   -1.9350737534   -0.0149996726   -2.6842435729
 H   -0.8851353890   -2.5419749695   -1.3699374540
 H    0.4032924254    0.0576120898   -2.1957737134
 H    1.2905041863   -1.2121851791   -1.3187444734