16

 C   -0.0110323950    1.5043783870    0.0150872847
 C   -0.0104708311   -0.0065014189    0.0682779434
 O   -0.0574832172   -0.6235142140    1.1155565979
 N    0.0440890729   -0.6605586499   -1.1606731206
 C    0.0212763626   -0.0949277762   -2.4564554100
 C    0.0112951058   -1.1455666974   -3.3081558286
 N    0.0303396593   -2.3601298762   -2.6351483922
 C    0.0539745228   -2.0514459156   -1.3657477925
 N    0.1424389994   -2.9271640189   -0.3310136461
 H    0.8818490967    1.8781646975   -0.4950349094
 H   -0.8852094557    1.8745213361   -0.5294325465
 H   -0.0336431239    1.8798315043    1.0372698683
 H    0.0087547696    0.9682472056   -2.6099383823
 H   -0.0079392697   -1.1157258581   -4.3872065980
 H   -0.0866733869   -3.8801632321   -0.5608082000
 H   -0.0903027194   -2.5702879934    0.5838017718