16

 C   -0.0328213493    1.4385793685    0.0040317079
 N    0.0084901925   -0.0063575928    0.0352572964
 C    0.0140088871   -0.8366411734   -1.0383329294
 N    0.0567995883   -2.1074391163   -0.6850947406
 C    0.0801500075   -2.0849305713    0.6772664542
 O    0.1259259862   -3.2264510607    1.4068478463
 C    0.0518648250   -0.8057256780    1.1771986390
 C    0.0612898841   -0.2842306395    2.5714346191
 H    0.8547988914    1.8700743262    0.4783797569
 H   -0.0657517668    1.7680746395   -1.0362473492
 H   -0.9210467834    1.8197188923    0.5185430086
 H   -0.0146066881   -0.4622148602   -2.0508489764
 H    0.1355262270   -3.9495123695    0.7685986166
 H    0.9315258700    0.3511530622    2.7821838444
 H   -0.8354177310    0.3016000686    2.8125835215
 H    0.0968777794   -1.1299525556    3.2619117048