24

 C   -0.5231494713    1.0344179198   -0.4511112783
 C   -0.0476698637   -0.3886105905   -0.1255605360
 C    0.7961203159   -0.9437382962   -1.2842976528
 C    0.7654540749   -0.4933181597    1.1801763122
 C    0.0601406060   -0.2224078465    2.5420670028
 C   -1.2574941678   -1.0160939205    2.6800613974
 C    1.0285420917   -0.6277446144    3.6808789373
 C   -0.2276297927    1.2123781133    2.7144596429
 N   -0.4441249024    2.3345389897    2.8911477794
 H    0.3274685774    1.7212689374   -0.5310255645
 H   -1.0513152931    1.0469441716   -1.4102464669
 H   -1.1975247838    1.4388492261    0.3064127520
 H   -0.9323105949   -1.0321616439   -0.0313485654
 H    1.7036169737   -0.3457062085   -1.4299638378
 H    1.1044848911   -1.9784467392   -1.1003012728
 H    0.2326984722   -0.9225379178   -2.2224637746
 H    1.1591628140   -1.5155105286    1.2509113365
 H    1.6404730798    0.1657271365    1.1109211240
 H   -1.0612969718   -2.0806827453    2.5175670320
 H   -1.6776110995   -0.8926554918    3.6818548652
 H   -2.0078253160   -0.6888937972    1.9575322861
 H    1.9822531798   -0.1006082379    3.5916506105
 H    0.6004719229   -0.3973552438    4.6600088126
 H    1.2216881875   -1.7036828328    3.6312732683