17

 O   -0.6973051982    0.8996850194   -0.6373946638
 C    0.1494209286    0.9842059361    0.2154539748
 C    1.3837387574    1.8535920791    0.1118949216
 C    1.4533270519    2.6381175608   -1.1995254741
 O    2.6564678425    3.3846872633   -1.2636576499
 C    2.7386786726    4.3937622364   -0.2758049946
 C    2.5666907419    3.8594268537    1.1468110561
 O    3.2222122179    4.2720757441    2.0714521997
 C    1.4641205420    2.8193872122    1.3187614970
 H    0.0641003434    0.4143724141    1.1695305281
 H    2.2538923989    1.1817466127    0.1613366266
 H    1.4580066341    1.9643470299   -2.0581735673
 H    0.5749795433    3.2961724794   -1.2952649929
 H    3.7194078629    4.8647907754   -0.3625240644
 H    1.9656428364    5.1683003415   -0.4387309275
 H    0.5198508299    3.3800115640    1.3915940460
 H    1.6109775844    2.3022194980    2.2702793646