25

 C   -0.0104197589    1.5830283673    0.0498511337
 C   -0.0192302041    0.0479111019   -0.0036936481
 C    0.5437721465   -0.4338972295   -1.3598700694
 C    0.2697437009   -1.8791188532   -1.6974504236
 C    0.6222640616   -2.9290499438   -0.9571883707
 C    1.3614817399   -2.8693085156    0.3572325308
 C    0.6794483437   -2.0330120586    1.4634730584
 C    1.3116203572   -2.3544954960    2.8260199124
 C    0.7427617349   -0.5152350136    1.2103719420
 H    1.0117733909    1.9726895506   -0.0300292504
 H   -0.5937059484    2.0134317447   -0.7708918258
 H   -0.4319934832    1.9513200198    0.9909533985
 H   -1.0631711015   -0.2890983704    0.0611414368
 H    0.1279111525    0.1978578548   -2.1522516211
 H    1.6287508008   -0.2451889405   -1.3683881227
 H   -0.2618155566   -2.0627121065   -2.6286268448
 H    0.3624264073   -3.9219337681   -1.3177664932
 H    1.5004439332   -3.8899637075    0.7298912583
 H    2.3757183557   -2.4699106635    0.2001751324
 H   -0.3779294076   -2.3300021860    1.5000879421
 H    2.3766853005   -2.0925233262    2.8361627159
 H    0.8259406417   -1.7952610670    3.6324991727
 H    1.2309341756   -3.4210331470    3.0607022684
 H    1.8001084215   -0.2171626972    1.1296178925
 H    0.3619287258   -0.0102293891    2.1079902048