20

 C    0.0068388273    1.5467131742    0.0657413806
 C   -0.1497764309    0.0277447277   -0.0607529172
 C    0.6894215079   -0.5595014885   -1.1919068926
 C    2.2543607679   -0.5716771956   -1.0661730721
 C    2.2493622857   -2.0892097368   -1.3288530500
 C    1.4164845775   -2.7902488120   -0.2793890258
 C    0.7038835500   -2.0839538665   -1.3895563026
 C    3.1767094727   -2.7817856790   -2.1595315779
 N    3.9358462704   -3.3292774413   -2.8417326449
 H    1.0473342797    1.8245208658    0.2660760122
 H   -0.2988641324    2.0541799334   -0.8557951308
 H   -0.6047145645    1.9417622096    0.8822724102
 H    0.1202254608   -0.4494870485    0.8894470904
 H   -1.2042318496   -0.2213379548   -0.2375640137
 H    0.4141046047   -0.0729524441   -2.1333271064
 H    2.7519170059   -0.0006625445   -1.8505521760
 H    2.6711650911   -0.2805875209   -0.0968744670
 H    1.4140933910   -3.8728078004   -0.3431512831
 H    1.4170864299   -2.3996275002    0.7345417658
 H    0.0802468548   -2.6294579577   -2.0872683790