18

 C   -0.4102748256    1.1303857599    0.0735792488
 O    0.2899035602   -0.0961841191   -0.0692270438
 C    0.7957109532   -0.6129550115    1.1177012265
 C    2.0318908196    0.0666864454    1.6658258722
 C   -0.1697296005   -1.1992296659    2.1206096666
 O   -1.4778077153   -1.4609763853    1.6368000863
 C   -1.3232556518   -2.3913114368    0.6533898523
 N   -0.1628447329   -2.8488328826    0.4169661678
 C    0.7305566430   -2.1228129953    1.2813040773
 H    0.2554213481    1.9535150591    0.3674888104
 H   -0.8355017639    1.3603308559   -0.9058538366
 H   -1.2210090178    1.0462607054    0.8075661782
 H    1.8307484939    1.1077832148    1.9391460633
 H    2.3963820329   -0.4447994482    2.5616511297
 H    2.8287878098    0.0531899095    0.9158311622
 H   -0.1375330729   -1.0057822993    3.1862583876
 H   -2.2408621149   -2.6779932233    0.1558537178
 H    1.6027337849   -2.6540093027    1.6445489934