12

 N   -0.2260895580   -1.2467230658   -0.1387124904
 C   -0.1352178203   -0.0971512346   -0.0790281759
 C   -0.0082504038    1.3629596623    0.0542782895
 C   -0.2015886431    1.9121287255    1.5065549102
 C    1.2761932923    2.3302016468    1.3870797900
 O    1.3620317971    1.7905304767    0.0383464772
 C   -0.8121641924    2.0387742953   -0.9766380937
 N   -1.4464017606    2.6047339298   -1.7581557480
 H   -0.9261185910    2.7214987241    1.5768238620
 H   -0.4251696064    1.1406740400    2.2412876031
 H    1.4696879253    3.4062185591    1.3955232461
 H    1.9714877909    1.8226556908    2.0610874797