25

 C   -0.9151922394    0.9735209905   -0.0646010617
 C    0.1615611121   -0.1103219838   -0.0994061936
 C    1.3082475167    0.1547841434   -1.1045013436
 C    2.4554090141   -0.6165657213   -0.5056991149
 C    2.2345999323   -0.9604657835    0.7645505340
 C    3.1781457970   -1.7039494529    1.6603183781
 C    0.8800427214   -0.4368045747    1.2553589948
 C    1.1077300835    0.8180123493    2.1267343989
 C    0.0902918899   -1.4771732750    2.0649364860
 H   -0.4978605536    1.9546893060    0.1836595174
 H   -1.4010270900    1.0623151958   -1.0423354262
 H   -1.6968589915    0.7462936979    0.6687831093
 H   -0.3162716568   -1.0478147346   -0.4132514688
 H    1.0494651126   -0.1661886125   -2.1205713629
 H    1.5436739353    1.2281248070   -1.1753006222
 H    3.3695311621   -0.8324630962   -1.0503724061
 H    4.1189070024   -1.9248267224    1.1483380203
 H    3.4150444973   -1.1305597555    2.5655459203
 H    2.7488086705   -2.6547096692    1.9996708345
 H    1.6151398270    1.6099583317    1.5671503054
 H    0.1602840708    1.2188937518    2.5018918841
 H    1.7278904379    0.5781772217    2.9968609226
 H    0.5788602182   -1.7055701525    3.0184356794
 H   -0.9149117458   -1.1064660302    2.2960974141
 H   -0.0178723140   -2.4142468207    1.5084655109