12

 N   -0.1028058108    1.2776652581    0.3462520495
 C   -0.0463563702    0.0475637213    0.0235434652
 C   -1.2416453966   -0.7702687863   -0.1166442672
 N   -1.1944233447   -2.0132991757   -0.4420795293
 N    0.0519959379   -2.5178793689   -0.6481646055
 C    0.1108669212   -3.8938977217   -1.0088024742
 O    1.1202647236   -4.4904195508   -1.2244248362
 N    1.2304289477   -1.8275514124   -0.5401063265
 N    1.1982500475   -0.6142304464   -0.2232913252
 H    0.8449049861    1.6627728662    0.3890592551
 H   -2.2193857897   -0.3316453113    0.0561279712
 H   -0.9146999820   -4.2933520622   -1.0506023868