25

 C    0.1653742993    1.6541528435   -0.3838135758
 C    0.2268564342    0.1464062790   -0.2049408460
 C   -1.0193644733   -0.5410799923   -0.7509184058
 C    1.4842520180   -0.6639272252   -0.3905879564
 C    2.7282899902    0.0343637306    0.1758422042
 C    2.0914886553   -0.0109919680    1.6137823183
 C    2.7708852763   -1.0983696185    2.4561018037
 C    2.0090835534    1.2815388215    2.4283256089
 C    0.8030262500   -0.5874405414    0.9873460862
 H    1.1113031293    2.1555237301   -0.1776119030
 H   -0.1067783438    1.8932754769   -1.4190258500
 H   -0.5983283835    2.0991068085    0.2648624678
 H   -1.1471972094   -0.3274397010   -1.8184275346
 H   -0.9656828747   -1.6275814243   -0.6305658154
 H   -1.9195518121   -0.1906574464   -0.2326627197
 H    1.5138963702   -1.4993972114   -1.0816210393
 H    3.6369781310   -0.5684460697    0.1050411322
 H    2.9492103896    1.0259888452   -0.2319331449
 H    3.7847059197   -0.7945211010    2.7410154467
 H    2.2072263309   -1.2894550723    3.3770771329
 H    2.8407037898   -2.0422165308    1.9056929615
 H    1.5290650546    2.0967974751    1.8853069875
 H    1.4385200519    1.1174789030    3.3501514842
 H    3.0113199511    1.6178666981    2.7200554682
 H    0.2077893519   -1.3504597195    1.4816635087