20

 C    0.0189429274    1.5747913203   -0.0623201715
 C   -0.1593027224    0.0644253752   -0.1811472435
 N    0.8774334493   -0.5065490963   -1.0296818564
 C    0.8729782559   -1.8744295813   -1.2692007087
 N    1.3601045755   -2.3553422985   -2.4111539515
 N    1.2600846979   -3.7047935087   -2.2670909251
 C    0.7155506262   -4.0844315282   -1.0880123357
 C    0.5018885022   -5.5159081598   -0.7173029717
 C    0.4454244389   -2.9151665092   -0.4025128825
 H    1.0074947429    1.8175714829    0.3381320527
 H   -0.0793612058    2.0609996854   -1.0399069632
 H   -0.7408958792    2.0023554078    0.5979020321
 H   -0.0766926634   -0.3895772765    0.8133955348
 H   -1.1744887166   -0.1662861929   -0.5477902126
 H    1.0221289719    0.0097783181   -1.8882323034
 H    1.5717035791   -4.2939090825   -3.0190510148
 H    1.4446854732   -6.0743760012   -0.6865197658
 H    0.0444626275   -5.5820761799    0.2718982415
 H   -0.1604312093   -6.0269440439   -1.4258633078
 H    0.0111308789   -2.8348342309    0.5801234031