12

 C    0.0576320116    1.4794255377    0.0313054108
 C   -0.0773455176   -0.0007654909    0.0077874470
 C   -1.1210435502   -0.8452209389   -0.2154661926
 C   -0.6040937178   -2.1783669651   -0.0981147490
 C    0.7147947951   -2.0423264804    0.1876191485
 O    1.0530631596   -0.7250748692    0.2559100062
 H    0.7774743646    1.8305686536   -0.7168748625
 H   -0.9085383323    1.9424110137   -0.1809804332
 H    0.4016949846    1.8374616365    1.0083881514
 H   -2.1363092026   -0.5547835590   -0.4369136994
 H   -1.1450627285   -3.1046303310   -0.2119008245
 H    1.5165154234   -2.7399851870    0.3643811874