14

 O   -0.0363437028   -0.0121307976    0.0760551968
 C   -0.0150986872    1.1759752924    0.0401311839
 O   -1.1386200869    1.9496190458    0.0492641711
 C   -0.8133126330    3.3417132739    0.0115148918
 C    0.7066302746    3.3796780382    0.0136622258
 C    1.4224227682    2.7972364718    1.1878234958
 C    0.7390039837    2.5159354456    2.4156468651
 C    0.1749022013    2.2905175222    3.4528824888
 N    1.1683341242    1.9929716167   -0.0584797790
 H   -1.2187825269    3.7767779913   -0.9064901790
 H   -1.2663658491    3.8324743504    0.8780541329
 H    1.2145751291    4.1028095344   -0.6158671921
 H    2.4776271370    3.0337450918    1.2916878995
 H   -0.3215807720    2.0762456732    4.3676227086