19

 O   -0.1200618739    1.3949833308    0.2364783865
 C   -0.0587641487    0.0109828713   -0.0877539755
 C   -1.4586837566   -0.5573179308    0.0473778113
 C   -1.5065524318   -2.0836312759    0.0586699642
 C   -1.4113682776   -2.1397633353    1.5757882052
 C   -1.9527086848   -0.6509704060    1.5222891887
 C   -3.3963142320   -1.2197854627    1.4092949039
 C   -2.7146747669   -2.4983361965    0.9286706677
 O   -3.2502954063   -3.7679492344    0.8618350948
 H    0.7661664985    1.7603989654    0.1633920577
 H    0.3069633057   -0.1389811636   -1.1168233513
 H    0.6250105744   -0.5290989363    0.5865274186
 H   -2.1300083570   -0.0303330179   -0.6428143608
 H   -1.0894584089   -2.7890836195   -0.6507600597
 H   -0.7626433610   -2.6845305651    2.2451965740
 H   -1.7168204964    0.1426554172    2.2258339989
 H   -3.8528425497   -1.3708660423    2.3915450018
 H   -4.0961039471   -0.6963833219    0.7462189156
 H   -3.7181734799   -3.8568295765    0.0240225283