22

 C    0.0078877449    1.6432801127   -0.0194504676
 C   -0.1243885289    0.1162892440   -0.0166453187
 N    0.5491419249   -0.5364266999   -1.1381414058
 C    2.0085651587   -0.7074145998   -1.0402580232
 C    2.4771156649   -2.1465193962   -0.7758582065
 O    2.5583959702   -2.9395460712   -1.9318176198
 C   -0.0831520461   -0.9389773890   -2.2752198410
 C   -1.5649886666   -0.6351508632   -2.4268035209
 O    0.5142280266   -1.5394834371   -3.1672270860
 H    1.0573626823    1.9518449528    0.0012346074
 H   -0.4510448705    2.0766151777   -0.9131797780
 H   -0.4855056472    2.0681790355    0.8603514549
 H    0.2976498327   -0.2921255084    0.9088748121
 H   -1.1777617297   -0.1681142460   -0.0181616857
 H    2.4730724524   -0.3561207591   -1.9674314568
 H    2.3472492738   -0.0603684912   -0.2262820686
 H    3.4836333776   -2.1022178361   -0.3376926286
 H    1.8156313304   -2.5930125561   -0.0105547277
 H    1.8619808510   -2.6304222741   -2.5362321331
 H   -1.8080817801    0.4106424501   -2.2216263479
 H   -1.8410571466   -0.8787565180   -3.4520710587
 H   -2.1617382946   -1.2574858675   -1.7513075901