19

 C   -0.0263066125    1.4771990618   -0.3309015510
 C   -0.1302053544   -0.0322869835   -0.1700153409
 C   -0.1826745537   -0.6467704509    1.2036597416
 C   -1.4113563439   -0.6524272192    0.3265560613
 C    1.3694163793    1.9973873985   -0.2493364968
 C    2.2173251086    2.5530539469   -1.1581025201
 C    3.4401285565    2.8344321038   -0.4632597744
 C    3.2423612461    2.4288139245    0.8162255886
 O    1.9901037539    1.9175839261    0.9651315491
 H   -0.4407681883    1.7795046382   -1.2992921608
 H   -0.6438126541    1.9597101034    0.4388011708
 H    0.4160730697   -0.5927588770   -0.9238346360
 H    0.3372978652   -1.5834503603    1.3706916377
 H   -0.1674048476    0.0252992437    2.0547817569
 H   -2.2263673940    0.0139469293    0.5909025214
 H   -1.7327138108   -1.5920764476   -0.1088800924
 H    1.9979388921    2.7414706077   -2.1976727415
 H    4.3368422583    3.2793478393   -0.8651853679
 H    3.8539060993    2.4331313254    1.7033258345