16

 C   -0.0475711158    0.9036133457   -2.5275794527
 O    0.6249743112   -0.3194011262   -2.2054682772
 C    0.7520909302   -0.5978548927   -0.8956470195
 N    0.3447622266    0.1956156642    0.0063992350
 N    1.3750570104   -1.8327993323   -0.7113544381
 C    1.9075387479   -2.6691826471   -1.6917841833
 N    2.9441142799   -3.3580843150   -1.4278870098
 C    1.1274030117   -2.8601154080   -2.9844890254
 O    1.6273927196   -3.4181402900   -3.9259907287
 H   -1.0589845126    0.9061302975   -2.1150772346
 H    0.5003829170    1.7566627052   -2.1216976407
 H   -0.0714369988    0.9419621685   -3.6168073220
 H    0.4914901982   -0.1772304175    0.9404926451
 H    1.8247823894   -1.9503551433    0.1860757727
 H    3.1428387153   -3.9624447268   -2.2289612593
 H    0.0788331598   -2.5194361122   -2.9858918114