18

 C   -0.0724448158    1.5528822789    0.0079182227
 C    0.0437062567    0.0267061950    0.0063639730
 N    0.6992667256   -0.4946785845   -1.1857718178
 C    0.0827642624   -0.7017976347   -2.4079469556
 C    1.0247682154   -1.1196072057   -3.3073193709
 C    2.2740426366   -1.1699091553   -2.6137243764
 C    3.5684372390   -1.5661804803   -3.1434798777
 O    3.7801501129   -1.9132604357   -4.2867866415
 C    2.0248150606   -0.7728617074   -1.3075246259
 H    0.9161933352    2.0181315596   -0.0389199164
 H   -0.6537791608    1.9014917315   -0.8501935539
 H   -0.5711894670    1.8913444443    0.9211486044
 H    0.6149008200   -0.3152353833    0.8742656954
 H   -0.9475688638   -0.4326556851    0.0739453996
 H   -0.9779318026   -0.5355709386   -2.5143041925
 H    0.8688369169   -1.3794417168   -4.3419505070
 H    4.3971812450   -1.5290160275   -2.3980327868
 H    2.6941593138   -0.6742597643   -0.4663038926