21

 C    0.2737963298    1.4767946593   -0.2894952229
 C   -0.1238330406    0.0231536346   -0.0000966017
 C    0.4725832483   -0.4981002153    1.2814434004
 O    1.9072073218   -0.7557657790    1.2442916565
 C    1.0214271775   -1.8504395475    1.4935584488
 C    0.8679596539   -2.2076400187    2.9651670142
 C    0.2582978829   -0.9516717303    3.5726816313
 C    0.0242882958   -0.8312173051    5.0442181033
 C    0.0223637480   -0.0295884467    2.6317502800
 H    1.3620773817    1.5692336512   -0.3479063458
 H   -0.1509073013    1.8163450446   -1.2387761922
 H   -0.0794141532    2.1550875608    0.4942041615
 H   -1.2163126296   -0.0646257469    0.0562734809
 H    0.2070311126   -0.6177940837   -0.8243690649
 H    1.0091337005   -2.6240830771    0.7291506153
 H    0.2139390851   -3.0797698886    3.1000358592
 H    1.8316617348   -2.4595301434    3.4253981135
 H    0.9681279181   -0.8971273690    5.6005060900
 H   -0.4525663308    0.1188372819    5.2997888384
 H   -0.6114847738   -1.6458797857    5.4140146173
 H   -0.4094643117    0.9483846145    2.8107083469