23

 C    0.0232272207    1.3986936436   -0.4019395427
 C   -0.0163067372   -0.0757425531   -0.0277304646
 C   -0.3718237636   -0.5111872478    1.3725441612
 C   -1.3362333944   -0.7531253854    0.2372288885
 C    1.3659053170    2.0430624297   -0.2024252269
 C    2.1165503783    2.6202363940   -1.1437374908
 C    3.3831496538    3.2299386157   -0.5953826086
 C    3.4575311718    2.6427336433    0.8379654496
 C    2.0190446156    2.1679311212    1.1625325034
 H   -0.2804807873    1.5172754127   -1.4495243820
 H   -0.7324324254    1.9254818123    0.2006900586
 H    0.7324832142   -0.6781149374   -0.5356868865
 H    0.1457333221   -1.3626878873    1.8007133629
 H   -0.6245808002    0.2604075308    2.0927086713
 H   -2.2337213015   -0.1438674683    0.1969688943
 H   -1.4760264963   -1.7697224820   -0.1133714688
 H    1.8376690884    2.6944567076   -2.1903921925
 H    4.2709246575    2.9892842507   -1.1919235188
 H    3.3129512096    4.3276637383   -0.5854478694
 H    4.1321653475    1.7805835768    0.8408318833
 H    3.8454117605    3.3555170308    1.5702498387
 H    1.4723086473    2.9002936472    1.7756514288
 H    2.0052371815    1.2301441265    1.7274880909