17

 C   -0.2674594406    1.5140052462    0.0398756909
 C   -0.0526958753    0.0053082701    0.0282860009
 C    1.1348685151   -0.4735924041   -0.8541895065
 N    1.9754598854   -0.5561934505    0.3597326463
 C    0.7965284647   -0.5823582331    1.2183424988
 C    0.8957099142    0.2101594235    2.5014366583
 O    1.8703850114    0.7842629591    2.9087380900
 C   -0.3699899870    0.2283840695    3.2804783315
 N   -1.3675450780    0.2346625004    3.8656529215
 H    0.6704290062    2.0430979406    0.2353437100
 H   -0.6461632794    1.8452713605   -0.9324310130
 H   -0.9982776443    1.8131290118    0.7978862059
 H   -0.9935839857   -0.5203897330   -0.1388572640
 H    0.9328608516   -1.4384464227   -1.3393724533
 H    1.5025461377    0.2329018748   -1.6061848132
 H    2.6139546149   -1.3386643719    0.4351048781
 H    0.4183386490   -1.5837804211    1.4890490278