15

 O   -0.0236593213    1.4394699091    0.0027560183
 C   -0.0094628922    0.0244641282    0.0392943242
 C   -1.4275247503   -0.4874480555    0.0131886355
 C   -2.5339707819    0.3526055266   -0.0316145937
 N   -3.7853911690   -0.1265878673   -0.0539959180
 C   -3.9176705059   -1.4422857955   -0.0310305007
 O   -5.1576973023   -1.9682862944   -0.0516738671
 C   -2.8086603840   -2.3027103202    0.0145191681
 N   -1.5767575959   -1.8212318800    0.0360413999
 H    0.8849225160    1.7505899782    0.0272755226
 H    0.5335583590   -0.4017258805   -0.8190331146
 H    0.4848183737   -0.3562997014    0.9470524034
 H   -2.4126692637    1.4288469173   -0.0503237484
 H   -5.7697443364   -1.2193637081   -0.0822357623
 H   -2.9458137158   -3.3798158365    0.0327765729