19

 O    0.0698484045    1.3054655840    0.0820397762
 C    0.0022734245   -0.0987203253    0.2498851939
 C   -1.4072520270   -0.5586364102    0.0592857411
 C   -2.4826765868    0.1906906113   -0.1845424973
 C   -3.7441344436   -0.6227463228   -0.3242156079
 C   -3.3032575388   -2.0442935244    0.1202309644
 C   -1.7515034484   -2.0438748579    0.0907385821
 C   -1.1874295440   -2.6850083672   -1.1676037907
 O   -0.1522261017   -3.2977378790   -1.2238312171
 H    0.9844805865    1.5758062013    0.2013710152
 H    0.6587642925   -0.6266297953   -0.4623993759
 H    0.3433046595   -0.4013994362    1.2563977718
 H   -2.4555362221    1.2691309708   -0.2773613259
 H   -4.5643447756   -0.2337582033    0.2903106493
 H   -4.1113112765   -0.6095400504   -1.3592744929
 H   -3.6376980916   -2.2410702591    1.1420248475
 H   -3.7274274494   -2.8322813468   -0.5099160345
 H   -1.2983636859   -2.5592274159    0.9450268914
 H   -1.8023842660   -2.5072177037   -2.0816175110