19

 C    0.1266064655    1.4446971736    0.2974841278
 C   -0.0912107029   -0.0374444909    0.5418659739
 O    1.1636090554   -0.6250195127    0.8732529948
 C    1.0918400637   -1.9857974915    1.1223499517
 C    2.0759637566   -2.6229740214    2.0142475797
 C    2.4641351140   -1.6605555082    3.1495699920
 C    0.9749495576   -1.6662742912    3.5732393275
 O    0.4006247648   -1.2589226432    4.5430584173
 C    0.5621753299   -2.5565181325    2.4389611421
 H    0.8356795573    1.6009999668   -0.5203606283
 H   -0.8192838271    1.9273716627    0.0348919495
 H    0.5240723398    1.9265450976    1.1950098316
 H   -0.8043342496   -0.2008100149    1.3629541935
 H   -0.5034185856   -0.5254636190   -0.3559341452
 H    0.7742660906   -2.5806668131    0.2626458091
 H    2.6316076451   -3.5093555457    1.7375824617
 H    3.0763411179   -2.1257754170    3.9270668008
 H    2.8988951616   -0.7046960174    2.8536786330
 H   -0.2112555145   -3.3149361420    2.4585598875