23

 C   -0.0651866641    1.5017728003   -0.2386802757
 C    0.0130200385    0.0112281297    0.0991031783
 O    0.7065077178   -0.2017037351    1.3313099456
 C   -1.3573912344   -0.6354582651    0.1128987647
 C   -1.9516230813   -1.2751514821   -1.1219797263
 C   -1.5448297351   -2.1356954751    0.0517206396
 C   -0.3476470419   -3.0608333134   -0.0739861837
 C   -2.6603141335   -2.6961817108    0.9062671603
 O   -3.1705112619   -3.8684727916    0.2813545904
 H    0.9335459014    1.9464785866   -0.2310357498
 H   -0.5151382989    1.6584366151   -1.2240793847
 H   -0.6819445339    2.0332778300    0.4971736139
 H    0.6413436985   -0.4845152483   -0.6482241823
 H    0.1824741481    0.2023117112    2.0318487719
 H   -2.0666016465   -0.1030602222    0.7482783558
 H   -3.0074604654   -1.1318211907   -1.3252990832
 H   -1.3320905387   -1.3198203277   -2.0126214246
 H    0.3630326284   -2.7144605872   -0.8279669508
 H    0.1900328649   -3.1350579561    0.8773088137
 H   -0.6851912005   -4.0596841992   -0.3633620397
 H   -2.2701404295   -2.9271761018    1.9112032835
 H   -3.4529396099   -1.9399139261    1.0256600719
 H   -3.7504026322   -4.3130684304    0.9062418414