17

 C   -0.3903944276    1.5741325840    0.2483910108
 C    0.1362392676    0.1539740000   -0.0369182293
 N    0.9895668584    0.1576009343   -1.2046501969
 C    2.1747132063   -0.5185017983   -1.3674386509
 N    2.7218610540   -0.6255988655   -2.5151757699
 C    2.8097596846   -1.0824469372   -0.1040766943
 O    3.8966656667   -1.6214728279   -0.1628286876
 C    2.0470801272   -0.9586024656    1.1438295894
 C    0.8265207240   -0.4129232322    1.1623396110
 H    0.4380135439    2.2484252918    0.4808212439
 H   -0.9183390619    1.9630665699   -0.6275415194
 H   -1.0915316374    1.5656107520    1.0882774320
 H   -0.7480876591   -0.4870872839   -0.2153322030
 H    0.5844411923    0.4878807534   -2.0691717595
 H    3.6099301369   -1.1157747224   -2.3929575915
 H    2.5130772871   -1.3629545414    2.0364747204
 H    0.2587289871   -0.3621073708    2.0878757647