27

 C   -0.0224648566    1.5534423335   -0.1292507105
 C    0.0404446552    0.0259684322   -0.0465301355
 C    0.6875290116   -0.4825078117    1.2468887869
 C    0.7460290761   -2.0123327052    1.3287575185
 C    1.4718478168   -2.5668169312    2.5674556826
 C    0.7693811928   -2.2138600480    3.8854193776
 C    1.6385347650   -4.0814425977    2.4338661215
 O    2.4311340935   -4.5615557917    3.4996641322
 C    2.6091260973   -5.9553530447    3.4674643344
 H    0.9795749948    1.9942142702   -0.0802572630
 H   -0.4864264969    1.8855011764   -1.0633881115
 H   -0.6060958010    1.9712545286    0.6987831593
 H   -0.9735471543   -0.3874981137   -0.1301164367
 H    0.5974836058   -0.3654538497   -0.9082603836
 H    1.7056331230   -0.0758668289    1.3266055230
 H    0.1325575515   -0.0803711960    2.1037571712
 H   -0.2768351180   -2.4154733912    1.2990200173
 H    1.2461345556   -2.3908725913    0.4262512544
 H    2.4852265654   -2.1416490564    2.5914381611
 H    1.2761791855   -2.6960589523    4.7242268304
 H    0.7616458733   -1.1354128488    4.0655747204
 H   -0.2721994024   -2.5592722676    3.8753035237
 H    0.6493482789   -4.5751515752    2.4417011944
 H    2.1141012549   -4.3287773599    1.4688615753
 H    3.1123420285   -6.2833047461    2.5433702374
 H    3.2325343852   -6.2278750855    4.3228845960
 H    1.6502329484   -6.4935590381    3.5410712733