18

 C    0.0016076734    1.4936394669    0.0065036021
 C    1.3225124719    0.7631431198   -0.0045300726
 C    2.0092698267    0.5584258909    1.3386467975
 C    0.9015051210    0.0167049410    2.2401957235
 C    1.0573589790   -0.2253417674    3.6749236557
 O    0.3612187552    0.9337054881    3.2084138153
 C   -0.1107869799   -0.7082255511    1.3552478554
 C    0.0188430094   -0.0157448034    0.0056793547
 H   -0.3004041354    2.0109972182    0.9114999125
 H   -0.2995885684    1.9857383943   -0.9117810298
 H    1.9349679053    0.8127904514   -0.8975803013
 H    2.8135736861   -0.1815163041    1.2389082021
 H    2.4399227414    1.4686465178    1.7669902080
 H    0.4395000264   -0.9755770369    4.1683304553
 H    2.0164264980   -0.0334257462    4.1559753421
 H    0.1585226158   -1.7678056497    1.2596988498
 H   -1.1113873215   -0.6531223965    1.7947976800
 H   -0.3253758943   -0.5376676031   -0.8798799502