14

 O    0.1017725463    0.0623769871    0.2628860720
 C    0.0150310771    1.2392303271    0.1373458730
 O   -1.1039179247    1.9379026982   -0.2119553314
 C   -0.7617236524    3.2787365847   -0.2474477014
 C    0.5237688907    3.4115726187    0.0792593637
 O    1.0330666874    2.1426978714    0.3210860782
 C    1.4271405257    4.5539245953    0.2031364069
 C    2.5649068315    4.5139208650    1.1664808107
 N    2.8207756691    4.4575441939   -0.2770493802
 H   -1.5326201705    3.9787092124   -0.5143555539
 H    0.9473849366    5.5051577511   -0.0089018380
 H    2.8730026580    5.4341563903    1.6537820222
 H    2.6915989237    3.6106452953    1.7553493724
 H    3.0183373016    3.4971552795   -0.5509955241