21

 C    0.1741689250    1.3361836937   -0.2298291055
 O    0.3011667478   -0.0629202368   -0.1715673366
 C    0.4229762864   -0.5433507995    1.1529713927
 C    0.5035840303   -2.0444049161    1.1108222755
 C    1.8136558031   -2.7262606532    0.8491287174
 C    1.1897398331   -2.8135098679    2.2346543631
 C    1.7871817627   -2.1432334315    3.3554068127
 C    2.2822862790   -1.6014607412    4.3118650098
 C    2.8856482467   -0.9498958750    5.4657905102
 H    1.0524705104    1.8468077658    0.1975402679
 H    0.0833970490    1.6143885195   -1.2828265034
 H   -0.7194927269    1.6907751059    0.3092771963
 H    1.3199185067   -0.1271767921    1.6385314905
 H   -0.4449986829   -0.2227281879    1.7550911478
 H   -0.3817745872   -2.5217565920    0.7014273609
 H    1.8251060679   -3.6256784256    0.2441427720
 H    2.6922763019   -2.0992763839    0.7482504130
 H    0.7279192859   -3.7664260534    2.4783145359
 H    2.9928772670   -1.6490488969    6.3027815170
 H    3.8839558401   -0.5635220327    5.2310099331
 H    2.2787256839   -0.1074366792    5.8166004196