17

 N    0.0360201351    1.3496963765   -0.1577010565
 C   -0.0376571501   -0.0217345410   -0.0103803475
 N   -1.1755917223   -0.5975631585    0.0174938213
 C   -1.1956593677   -2.0663244765    0.0489659117
 C    0.1347724562   -2.6834392486   -0.4142530781
 O    1.2135272329   -2.0927918622    0.2871264450
 C    1.3124157972   -0.7197283655    0.0043458132
 C   -1.5686878157   -2.5404092293    1.3856857046
 C   -1.8704933774   -2.9474949748    2.4751338484
 H    0.8157808565    1.8146052253    0.2829676382
 H   -0.8500117467    1.8169881579   -0.0216279407
 H   -1.9776332144   -2.3910141384   -0.6523710144
 H    0.1703412617   -3.7542188129   -0.2038083324
 H    0.2469263190   -2.5281695773   -1.4998629737
 H    1.8035652670   -0.5442723587   -0.9692243223
 H    1.9535155023   -0.2808999211    0.7778999421
 H   -2.1393687936   -3.3005903250    3.4396809312