15

 N   -0.0552389776    1.4196015263    0.1322146643
 C   -0.0245741254    0.0439206689    0.0591563513
 C   -1.1680456477   -0.8030361990    0.0729026015
 C   -0.6731940398   -2.0862169817    0.0578468607
 N   -1.2889070472   -3.3066732723    0.1251310257
 H   -2.2426892274   -3.3345482190   -0.1990418187
 H   -0.7253780015   -4.0797167067   -0.1980269904
 O    0.6595822363   -2.1077547875    0.0306184067
 C    1.0955195106   -0.7788304470    0.0293935512
 C    2.4905540111   -0.4995467747   -0.0160407077
 O    3.4041016469   -1.3064695904   -0.0532700647
 H    0.7830675752    1.8996373590   -0.1569565876
 H   -0.8917502959    1.8532383240   -0.2271963706
 H   -2.2044768755   -0.5077964271    0.1100211534
 H    2.6976164379    0.5993514273   -0.0171127950