16

 O   -0.1098655220    1.4078654970   -0.0420700517
 C    0.0186257772    0.0379449342   -0.0406105904
 C   -0.0827763392   -0.8736801552    1.1632656360
 C    0.9736893637   -1.9507275683    1.0492304799
 C    0.7147309861   -2.7942524791   -0.1371421918
 C   -0.2728672545   -1.9258157919   -0.9535905757
 C   -1.0732999400   -1.0089919016    0.0056357498
 C    0.8574223871   -0.8570539230   -0.9851643030
 N    1.8010921198   -1.7486047480   -0.1861035247
 H    0.6397089531    1.7853607275    0.4328496481
 H   -0.4179746738   -0.4739062585    2.1110350926
 H    1.5157610354   -2.3166186005    1.9124190482
 H    0.9242237743   -3.8537959116   -0.2336238809
 H   -0.7385584754   -2.3084677186   -1.8573780845
 H   -2.1457743648   -0.9040877400    0.1138015907
 H    1.2800922630   -0.4492883924   -1.9000285227