25

 C   -0.1454618238    1.5417419340   -0.0665821031
 C    0.1242252409    0.0320130118   -0.0789071058
 C    0.7432120418   -0.5258911459    1.2104528505
 C    2.1301705997    0.0660902590    1.4765009888
 C   -0.1465528121   -0.4920326725    2.5105591727
 C    0.0050052623   -2.0160849854    2.6496868038
 C    0.2299356134   -2.7349416053    3.9491482664
 C   -0.5819356292   -2.6746810667    1.4328411776
 C    0.7917200705   -2.0641183850    1.3359294589
 H    0.7775823080    2.1242554017    0.0107345949
 H   -0.6522453815    1.8527120878   -0.9855790844
 H   -0.7867809736    1.8241153026    0.7756716607
 H   -0.8181925716   -0.4903405474   -0.2790153603
 H    0.7881490250   -0.2137178328   -0.9192900570
 H    2.0851936212    1.1469963542    1.6431510284
 H    2.5835569837   -0.3878188366    2.3639652437
 H    2.8030869576   -0.1166615142    0.6298385810
 H    0.3228773197    0.0708322162    3.3221378365
 H   -1.1748417788   -0.1321477078    2.3910325963
 H   -0.6751533888   -2.7293779271    4.5696439992
 H    0.5054387837   -3.7815051294    3.7804035890
 H    1.0315788584   -2.2681103472    4.5335284942
 H   -0.5936411081   -3.7606892220    1.4555207024
 H   -1.4342605881   -2.2399502620    0.9155081141
 H    1.6593724197   -2.6669247001    1.0851033516