19

 C    0.0180974237    1.4601121195    0.0404135116
 C    1.3214698837    0.6929758315   -0.0553912090
 O    2.0836852911    0.4415551953    1.0914477313
 C    1.2682836629   -0.2560290785    2.0390254449
 C    0.0540630238   -0.8284775653    1.2835345253
 O    0.2060748601   -2.1924954884    0.8881366019
 C    0.1342839424   -2.3162510765   -0.5369824997
 C   -0.4845375719   -1.0099637440   -1.0660894882
 C    0.0184950775   -0.0473870309   -0.0199891775
 H   -0.2470995802    1.9453161521    0.9748470963
 H   -0.2987191636    1.9989021539   -0.8471370704
 H    1.9341436887    0.7810773267   -0.9460637098
 H    1.8653257953   -1.0457367798    2.5034313411
 H    0.9317234022    0.4360396106    2.8233184515
 H   -0.8564370388   -0.7454123630    1.8917682762
 H    1.1446019649   -2.4562214740   -0.9471079720
 H   -0.4577693838   -3.2055824715   -0.7746526312
 H   -0.1530869020   -0.7712121582   -2.0799957948
 H   -1.5796694359   -1.0616605695   -1.0679683276