16

 C    0.0298328717    1.3371655764    0.2436689085
 N   -0.0337252688   -0.1008159385    0.0450059176
 C   -1.2032671962   -0.7727241727   -0.0011700385
 C   -1.4099404674   -2.1513480369   -0.0058378456
 C   -0.3811998047   -3.2291984397    0.0352249824
 O    0.6564521987   -2.9279146238    0.9793678921
 N   -2.7549892143   -2.3231922705   -0.0661734516
 N   -3.4074859424   -1.2688674500   -0.1100505395
 O   -2.3468663923   -0.1368864984   -0.0588798099
 H    1.0472040388    1.6749627535    0.0371828553
 H   -0.6502064099    1.8333657653   -0.4517627528
 H   -0.2434751343    1.6378157758    1.2638528363
 H    0.7451116136   -0.6697575375    0.3473338704
 H   -0.8648043143   -4.1915892566    0.2454472843
 H    0.1480239710   -3.3296764612   -0.9197717553
 H    0.2454850109   -2.8919929853    1.8507210761