16

 O    0.1506973328    0.3067650990   -0.9736011252
 C    0.0407381013    1.2631072501   -0.2656851078
 C   -1.1570910745    2.0754811043    0.2536195376
 C   -0.1476773324    3.1421547059    0.7689085167
 C    1.0439489344    2.2022142327    0.4242933247
 C   -0.1814150000    4.5636570836    0.1483563422
 N   -0.3227853156    5.4841967928    1.2865013608
 C   -0.3600907685    4.7478632939    2.3149571763
 O   -0.2724500308    3.4003021516    2.1862975821
 H   -1.8902283962    2.3944973375   -0.4922749759
 H   -1.6776911383    1.5692421148    1.0728388462
 H    1.4868122974    1.7514499970    1.3182207955
 H    1.8417449374    2.6093799487   -0.2028893109
 H    0.7344534757    4.7959716445   -0.4057360510
 H   -1.0216319475    4.6947898138   -0.5420350936
 H   -0.4593702153    5.0935798899    3.3377263524