18

 O    0.0521343411   -0.0215980780    0.5358199377
 C    0.1732540167    1.1826039730    0.5764885872
 C    1.2980762850    1.9284285392   -0.0132131997
 C    1.3020627876    3.2644286986    0.0968017188
 C    2.3608737402    4.1682738282   -0.4560063228
 C    3.6034688450    3.4319133481   -0.9131835727
 N    4.2637825909    2.6054402885    0.1115483256
 C    3.6056096758    1.9499659059   -1.0324729633
 C    2.3680049168    1.1375558381   -0.7178556306
 H   -0.5876908729    1.8214001289    1.0803542841
 H    0.4739543021    3.7444823255    0.6163343332
 H    1.9383718007    4.7314178846   -1.3019926563
 H    2.6280530619    4.9242677475    0.2951053569
 H    4.2410667815    3.9902039133   -1.5952225550
 H    5.2712195535    2.6172010554   -0.0205915636
 H    4.2510938432    1.5179672687   -1.7943612957
 H    2.6265281060    0.2617640887   -0.1113164327
 H    1.9546187751    0.7319376657   -1.6511526609