16

 N   -0.0657988865   -1.1372838346   -0.0774259713
 C   -0.0180721480    0.0127118891    0.0297779207
 C    0.0272308366    1.4660648285    0.0741025618
 C   -0.3415603315    2.0881962735    1.4406067366
 N    0.6751742241    1.4053503031    2.3036225529
 C    1.6334295567    2.3132137709    1.6332873667
 C    0.5904676828    3.4095452267    1.3394868192
 N    1.1405176457    3.5800506756   -0.0055125038
 C    1.4482982960    2.1312687242    0.0642841744
 H   -0.5690604316    1.8605034604   -0.7546928933
 H   -1.3820080316    2.0800996911    1.7583243141
 H    0.5619215189    1.7200830549    3.2663030453
 H    2.6333525623    2.4646934880    2.0316315018
 H    0.3590653940    4.2762764038    1.9584168389
 H    0.4856614436    3.8473408934   -0.7401978710
 H    2.2068300984    1.7248311513   -0.6012061331