17

 O    0.5994130125    0.9287409217   -0.6489165072
 C    0.1469594734   -0.1760720349    0.0664151719
 C   -0.1321433745   -0.0772319721    1.5921986523
 C   -1.3364832130   -1.0326306880    1.3952162176
 C   -1.3160377128   -0.7056504853   -0.1445335911
 C   -2.3193405652    0.3685673663   -0.4752877135
 O   -2.0933383377    1.5623951227   -0.3589642297
 C   -3.6218717337   -0.1018546567   -0.9102150024
 C   -4.6937687368   -0.5168522286   -1.2683024631
 H   -0.0869428397    1.6062957207   -0.5646906277
 H    0.8467769924   -0.9922141835   -0.1398140480
 H    0.6612493357   -0.3862058583    2.2757894738
 H   -0.4611576446    0.9309172244    1.8566237597
 H   -1.0835812706   -2.0812039999    1.5651033221
 H   -2.2572298700   -0.8034796877    1.9349066462
 H   -1.4575523567   -1.5584069634   -0.8126230038
 H   -5.6460530488   -0.8657955375   -1.5874561071