19

 C    0.3309284148    1.5859057395   -0.5508898073
 C    0.2021959605    0.1580110974   -0.2928632599
 C    0.1439959528   -1.0293915636   -0.0837654474
 C   -0.0343319220   -2.4395104245    0.1922316642
 C    0.0194086814   -2.9383188704    1.6743773335
 C   -1.2190851194   -3.8335026969    1.3756488583
 O   -2.2441602563   -3.9151925243    2.3173419018
 C   -1.5088845974   -2.9714886068    0.1106248379
 O   -2.4664951550   -1.9901446483    0.4527358173
 H    1.3569278553    1.8410122693   -0.8377242010
 H   -0.3288383955    1.9064784245   -1.3644910677
 H    0.0775591127    2.1770165253    0.3358760681
 H    0.6130258637   -3.0475662226   -0.4474068272
 H    0.9401858945   -3.4241243189    2.0018223135
 H   -0.2363003441   -2.1383713016    2.3719390323
 H   -0.9226027131   -4.8527419898    1.1090736969
 H   -2.7216243639   -3.0765031046    2.2449933831
 H   -1.7970609641   -3.4842278274   -0.8145589393
 H   -2.1140699851   -1.1287800164    0.1880769129