22

 C   -0.1833859607    1.3809599993   -0.0876130558
 N   -0.2206073515   -0.0701659668   -0.2107039729
 C    0.5832032456   -0.6398010791   -0.9817125014
 O    1.5733008924   -0.1094882479   -1.7972458222
 C    1.9841105646   -1.4420644885   -2.2252681951
 C    0.8720870128   -2.0816704854   -1.3607485203
 C    1.2777530457   -3.0453439283   -0.2390468396
 C    0.0878918710   -3.3282674954    0.6876841293
 C    1.8581983686   -4.3415820444   -0.8201774782
 H    0.6128041916    1.8597493851   -0.6692571752
 H   -1.1469807288    1.7932111429   -0.4075657402
 H   -0.0576801895    1.6470681891    0.9675563167
 H    1.8951334711   -1.5509213265   -3.3088461984
 H    3.0094687430   -1.6522649726   -1.9067671818
 H    0.0660565534   -2.5218708536   -1.9580121889
 H    2.0623604233   -2.5509486519    0.3513566360
 H    0.3946115786   -3.9558177085    1.5307923071
 H   -0.3359442834   -2.3984959935    1.0746547550
 H   -0.7048533347   -3.8608648965    0.1482446843
 H    2.7274554687   -4.1511512762   -1.4589797324
 H    2.1756424858   -5.0178542919   -0.0201363970
 H    1.1091229624   -4.8689785993   -1.4227129991