18

 O   -0.3123484810    0.0324148174   -0.1341577703
 C   -0.2020312110    1.2242552492   -0.0616840594
 N   -1.1136837087    2.1365804973    0.4221433434
 C   -0.7578563211    3.5047526530    0.1020041933
 C    0.7600308935    3.2987106009   -0.1401718784
 O    0.9116510231    1.9110040980   -0.4599605576
 C   -1.4782826770    4.1048734051   -1.0983575440
 C   -1.8111756263    3.2946354869   -2.3245712002
 C   -2.9152652340    3.7900176844   -1.4228574027
 H   -2.0580439613    1.8294835777    0.5823390770
 H   -0.9152017162    4.1564818625    0.9693068852
 H    1.1368146665    3.8912660359   -0.9761379513
 H    1.3464274517    3.5219309265    0.7578629505
 H   -1.1745510027    5.1339441769   -1.2767332025
 H   -1.6854178066    3.7612070123   -3.2948576035
 H   -1.5981438296    2.2314749774   -2.3122558690
 H   -3.4362472303    3.0521262358   -0.8210839204
 H   -3.5499976389    4.5985370928   -1.7672327701