21

 C   -0.0494106951    1.3641864118   -0.0079041434
 C   -0.2521758351   -0.0809752284    0.4049040961
 O    0.0590463631   -0.9887052719   -0.6835515704
 C    0.9606222796   -1.7542456367    0.1327225559
 C    2.4328086676   -1.5257918103   -0.2202915490
 O    2.8019918501   -0.3073946165    0.4166978203
 C    2.1254145253   -0.3007712060    1.6752481875
 C    2.2824352808    1.0525831103    2.3485412690
 C    0.7217015376   -0.8382914931    1.3604224255
 H    0.9807423787    1.5409651518   -0.3225964805
 H   -0.7105231679    1.5836476463   -0.8529496690
 H   -0.3068681951    2.0492833660    0.8063849832
 H   -1.2951670360   -0.2277363973    0.7203902961
 H    0.6805362212   -2.8117063581    0.1778672560
 H    3.0446976817   -2.3610133702    0.1596819689
 H    2.5936994640   -1.4205934586   -1.2957342413
 H    2.5965263497   -1.0587742358    2.3303959248
 H    1.8661789015    1.8632986565    1.7506792376
 H    1.7824302924    1.0450305876    3.3221333796
 H    3.3433079571    1.2606113204    2.5136976620
 H    0.2394057189   -1.2770737078    2.2345247610