14

 O    0.4602251658    0.0517723753    0.5741279052
 C    0.1298674130    1.1723599783    0.2764512156
 C    1.1549758112    2.1863804527   -0.0546924972
 N    1.9400594885    2.9944748772   -0.3150510496
 C   -1.2899231106    1.6562380264    0.1586395723
 C   -1.8728374611    1.5801384688   -1.3070639366
 C   -3.0684645406    0.8111672784   -0.7076744706
 O   -4.1387809292    0.5071993643   -1.1379575478
 C   -2.3877932566    0.6777332881    0.6604522607
 H   -1.3715007814    2.6681423846    0.5611589524
 H   -2.1019060615    2.5258925839   -1.8014599174
 H   -1.2800664970    0.9580953950   -1.9854591788
 H   -1.9875098910   -0.3277624663    0.8264227112
 H   -2.9753480594    0.9782771032    1.5301353505