19

 O    0.0153501035    1.4694813968   -0.0740145599
 C    0.0160564004    0.0668794828    0.0378514136
 C    0.1515346130   -0.6133817522    1.4379195822
 C   -0.9141791169    0.1558871278    2.2377912602
 C   -2.1281625641   -0.1144951950    1.2917143101
 C   -2.7651720533   -1.4239097955    1.7636874604
 O   -1.6900482878   -2.3739609086    1.6482214163
 C   -0.7200336679   -1.7686859963    0.8159365346
 C   -1.3613582046   -0.6016604024    0.0216168222
 H    0.9248750938    1.7794948104   -0.0198093674
 H    0.6854817862   -0.3912900045   -0.7024291454
 H    1.1217275530   -0.7925967771    1.9024436568
 H   -1.0728146492   -0.2483988026    3.2405963135
 H   -0.6691956267    1.2165113732    2.3113898061
 H   -2.8216587600    0.7147188453    1.1575269180
 H   -3.0990784148   -1.3904478038    2.8063461933
 H   -3.6115690123   -1.7369477953    1.1337526801
 H   -0.1719787770   -2.5327344987    0.2650919507
 H   -1.9381111153   -0.7478976343   -0.8910219757