18

 O    0.5194862483    1.2870060423   -0.5528465685
 C    0.0769355961    0.0795044556   -0.0273394309
 C    0.2046085868   -1.0903813303   -1.0210673124
 O   -1.1836598591   -1.4719438616   -0.8504435147
 C   -1.4073501456   -0.4255771182    0.1115238638
 C   -1.0665093492   -0.8682053191    1.5406750986
 C   -1.9979779057   -1.0011648277    2.6819480520
 N   -1.3622963341   -2.1875495530    2.0810694417
 C    0.3514128728   -0.2767775702    1.4575540648
 H    0.4656354707    1.9618601271    0.1316990513
 H    0.4030028814   -0.7541898548   -2.0445109187
 H    0.8985411786   -1.8936525525   -0.7488038765
 H   -2.3241079368    0.1392455457   -0.0780673259
 H   -1.6623464314   -0.7667636428    3.6892383190
 H   -3.0546838936   -0.8161795479    2.5012145969
 H   -2.0022556622   -2.6708376832    1.4534958583
 H    1.1780051907   -0.9624376629    1.6604626566
 H    0.4745734023    0.6202145435    2.0767852047