20

 C    0.0978078162    1.5078344485    0.1193657676
 C   -0.0355025236    0.0214723688   -0.0292055451
 C   -0.8881232946   -0.8305599561    0.8239529032
 N    0.5813538140   -0.9668634079    0.9622827089
 C    0.9814367238   -1.8013324105   -0.2005974352
 C    2.2483258545   -2.5859037882   -0.2222138059
 C    0.9051726311   -3.2924559031   -0.2356371439
 C    0.4752807181   -0.7967018450   -1.2287804735
 O   -0.4530779068   -1.3213327643   -2.1530251020
 H    1.0946599527    1.8497640783   -0.1801191371
 H   -0.6395591917    2.0313312778   -0.5015870049
 H   -0.0639066151    1.8095911744    1.1581308723
 H   -1.3518447784   -0.3589193099    1.6853550863
 H   -1.4500685057   -1.6508784127    0.3855329663
 H    2.8417854296   -2.5816954726   -1.1311853276
 H    2.8216490497   -2.6143538373    0.6980349688
 H    0.5928424136   -3.7968925269    0.6729585605
 H    0.5705742101   -3.7560878113   -1.1570501842
 H    1.2967441525   -0.2777280025   -1.7430188638
 H   -0.6960802599   -0.6246967497   -2.7714746506