19

 C    0.6663569285    1.6013407944    0.0556883700
 C   -0.0998957754    0.2791961041   -0.1408541389
 C    0.4095656976   -0.4850783569   -1.3674745714
 C   -0.1568460759   -1.8970290347   -1.4831797409
 O    0.6377037948   -2.8714840338   -0.8023344154
 C    0.7970024196   -2.8636573691    0.5420069829
 O    1.4097424825   -3.7700152194    1.0498447746
 C    0.2264623178   -1.7828990522    1.3922467067
 C   -0.1115690807   -0.5144234323    1.1349908570
 H    1.7227512958    1.4098955448    0.2702083143
 H    0.6089578321    2.2163903653   -0.8477851606
 H    0.2533730900    2.1819386567    0.8862158600
 H   -1.1524220340    0.5475662533   -0.3304015926
 H    0.1507617652    0.0851292428   -2.2669939104
 H    1.5036436872   -0.5600721748   -1.3504781525
 H   -1.1935450901   -1.9403701007   -1.1252086318
 H   -0.1457308153   -2.2354654591   -2.5215028562
 H    0.1702813298   -2.1244594672    2.4212599219
 H   -0.4505932396    0.0648551389    1.9942849133