20

 C   -0.1992655223    1.5277706525    0.0881037275
 C    0.0754121851    0.0540621798   -0.0003919297
 C    0.1136997147   -0.7073317890   -1.1680932616
 C   -0.0658850806   -0.3392157273   -2.6032805130
 N    0.3112345757   -1.9980956540   -0.7417391363
 C    0.7372872679   -3.3854426912   -0.9858356204
 C    0.8324996975   -3.5347989450    0.5821075845
 C    0.4421036544   -2.0656492934    0.6123799041
 C    0.3026931307   -0.8038270511    1.1335650841
 H    0.4758691164    2.0141506183    0.8010694597
 H   -0.0666462202    2.0257774528   -0.8771165929
 H   -1.2228836381    1.7399723114    0.4229231723
 H    0.7429313942   -0.7342884616   -3.2307728808
 H   -1.0096276325   -0.7166070815   -3.0184080182
 H   -0.0702733641    0.7467653668   -2.7216866666
 H   -0.0119640786   -4.0047915653   -1.4880811275
 H    1.6940010705   -3.4706101222   -1.5105380921
 H    0.1176620413   -4.2397721586    1.0158859080
 H    1.8334677654   -3.7761512724    0.9499740642
 H    0.3470778226   -0.4912863489    2.1656257248