20

 C    0.0541180401    1.5704978846    0.0139059748
 C    0.0626508611    0.0391697143   -0.0339768543
 C    0.7274812257   -0.5191972475   -1.3037870825
 C    0.7625717211   -2.0529332880   -1.3262067538
 C    1.4511581496   -2.6061115379   -0.0948926784
 N    2.6011352534   -1.8352160855    0.3790478692
 C    1.3520828895   -1.8581847485    1.1921638864
 C    0.6082604365   -0.5550129473    1.2707058473
 O    0.3886148077   -0.0442816287    2.3469826402
 H    1.0744261769    1.9649910463   -0.0396571906
 H   -0.5111058369    1.9805014484   -0.8284433169
 H   -0.3939046929    1.9197015054    0.9458244863
 H   -0.9860749445   -0.3054287309   -0.0344278240
 H    0.1841685910   -0.1508955563   -2.1806845937
 H    1.7498313510   -0.1364120857   -1.3759242472
 H   -0.2577960805   -2.4568091567   -1.3693782797
 H    1.2799891981   -2.4049995985   -2.2265135912
 H    1.5019895594   -3.6905353653   -0.0183887496
 H    3.2859421903   -2.4403479360    0.8238683133
 H    1.3749868633   -2.3992254963    2.1336377443