20

 C   -0.5384902028    1.3714117802   -0.2773268285
 C   -0.0504221570   -0.0533242308   -0.0722545803
 C    1.2989237209   -0.5779152330   -0.6686698754
 C    2.0594908124    0.2217485080    0.4290150431
 C    0.8412469602   -0.4402799480    1.1504331451
 C    1.2022999334   -1.7416215591    0.3582189367
 C    0.4081047164   -0.3621070129    2.5897863463
 N    1.4216685609   -0.2150432393    3.4923239091
 O   -0.7624490535   -0.4316214571    2.9169652954
 H    0.2481330803    2.1236450295   -0.1750350643
 H   -0.9735617571    1.4836651917   -1.2764385029
 H   -1.3200539124    1.6033026193    0.4532581775
 H   -0.8817624276   -0.7507775754   -0.2168376269
 H    1.5691093149   -0.6564988441   -1.7225311300
 H    3.0510473103   -0.1600206455    0.6935675602
 H    2.0710749517    1.3098484166    0.3571374063
 H    0.3914049121   -2.4608957474    0.2216751356
 H    2.1396517289   -2.2322591864    0.6342894090
 H    2.3854123826   -0.1855159489    3.2113826672
 H    1.1963103454   -0.2071957474    4.4735410565