19

 C   -0.0025889481    1.5615527451    0.0534030648
 C    0.0236999951    0.0626799184    0.0321717390
 C   -1.2588262186   -0.7967375505   -0.0831604205
 C   -0.4837779121   -1.7953639192    0.7587013644
 C    0.9529358219   -1.7617348886    0.3472848104
 N    0.4233337537   -0.7440991815    1.3289172724
 C    1.0803135569   -0.7368501406   -0.7395030246
 C    1.4048209593   -0.7823125413   -2.1777931438
 N    2.3727169496   -0.2431239954   -1.1879685275
 H    0.9836957084    1.9729757229    0.2931014833
 H   -0.3179103261    1.9591811101   -0.9187082986
 H   -0.7064679688    1.9231060732    0.8088720908
 H   -2.0833470793   -0.3608433297    0.4883767151
 H   -1.6047794340   -1.0795745228   -1.0828721430
 H   -0.8800608348   -2.5870210139    1.3849965653
 H    1.6782562743   -2.5089016146    0.6458561030
 H    1.7084752283   -1.7123716063   -2.6507534380
 H    0.8949649913   -0.0850099817   -2.8394423653
 H    2.3791100631    0.7740532762   -1.2232826272