23

 C   -0.3536298344    1.4279432528    0.0747027996
 C    0.0091701542   -0.0663494111   -0.0477118215
 C    0.6150448941   -0.3787144487   -1.4226719964
 O    1.8062347881    0.3242907375   -1.7193042585
 C    2.9687899730   -0.2180552214   -1.1275864378
 C    3.1572870387    0.1341010473    0.3492657315
 C    2.1558721739   -0.4427486352    1.3335198662
 C    2.7606181721   -0.8899421647    2.6425718848
 C    0.8353260374   -0.5244470526    1.1364765675
 H    0.5397739018    2.0481238294   -0.0339610667
 H   -1.0652003245    1.7215639328   -0.7051092492
 H   -0.8051092490    1.6442787869    1.0472217736
 H   -0.9303132699   -0.6365391044   -0.0183243018
 H    0.7859843620   -1.4634717473   -1.5131041360
 H   -0.1007954925   -0.0848465835   -2.1995127828
 H    2.9795595437   -1.3135101051   -1.2519881357
 H    3.8101284800    0.1913692993   -1.6978112948
 H    4.1644708222   -0.1990884775    0.6317162361
 H    3.1716362033    1.2295372734    0.4442334320
 H    3.3125154986   -0.0696410857    3.1209180614
 H    2.0015717662   -1.2420916266    3.3458520024
 H    3.4865365485   -1.6992530834    2.4883716956
 H    0.2442713527   -0.9184366023    1.9624769505