21

 C    0.1132834041    1.3897904314   -0.3806379033
 C    0.0306347860   -0.0856139967    0.0079155108
 O    0.7017029883   -0.3666147394    1.2344998344
 C   -1.3960157339   -0.5978960541    0.0730962309
 C   -1.7549480215   -2.1033638087    0.0341835511
 C   -3.0114293918   -1.4754638859   -0.5999162258
 C   -3.6798209622   -0.7281626342    0.5724241596
 C   -2.3927955579   -0.0318527496    1.1204843902
 O   -2.1570879364   -0.4346604261   -1.1728032959
 H    1.1593321256    1.6922335860   -0.4773903818
 H   -0.3988658651    1.5648989649   -1.3306131627
 H   -0.3575181258    2.0267273976    0.3776734538
 H    0.5620118616   -0.6790736206   -0.7445726124
 H    0.3622103603    0.2430816701    1.8987238704
 H   -1.1483554734   -2.6417989846   -0.6950052710
 H   -1.8454055563   -2.6579902858    0.9711509932
 H   -3.6389231417   -1.9866416362   -1.3297847060
 H   -4.4253027246   -0.0137315686    0.2176425816
 H   -4.1533682674   -1.4001863366    1.2932126278
 H   -2.1434716462   -0.3277083863    2.1429376504
 H   -2.4574415115    1.0571506434    1.0734177849