22

 C    0.0086222953    1.5555684765   -0.0424406294
 C    0.0036791933    0.0265244309   -0.0379527514
 C   -1.4363790154   -0.4963080897    0.0753999528
 C    0.7180851594   -0.5920465489   -1.2687150586
 C    1.3349023449   -1.9105551202   -0.7465911532
 O    2.5782474405   -2.2532168471   -1.3435567983
 C    1.5264293159   -1.6501900001    0.7377523651
 C    2.1892678327   -0.3747141737    1.1043759939
 N    0.7262018386   -0.4891617719    1.1638633834
 H    1.0278357739    1.9514734408   -0.0876249176
 H   -0.5403756485    1.9406527064   -0.9077332313
 H   -0.4662816169    1.9428484309    0.8642371690
 H   -2.0450014698   -0.1459169651   -0.7647721462
 H   -1.4613942088   -1.5906225994    0.0809177090
 H   -1.8913107632   -0.1487006951    1.0068273221
 H    0.0331789113   -0.7488359640   -2.1067593944
 H    1.5289793607    0.0493892475   -1.6273009404
 H    0.6226726504   -2.7404023166   -0.8695718275
 H    2.4089130046   -2.5131372745   -2.2544678214
 H    1.5623192657   -2.5027709019    1.4091304202
 H    2.6708526193   -0.2792765156    2.0728703834
 H    2.6549992559    0.2061349208    0.3136220008