19

 C   -0.1268300353    1.4270192077   -0.0009429861
 C    0.0200730656   -0.0643189567   -0.0367261565
 C    0.9725460939   -0.9018448574   -0.8942725179
 C    0.1136911329   -2.1279568892   -0.4910327836
 C    0.3697753394   -2.2715042725    1.0426206092
 O    1.6942181540   -2.3436337361    1.5212558119
 C   -0.3198208344   -0.9342372860    1.2109356934
 C   -1.0514702268   -1.1106704612   -0.1067022913
 O   -2.3689911755   -0.9895874713   -0.4629943453
 H    0.7503473487    1.9032393980    0.4517141307
 H   -0.2472519853    1.8356918928   -1.0104656064
 H   -1.0060469239    1.7224454421    0.5808619471
 H    0.8634674414   -0.6597021663   -1.9554771940
 H    2.0298437483   -0.9354090749   -0.6143642178
 H    0.0336282228   -3.0051553497   -1.1307821889
 H   -0.2488704794   -3.0799489221    1.4607196149
 H    2.0341523022   -3.2258387988    1.3385023376
 H   -0.6740096394   -0.4679717575    2.1217171085
 H   -2.8907491291   -1.6134092909    0.0542463747