20

 C   -0.1275118141    1.4783975782    0.0251697848
 C    0.0223987648   -0.0140545473    0.0217313169
 C    0.5449361983   -0.7678319951   -1.2208377278
 C    0.7460387992   -2.0751503061   -0.4423861485
 N    1.8404655818   -1.6351453461    0.4989954841
 C    0.7494762982   -0.8702111255    1.1701494664
 C    0.9389794193   -0.3004673882    2.5453581133
 C   -0.3591665515   -1.8199935563    0.6909516588
 O   -1.2194280719   -0.7577788337    0.2785023932
 H    0.8444871187    1.9556384579   -0.1340633558
 H   -0.7988971056    1.7958692411   -0.7796187348
 H   -0.5405269735    1.8345438240    0.9730859068
 H   -0.2237008683   -0.8018683323   -1.9955155142
 H    1.4912862336   -0.3980438160   -1.6188868508
 H    0.8784435139   -3.0146800947   -0.9756657690
 H    2.0694494603   -2.4174669918    1.1146116193
 H    1.7196808001    0.4677104352    2.5474457151
 H    0.0085607541    0.1516620730    2.9023295585
 H    1.2304319950   -1.0785644772    3.2595244430
 H   -0.8306457124   -2.6397776091    1.2342599206