18

 C    0.1605908687    1.3233175518   -0.4887784362
 C   -0.0817694851    0.0486368782    0.3397085346
 C   -1.4786737505   -0.4743164686    0.2470903072
 N   -2.3922455215   -0.4306721057    1.1876034971
 C   -3.5315934918   -1.0038425440    0.6500839560
 N   -4.7828914752   -1.1878161421    1.2908947562
 C   -3.2844641346   -1.3931387285   -0.6360136608
 O   -4.0574693463   -1.9942569074   -1.5641058079
 N   -1.9827005848   -1.0592072595   -0.9005363980
 H    1.1927167105    1.6694502754   -0.3762981417
 H   -0.0178993558    1.1499127034   -1.5554986640
 H   -0.5083917198    2.1263055576   -0.1661163982
 H    0.6330208994   -0.7267058232    0.0318620374
 H    0.1061861539    0.2506311025    1.3973297179
 H   -5.1694542930   -0.2981575410    1.5952969441
 H   -4.6815126900   -1.7530301907    2.1298598756
 H   -4.9143159171   -2.1227007252   -1.1327670163
 H   -1.5003166769   -1.2270168831   -1.7674089129