17

 O   -0.0105664944    1.0950570392   -0.8930200093
 C    0.0762868509    0.0094139095    0.0209518849
 C   -1.2982894259   -0.5548050120    0.2964964275
 N   -1.8595201729   -1.4025730051   -0.7766613613
 C   -1.6070004772   -1.9931945470    0.5421537723
 C   -0.6058621958   -3.1067131588    0.6438010067
 C   -0.4386720332   -4.0920912515   -0.4348570825
 O    0.5430948513   -3.0811437638   -0.1953957453
 H   -0.3477643417    0.7238494553   -1.7160763832
 H    0.7369855967   -0.7805078053   -0.3484692428
 H    0.5045676839    0.4199261434    0.9417516673
 H   -1.9804187379    0.1613732178    0.7537181559
 H   -2.8516104366   -1.2226889327   -0.8998937566
 H   -2.4711803927   -2.1773504100    1.1818130541
 H   -0.4016799026   -3.4262589150    1.6675024118
 H   -0.1274860264   -5.1087826404   -0.2008410471
 H   -1.0137906156   -3.9604100039   -1.3485620624