22

 C   -0.1137874771    1.5583919203   -0.0488889775
 C    0.0476973565    0.0646831560    0.1157815722
 N    1.3042998062   -0.6705460351   -0.1715745444
 C    2.4112003633    0.1421492494    0.3760040055
 C    3.1362793197   -0.6556503486    1.4130351028
 C    1.8780471234    0.1013693988    1.8035218648
 C    1.8417337211    1.1024845362    2.9265531095
 C    0.6908225723   -0.6590063251    1.2463707207
 C    0.0912083960   -1.8822450543    1.8816473316
 H    0.7068916082    2.1244958703    0.3933319261
 H   -0.1695175972    1.8160188789   -1.1126167845
 H   -1.0464090142    1.8904346267    0.4201170697
 H   -0.7882306204   -0.4908414956   -0.3097683355
 H    2.8592541531    0.9486610353   -0.1938256518
 H    3.1413323753   -1.7403757668    1.3415788453
 H    4.0616151937   -0.2207644153    1.7810334566
 H    2.7812130858    1.6618878168    2.9840469975
 H    1.0278434052    1.8249022548    2.8047031544
 H    1.7004157349    0.6056147496    3.8943128417
 H   -0.5417287561   -1.6044766899    2.7331538815
 H   -0.5282901730   -2.4328191459    1.1681258520
 H    0.8697431333   -2.5591016765    2.2490265417