13

 C    0.0250696884   -1.2428196705   -0.0907632295
 C    0.0186077585   -0.0427092025   -0.0199176535
 C    0.0079699981    1.4030151771    0.0644857373
 C   -0.2383762158    2.0931145807    1.4697940433
 C    1.1090260102    2.8038666132    1.3000461676
 O    2.1068635791    1.7839443445    1.1756903106
 C    1.3685693041    2.1426376845    0.0125719631
 H    0.0387325069   -2.3028582979   -0.1489932351
 H   -0.6785057772    1.8256153555   -0.6764122002
 H   -1.1033740381    2.7589903826    1.4516619314
 H   -0.2986268164    1.4206900357    2.3266782425
 H    1.4281358892    3.7682991423    1.6761138965
 H    1.9260220830    2.4514102148   -0.8639631041