17

 N    0.0031478758   -1.0496882763   -0.0131878095
 C    0.0030309111    0.1074583634   -0.0188177298
 C   -0.0193019328    1.5404854596   -0.0154794537
 N   -1.1103299217    2.1899769385    0.7158616979
 C   -1.4286301979    3.4127775404   -0.0576161376
 C   -0.1150239822    3.7032023202   -0.7850270895
 C    1.0786366528    3.7496258711    0.2309314782
 C    1.3274173886    2.2698635856   -0.0581615213
 C    0.3898412762    2.3083179428   -1.2525154739
 H   -1.9078529834    1.5683603827    0.7800301687
 H   -2.2433764744    3.2588401288   -0.7814523358
 H   -1.7165598596    4.2245959429    0.6190849283
 H   -0.1696502121    4.5066246733   -1.5171059950
 H    1.9009227115    4.3627254436   -0.1445793140
 H    0.8451567014    4.0353315275    1.2603199434
 H    2.2548374127    1.7229020830    0.0622760930
 H    0.4743442240    1.9032532730   -2.2517262695