14

 C   -0.0278608352    1.4403856259    0.0155808215
 N   -0.0092617635   -0.0117478488    0.0530921693
 N   -0.0327348719   -0.6912969002   -1.0974643381
 C   -0.0076973684   -1.9843533769   -0.7474807440
 C    0.0322099590   -2.1400293475    0.6406679920
 C    0.0304344140   -0.8424175689    1.1417240047
 C    0.0626853950   -0.3772982526    2.5239328448
 O    0.0981417209   -1.1161909772    3.4828664216
 H    0.8708081629    1.8560120849    0.4798960768
 H   -0.0585018429    1.7266263501   -1.0347310904
 H   -0.9111420531    1.8344444944    0.5259793801
 H   -0.0197236825   -2.7414403292   -1.5169317225
 H    0.0591116593   -3.0429168769    1.2276983946
 H    0.0534831265    0.7271651929    2.6543329397