19

 C   -0.2021825281    1.4786390297   -0.2053516519
 C   -0.0370522346    0.0041435596    0.0499980466
 O    1.2662451387   -0.5689943407   -0.0633514728
 C    0.6402939564   -0.5847215940    1.2291898763
 C    1.3040164909    0.1868090209    2.3027749112
 C    0.9988037091    0.2025516583    3.5991600134
 C    1.9729707210    1.0634130746    4.3495942253
 O    2.8725758509    1.5560792602    3.3617147855
 C    2.5444908188    1.0223992945    2.0838530511
 H    0.5551360271    2.0728499851    0.3072943945
 H   -0.1348022456    1.6863803368   -1.2783774991
 H   -1.1892575606    1.8072011573    0.1372659626
 H   -0.8156425925   -0.6175727169   -0.3987745957
 H    0.2870140127   -1.5708803572    1.5355700279
 H    0.1870781600   -0.3305737869    4.0788772824
 H    1.4879525964    1.9076007091    4.8654447530
 H    2.5248586483    0.4945991647    5.1163534510
 H    3.3728059276    0.4108029087    1.6941959652
 H    2.3981833334    1.8453618660    1.3703224635