19

 C   -0.0868859188    1.5677306019   -0.2126817274
 C    0.0999628029    0.0804034419    0.0001820558
 O    1.1886761325   -0.4893234984   -0.7905133698
 C    1.7445923685   -1.1289358872    0.3529647938
 C    2.1884323910   -2.5481505544    0.2293332029
 C    2.1885331212   -0.1407014124    1.3597611053
 C    0.6988711006   -0.4577257810    1.3000690140
 C   -0.0087882866   -1.1097209032    2.4004177036
 O    0.5288187705   -1.6155484731    3.3626246388
 H    0.8034469282    2.1314498335    0.0771474015
 H   -0.2956068390    1.7733952060   -1.2670811603
 H   -0.9353583233    1.9270670758    0.3792451160
 H   -0.8246358528   -0.4605011293   -0.2450184927
 H    3.1197429743   -2.6046097411   -0.3456795996
 H    2.3712073509   -2.9704231383    1.2209579137
 H    1.4333230116   -3.1510183866   -0.2825707495
 H    2.6555186592   -0.5504589977    2.2492553584
 H    2.5396367707    0.8366234040    1.0435059431
 H   -1.1161581816   -1.1447819004    2.2807737125