21

 C   -0.0527222926    1.5527752889    0.2241241443
 C   -0.0006068743    0.0382509662   -0.0428580874
 C    0.8655341425   -0.6519420017    1.0237554312
 C   -1.4268530463   -0.5385816118   -0.0063628410
 C    0.5705033577   -0.2359377481   -1.4561130732
 N    1.9238756831    0.2494143351   -1.6798370746
 C    3.0070225855   -0.5701294667   -1.7527009232
 O    2.9886522694   -1.7740678151   -1.6063261013
 H    0.9485829488    1.9969662088    0.2122808515
 H   -0.6647828808    2.0708296429   -0.5237634315
 H   -0.4874913269    1.7597354639    1.2075816622
 H    0.4446664290   -0.4942267924    2.0225465771
 H    0.9293171781   -1.7296174092    0.8456345543
 H    1.8855708813   -0.2568039576    1.0242855722
 H   -2.0688824065   -0.0693274409   -0.7607320944
 H   -1.4226192529   -1.6178500412   -0.1937781734
 H   -1.8884713764   -0.3720301519    0.9723791024
 H    0.6015892777   -1.3130477516   -1.6384265901
 H   -0.0914961997    0.2144572410   -2.2064770078
 H    2.0698265612    1.2325588040   -1.8417943646
 H    3.9350475919   -0.0026889924   -1.9673690829