17

 C   -0.0032104085    1.5171201837    0.0681647593
 C    0.0135923226    0.0282649134   -0.0360538101
 C    0.0318472030   -0.7846376359   -1.1403550320
 N    0.1007733393   -0.4044078728   -2.4870450720
 C    0.0566699398   -2.1538991321   -0.6873005240
 C    0.0512227343   -2.1428078692    0.6709711872
 N    0.0289433221   -0.8194641747    1.0919262503
 C    0.0217559596   -0.4354386565    2.4214525683
 O    0.0264047550   -1.2056639301    3.3509667193
 H    0.8906891442    1.9216013400    0.5600672422
 H   -0.0325513938    1.9559571694   -0.9330419246
 H   -0.8771057467    1.8989316400    0.6111069482
 H   -0.2479200953    0.5283841095   -2.6637482374
 H   -0.3684305696   -1.0575203815   -3.1006383100
 H    0.0818816478   -3.0297302830   -1.3185989414
 H    0.0611790660   -2.9294477836    1.4054120975
 H    0.0113857300    0.6606793434    2.5409978691