19

 C   -0.2006676722    1.3942044824    0.0512121940
 C    0.1177711313   -0.0750658867    0.0715804587
 C    0.8601704572   -0.6398484713    1.2711334091
 N    1.0704349911   -2.0755879481    1.3127507285
 C   -0.1143053610   -2.8675194383    1.6171550939
 C    0.2774167494   -4.2865531544    1.9945809197
 O   -0.4328337396   -5.2479883297    1.8575288290
 N   -0.1653981293   -0.8880811954   -0.8705764345
 O   -0.8198486129   -0.2478620687   -1.9342145097
 H    0.1817480516    1.8563925561   -0.8636448972
 H   -1.2848162331    1.5496636989    0.0506482469
 H    0.2265365623    1.9048149309    0.9175823758
 H    1.8365596011   -0.1339019288    1.3206597047
 H    0.3306530948   -0.3358985851    2.1846495619
 H    1.4416106821   -2.3706147409    0.4147421482
 H   -0.5937270155   -2.4381648784    2.5103369205
 H   -0.8767130718   -2.9015823288    0.8272339580
 H    1.2989453335   -4.3615213975    2.4325319445
 H   -0.9665887489   -0.9731977561   -2.5504724922