23

 C    0.3585221800    1.2156141702    0.4620360325
 C    0.2779599427   -0.2230982248   -0.0586453834
 C    0.5668664419   -0.3645013996   -1.5573233831
 O   -0.3463752815    0.3816523577   -2.3421003021
 C    2.0824491703   -0.2096562263   -1.9330125600
 C    2.1559215217   -1.7366262184   -2.0504466737
 C    3.1413446382   -2.5695999576   -2.8085235551
 C    3.1019832803   -2.6270256684   -1.2961727412
 C    0.6262583800   -1.8407776299   -2.0338900980
 H    1.3402901601    1.6626824555    0.2703166211
 H   -0.4015897282    1.8547583411   -0.0016736215
 H    0.1861538326    1.2508306533    1.5416221979
 H    0.9855609164   -0.8543985850    0.4921223063
 H   -0.7238319839   -0.6271760458    0.1325993302
 H   -0.2585472708    1.3108806461   -2.1049524196
 H    2.1899578797    0.2952964894   -2.8977840776
 H    2.7380886637    0.2685202601   -1.1986570236
 H    2.7695318197   -3.4264282034   -3.3619399512
 H    3.9822071649   -2.0685626034   -3.2781920568
 H    3.9166817440   -2.1644168871   -0.7472694352
 H    2.7025766258   -3.5226817407   -0.8301195744
 H    0.1753260353   -2.5873669022   -1.3732894208
 H    0.1938785669   -1.9339778111   -3.0340278309