21

 C   -0.1389759834    1.5643659547    0.1643848712
 C   -0.0230514953    0.0421643001    0.0513218439
 C    0.7927155054   -0.4383317555   -1.1787766044
 C    1.5096565839    0.4231549051   -2.2843007599
 C    2.8583216728   -0.3084698446   -1.9168011569
 C    2.1669400805   -0.6953852165   -0.6315553557
 C    2.2224239893   -0.7052314067    0.6941778716
 C    0.8047336976   -0.5772506642    1.2543030422
 O    0.7360835389    0.1577795890    2.4657992335
 H    0.8452641252    2.0479330670    0.1809117132
 H   -0.6909713544    1.9746996307   -0.6864692311
 H   -0.6666184143    1.8434430250    1.0799778727
 H   -1.0341062667   -0.3776172090    0.0450568214
 H    0.3348247432   -1.3207134225   -1.6416727047
 H    1.1535685684    0.3125631654   -3.3112529755
 H    1.5521372775    1.4838839148   -2.0298773986
 H    3.0417155811   -1.1585296972   -2.5826548360
 H    3.7725700181    0.2863255647   -1.8486793336
 H    3.0924253892   -0.7360630739    1.3401636590
 H    0.3862361564   -1.5563705641    1.5209444059
 H    1.2056890266    0.9878318976    2.3296542619