21

 C    0.2180975942    1.6192790866   -0.5145765135
 C    0.1518668076    0.1290903741   -0.2647580219
 C    1.4232515988   -0.7023108231   -0.0629137550
 O    2.6727855401   -0.0756084050    0.0078485834
 C    0.4971664342   -0.4444050522    1.0773004713
 C    0.8302411643    0.2371300848    2.3946247830
 C    0.0963428948   -0.9751452922    3.0198320678
 C   -1.1192482045   -0.7158542426    3.8837354507
 O   -0.2628290338   -1.4776794831    1.6997817198
 H    1.0897035731    2.0595225509   -0.0226749647
 H    0.2932913345    1.8399377439   -1.5854730485
 H   -0.6766001720    2.1254774322   -0.1363573544
 H   -0.6408000300   -0.4029992471   -0.7865135823
 H    1.4231821228   -1.7096856740   -0.4800690091
 H    2.9319049513    0.1804149294   -0.8839352940
 H    1.8930259736    0.3360031197    2.6167867719
 H    0.3291260964    1.1946666785    2.5585151797
 H    0.7770005431   -1.6805087825    3.5144433946
 H   -1.7915388486    0.0008238296    3.4019350619
 H   -1.6724468102   -1.6447029506    4.0549721344
 H   -0.8167993599   -0.3132614475    4.8568894349