21

 C    0.1532062441    1.3317982109   -0.0926868655
 O   -0.0346414587   -0.0412468216    0.1717734493
 C   -1.3393930606   -0.5866732360    0.1035130453
 C   -2.4626289371    0.0091991603    0.9108339203
 C   -2.4642478681    0.1213189873   -0.6061836221
 C   -1.2559964546   -2.0838217860    0.0041006633
 C   -0.1257510052   -2.7600485597   -0.7589553228
 C   -0.2026030015   -2.8763377916    0.7438251177
 O    0.7315104157   -2.2847517519    1.5905518129
 H    1.2108586275    1.5362609688    0.0876125516
 H   -0.0808201159    1.5807085591   -1.1351832474
 H   -0.4415339369    1.9740047338    0.5710360899
 H   -3.1556559957   -0.6701619090    1.3947106084
 H   -2.2704534557    0.9179804613    1.4705897672
 H   -2.2949596571    1.1062011942   -1.0244022112
 H   -3.1557457180   -0.4853513448   -1.1807112495
 H   -2.2381060932   -2.5430979344   -0.0658811784
 H   -0.3523373166   -3.6219948356   -1.3778640947
 H    0.6442745529   -2.1046971415   -1.1504799648
 H   -0.5119657015   -3.8349297608    1.1500227160
 H    0.8132834960   -1.3609927228    1.3168729145