20

 C    0.0518476545    1.3391010538    0.0587187929
 O    0.0654432650   -0.0737697448   -0.0307134238
 C    0.7353935456   -0.5897193152   -1.1773491295
 C    2.2218357732   -0.7692675601   -0.8411542071
 O    2.3799702537   -1.5734256880    0.3108040873
 C    0.0450857938   -1.9348745889   -1.5180429659
 C   -1.4784198431   -1.7977500247   -1.6916415689
 C    0.6500872288   -2.5037977224   -2.7252237452
 N    1.1181249544   -2.9338452127   -3.6908129460
 H    1.0627819752    1.7648484716    0.1184367179
 H   -0.4651390610    1.7875516098   -0.8013185981
 H   -0.4902013647    1.5945461940    0.9719746846
 H    0.6198390607    0.0984159009   -2.0280914767
 H    2.7427975961   -1.2683117528   -1.6632348487
 H    2.6853062711    0.2211219547   -0.7085621031
 H    1.7914399677   -1.1970425527    0.9773229233
 H    0.2622343407   -2.6181516250   -0.6890033606
 H   -1.7173017920   -1.1267775417   -2.5223156972
 H   -1.9305352481   -2.7701705076   -1.9001018768
 H   -1.9103328517   -1.3912544782   -0.7767632485