23

 C   -0.0907175149    1.3501595727    0.0255436129
 O    0.1472212817   -0.0419622412    0.0227163908
 C    0.7197880909   -0.5399892187   -1.1428993414
 C   -0.0121310261   -0.5483798186   -2.5271625153
 C    0.9824423882   -1.7146150442   -2.7922473121
 C    2.3363838831   -0.9733102633   -2.8041404270
 C    2.1411174199   -0.0711678662   -1.5450602563
 C    0.7957878537   -2.0861688069   -1.2864086755
 C    1.8022344492   -2.9217142095   -0.5108077722
 H    0.8408595665    1.9325774950   -0.0077841999
 H   -0.7224870534    1.6568527761   -0.8208584837
 H   -0.6137783111    1.5825648309    0.9562282863
 H   -1.0486543933   -0.8810248811   -2.4415403373
 H    0.0599518830    0.3370975014   -3.1655681696
 H    0.8023874198   -2.4443165486   -3.5811428565
 H    3.1900742296   -1.6501117528   -2.7118089262
 H    2.4736272640   -0.3910791703   -3.7198900347
 H    2.1740880541    0.9946438193   -1.7861283064
 H    2.8736214433   -0.2587013748   -0.7555500925
 H   -0.2104855461   -2.4907150989   -1.1360568483
 H    2.8322026954   -2.5772783891   -0.6380094236
 H    1.5743072192   -2.8950777778    0.5600760402
 H    1.7634481033   -3.9687719032   -0.8309636217