15

 C    0.0256694512    1.4478037752    0.0072143259
 N    0.0319256208   -0.0055800625    0.0034669993
 C   -1.0799963117   -0.6485741677    0.0095087765
 C   -2.4277091278   -0.0428195987    0.0204683996
 N   -3.5598270248   -0.6457850849    0.0267878007
 O   -3.5240229488   -2.0494724457    0.0228171170
 C   -2.3338461398   -2.6970149266    0.0129051982
 O   -2.5082918598   -4.0226034191    0.0107026601
 C   -1.1336115496   -2.0908594531    0.0061666430
 H    1.0593818868    1.8026552726   -0.0014265378
 H   -0.4733894165    1.8767593327   -0.8747521263
 H   -0.4567891250    1.8718216099    0.9007259659
 H   -2.5387284488    1.0368896987    0.0241959429
 H   -3.4575270696   -4.2049504303    0.0166360995
 H   -0.2256686465   -2.6767577005   -0.0016334043