18

 C    0.1502707798    1.4527550956    0.2048638186
 C   -0.1667052190   -0.0011391451   -0.1662786947
 C    0.6035219046   -0.4689352585   -1.3642250417
 C    0.4448351305   -0.0209222055   -2.8284630864
 C    1.4210551349   -1.1831249478   -3.1758501619
 C    1.0728267234   -1.8009160160   -1.7684231386
 N    2.0663663557   -0.8243450793   -1.1310350476
 C    2.6792894599   -0.7216066692   -2.4528583019
 O    3.8136616749   -0.4999755884   -2.7352440405
 H    1.2151080402    1.5669971900    0.4262048583
 H   -0.1015049977    2.1373665504   -0.6119020394
 H   -0.4190620246    1.7618430532    1.0858292651
 H    0.0632961491   -0.6614488459    0.6764985745
 H   -1.2377404443   -0.1141169130   -0.3783444000
 H   -0.5714995305   -0.2187036942   -3.1793693180
 H    0.7503694014    0.9911045726   -3.1133519166
 H    1.4410152358   -1.6628157355   -4.1502133136
 H    0.9667941658   -2.8089121436   -1.3946982057