21

 C   -0.0485014377    1.5352573095    0.1181530215
 C    0.0245698643    0.0093660921   -0.0090327242
 C    0.7600659303   -0.4926914009   -1.2589592232
 O    0.0593367667   -0.1442477580   -2.4577298455
 C    2.2531640705   -0.0634961095   -1.3371988500
 C    2.9734222279   -1.1780138430   -2.1322210039
 C    2.1515112918   -2.4142056041   -1.8325571268
 O    1.8256715931   -2.5618294919   -0.4377529406
 C    0.8411007050   -2.0129450025   -1.3186917438
 H    0.9472307914    1.9872636526    0.1704797283
 H   -0.5812213136    1.9890017228   -0.7261836682
 H   -0.5901320146    1.8230452487    1.0238139726
 H    0.5253773845   -0.4134849117    0.8692060080
 H   -0.9913026649   -0.4033518185   -0.0275361180
 H   -0.0010544479    0.8154700618   -2.4960208999
 H    2.3578883678    0.9176762232   -1.8080603794
 H    2.6698967413    0.0054051394   -0.3295187176
 H    2.9355956499   -0.9851102160   -3.2101313870
 H    4.0247617437   -1.2845668883   -1.8483267977
 H    2.3107289722   -3.3447731530   -2.3707681160
 H   -0.0693538716   -2.5911631528   -1.4539035487