19

 C    0.1490891773    1.1584702822   -0.2858829661
 O   -0.1364131000    0.0717451238    0.5720989099
 C   -1.3791352209   -0.4923151880    0.3366430919
 C   -1.5445420112   -1.4887696330   -0.7993952493
 C   -1.5342828113   -1.9635176984    0.6391826700
 O   -0.4062001989   -2.6839287142    1.0764554651
 C   -0.8009644195   -3.6147962468    2.0858181332
 C   -2.2949372957   -3.4722142732    2.1887593514
 C   -2.7038084904   -2.5219068407    1.3534647079
 H    1.1448045038    1.5221617220   -0.0217744628
 H    0.1439671179    0.8538338996   -1.3422288433
 H   -0.5755233120    1.9773752955   -0.1582631351
 H   -2.2269613693    0.1604607650    0.5610868132
 H   -2.4669712961   -1.5138915502   -1.3704896658
 H   -0.6414445715   -1.7210703640   -1.3539288618
 H   -0.4872304636   -4.6275715895    1.7903275319
 H   -0.2910201443   -3.3786560161    3.0333831620
 H   -2.9062435058   -4.0635002546    2.8576654252
 H   -3.7160059783   -2.1739870993    1.1951858227