20

 C    1.0870391219    0.9446276642   -0.1257623955
 N    0.2426550301    0.0798080309   -0.9685760962
 C   -0.2247552693    0.4623157107    0.3707654708
 C   -0.4053856752   -0.6446053069    1.3869981964
 C    0.6126041528   -1.7866242353    1.3251421299
 C    0.4631379740   -2.6613736681    2.5423713111
 C   -0.1973884196   -2.2516684081    3.6223569810
 C   -0.7956764212   -0.8751405873    3.7106883751
 O   -0.3761612142   -0.0174435448    2.6671213108
 H    2.0125637853    0.4894777300    0.2122400433
 H    1.1712864699    1.9993148044   -0.3744737708
 H   -0.2310647688    0.6301384530   -1.6788727814
 H   -1.0086243282    1.2150156858    0.4370641751
 H   -1.4075185453   -1.0827559140    1.2292257041
 H    0.4589196984   -2.3612004125    0.4060756362
 H    1.6353733423   -1.3914817870    1.2715465105
 H    0.9084388894   -3.6522484297    2.5111571065
 H   -0.3323705111   -2.8983937844    4.4853725801
 H   -1.8999128226   -0.9464342937    3.7342698784
 H   -0.4947807387   -0.3845177269    4.6445789746