16

 C   -0.3806205789    1.4482999066    0.0103280470
 N    0.0758889528    0.0677905466    0.0057314758
 C    1.1041543004   -0.4100610700   -0.9588204026
 C    1.8370102144   -1.1035389860    0.1960308510
 C    2.2868524628   -0.0747198469    1.2210179024
 C    2.8147160773    1.2080818939    0.8505151970
 N    3.2526788635    2.2352351886    0.5441402260
 C    0.8094377799   -0.4883628136    1.1171801827
 H    0.4238359383    2.1926758591    0.0897739961
 H   -0.9409235832    1.6407926791   -0.9103465458
 H   -1.0672771720    1.5887983483    0.8515573163
 H    0.6848596630   -1.0959348759   -1.7011521126
 H    1.6742154214    0.3760714539   -1.4689264129
 H    2.2491197119   -2.1030701447    0.1852706440
 H    2.7814760415   -0.5137857080    2.0832973834
 H    0.3052809568   -0.8813678509    1.9944761721