15

 O   -0.1883461809    0.0120900861    0.1436172106
 C   -0.0379086981    1.2025774216    0.1041752406
 N    1.1752365855    1.8820843732    0.0736145181
 C    1.2293188116    3.3458561753   -0.0196427704
 C    2.6645861717    3.6813276877    0.4224938064
 C    3.4650156073    2.4478207347   -0.0118194881
 C    2.4640991528    1.2945470691    0.0648428578
 O    2.7063058014    0.1205664811    0.0993776411
 H   -0.8843835752    1.9204757979    0.0944387523
 H    1.0454690354    3.6719270873   -1.0516226027
 H    0.4689427973    3.8027303473    0.6188587443
 H    3.0199586283    4.6146434812   -0.0174318512
 H    2.6994231515    3.7873312536    1.5110799331
 H    3.8017285884    2.5272152014   -1.0528425511
 H    4.3407735330    2.2274297924    0.5997354095