23

 C    0.0768026977    1.3853378359   -0.1413198803
 O   -0.0787472826   -0.0038589798    0.0082925865
 C    0.6403828225   -0.5192553564    1.1104144435
 C    0.4103860493   -2.0257217897    1.1578047893
 C    1.2767328840   -2.7545721146    2.1874032749
 C    0.9931561005   -2.3432329258    3.6267074754
 C    1.3953808064   -4.2838442162    1.9453872744
 C    2.8601769156   -3.9785031847    1.5824693981
 O    2.6951852331   -2.5779722517    1.8771550740
 H    1.1303097420    1.6654098572   -0.3022660399
 H   -0.5060835978    1.6894902908   -1.0145019106
 H   -0.2904219385    1.9371761784    0.7393967760
 H    1.7174472868   -0.3143793867    1.0036131588
 H    0.3026256405   -0.0321194432    2.0403551655
 H   -0.6482335731   -2.2328235760    1.3574174937
 H    0.6328751391   -2.4247616362    0.1620732055
 H   -0.0584041751   -2.5176795040    3.8801250735
 H    1.6161454455   -2.9190597014    4.3168520969
 H    1.2123056854   -1.2830406788    3.7833912645
 H    1.2568109676   -4.8971090430    2.8376996309
 H    0.7755316024   -4.6785731555    1.1385081507
 H    3.6214390230   -4.4436980330    2.2202109522
 H    3.1319305158   -4.1480920355    0.5330919466