17

 O   -0.0081597870    1.4171024835    0.0429323743
 C   -0.0089653082    0.0301428960    0.0295487560
 C   -0.4279617344   -0.7488102892   -1.1989463881
 C   -1.2859771548   -0.7783244927    0.0538866143
 C   -1.0836811363   -1.9395419149    1.0292913135
 C    0.3541630910   -1.7956695799    1.4681390666
 C    0.9293572980   -0.7009371828    0.9429487247
 C    2.2898973250   -0.2356085716    1.1887770519
 O    2.7478879991    0.7789407064    0.6957268019
 H    0.9186472542    1.6818465573   -0.0506952603
 H   -0.8182090727   -0.1532315750   -2.0170941360
 H    0.1291654077   -1.6337982254   -1.4926574111
 H   -2.2467513416   -0.2803472619    0.0139344943
 H   -1.7577653668   -1.8796656898    1.8945720336
 H   -1.2675596030   -2.9187605243    0.5674755431
 H    0.8520039101   -2.5106662846    2.1157606673
 H    2.9014628895   -0.8624104010    1.8715670938