23

 C   -1.9681603223    1.0956277888   -1.6883992852
 C   -1.8382785541   -0.4080191708   -1.5015641866
 O   -2.1209730576   -1.1803606419   -2.3899099234
 C   -1.3433151628   -0.8638589948   -0.1320494579
 C   -1.0497493188   -2.3614245896    0.0265446094
 C    0.0987613129   -2.8090239513   -0.8739951152
 C   -0.9092253721   -2.7345036879    1.5405158586
 C   -2.3798741625   -3.2295892755    1.5431430240
 C   -2.3504462813   -3.2318207800   -0.0077850482
 H   -2.4333805447    1.3101930902   -2.6511999868
 H   -2.5573037781    1.5420206994   -0.8800170804
 H   -0.9767029224    1.5621107367   -1.6525278206
 H   -0.4515649407   -0.2724341403    0.1222932331
 H   -2.1052849734   -0.5436470957    0.5945205495
 H    1.0138823933   -2.2432758243   -0.6568054601
 H    0.3217251863   -3.8690998845   -0.7138453038
 H   -0.1494694608   -2.6696658745   -1.9289404469
 H   -0.1974844594   -3.5529001250    1.6840815047
 H   -0.6448324366   -1.9269042854    2.2303579459
 H   -2.5812559960   -4.1810626078    2.0404941249
 H   -3.0716785419   -2.4859370739    1.9489520890
 H   -3.2096698040   -2.8164316932   -0.5363960641
 H   -2.1498570230   -4.2263486888   -0.4160784200