17

 C    0.1615571703    1.2422335534    0.2755035409
 O   -0.0189032453   -0.0292467580   -0.3293902272
 C   -1.2754455780   -0.5786999661   -0.0992039782
 C   -1.5245847311   -1.9688383985   -0.7377490321
 C   -2.2334446596   -2.4624417914    0.5718962714
 C   -1.9762043858   -3.7887933176    1.0763784454
 C   -1.7328626744   -4.8845729991    1.5065721996
 C   -1.5555940806   -1.2404650559    1.2746803523
 O   -1.2201271059   -1.0114053679    2.3957019493
 H    1.1644180138    1.5800185634    0.0065886758
 H   -0.5744768413    1.9689533200   -0.1015744440
 H    0.0768202943    1.1831227374    1.3665618442
 H   -2.0859113905    0.1310469219   -0.3442116461
 H   -2.1177450271   -1.9942653259   -1.6507713129
 H   -0.5764971768   -2.4869945410   -0.8890683939
 H   -3.3123150135   -2.2687747967    0.5145831843
 H   -1.5220601784   -5.8523527680    1.8891805112