12

 O    0.0498967615   -0.0719411506    0.0028939249
 C   -0.0336358518    1.1379382323    0.0073667620
 C    1.1989323566    1.9622247098    0.0010389883
 N    2.1612127401    2.6029507495   -0.0039078565
 C   -1.2721608896    1.8964061810    0.0187961984
 C   -2.5541246602    1.3554056827    0.0263636373
 N   -3.3936175167    2.3994768816    0.0359136898
 N   -2.7691144762    3.6045472374    0.0352064814
 C   -1.4821521032    3.3029309445    0.0247710308
 H   -2.8862782155    0.3300199819    0.0254901927
 H   -4.4008755338    2.3787204651    0.0432408157
 H   -0.7386799512    4.0862465150    0.0218427752