15

 O   -0.0317260730    1.3618113528    0.0763459345
 C    0.0104686765   -0.0442259832   -0.0291088094
 C    0.8560982495   -0.6150770683    1.0324002894
 N    1.5509930253   -1.0494917407    1.8478577677
 C   -1.4266714354   -0.5432480931   -0.2040657944
 C   -1.3185639098   -0.4365626987   -1.6775818337
 C    0.2419869416   -0.5549792406   -1.4893738208
 C   -0.0110357346   -2.0633550745   -1.3712916245
 N   -1.4542055355   -1.7769832160   -1.0501901607
 H    0.8728358632    1.6958034877    0.0680998965
 H   -2.2597583432   -0.3621276080    0.4603558165
 H   -1.9713295424   -0.0315975689   -2.4370993087
 H    1.0383067303   -0.1099154498   -2.0829677763
 H    0.0278569926   -2.5849020719   -2.3299337080
 H    0.5384880751   -2.6298124669   -0.6124342080