17

 C   -0.0230705797    1.4546979484    0.1370454816
 C    0.0018713330    0.0055716388    0.0528614025
 C    0.0222899555   -1.2025950556   -0.0158610610
 C    0.0446816842   -2.5602679143   -0.0933971780
 C    0.0678228090   -3.7686860216   -0.1595751615
 C    0.0745045010   -5.2217674804   -0.2534544891
 C   -1.3230103659   -5.8219443836   -0.2848711215
 C   -1.5815203708   -7.1736330780    0.2226988813
 O   -1.9630282116   -6.0168875315    0.9712858725
 H    0.9905619981    1.8707203605    0.1120796784
 H   -0.5822039646    1.8912275187   -0.6983782102
 H   -0.4974889594    1.7898874178    1.0663591234
 H    0.6097671498   -5.5300305208   -1.1627594083
 H    0.6185862686   -5.6536603973    0.5958450842
 H   -1.9740176037   -5.4248081262   -1.0639800555
 H   -2.4014067728   -7.7603268519   -0.1885077655
 H   -0.7624039607   -7.7540495028    0.6463526667