23

 C    0.1309080262    1.5738756281    0.0602112686
 C   -0.0064477786    0.0545001190    0.1729734456
 O    0.5222928906   -0.4256662663    1.4019431384
 C   -1.4574648413   -0.4323964763   -0.0016439089
 C   -1.5334704439   -1.9544663577   -0.1166100466
 O   -2.1551114274    0.0599414988    1.1451519852
 C   -3.5646227463   -0.1025248656    1.1458920217
 C   -4.1139507314    0.7974988289    2.2416122273
 O   -3.8310951505    2.1594159790    1.9938262338
 H    1.1739070460    1.8631719992    0.2114259802
 H   -0.1901042664    1.9298759191   -0.9246990236
 H   -0.4761416384    2.0764668602    0.8192957037
 H    0.5985129304   -0.4159949678   -0.6113326960
 H   -0.1313885260   -0.1992380789    2.0752089339
 H   -1.8864802694    0.0301763980   -0.9055710261
 H   -2.5648679475   -2.3056912982   -0.2035009445
 H   -0.9953809605   -2.2864872672   -1.0101365669
 H   -1.0687142770   -2.4181472006    0.7569746403
 H   -3.9791061721    0.2011304654    0.1723019055
 H   -3.8495855135   -1.1478744245    1.3343642934
 H   -5.2032952285    0.6961784354    2.2858431387
 H   -3.7063371410    0.4688952335    3.2114678931
 H   -2.8865366035    2.2027595986    1.8067324131