17

 O    0.0535127237    1.3990946865    0.0940697707
 C    0.0654794939    0.0004275904   -0.0637297210
 C   -1.3586696556   -0.5700435075   -0.0157170333
 C   -1.4107450642   -2.0954390858   -0.1266163341
 C   -2.8127807822   -2.5670102956    0.2393242749
 O   -3.2074821206   -2.0754304684    1.5323142436
 C   -2.7536248161   -0.8473220584    1.8627364152
 N   -1.9621572472   -0.0887269663    1.2320706424
 H   -0.5527406815    1.5583408852    0.8316139472
 H    0.5277066194   -0.2194919063   -1.0327896172
 H    0.6700197486   -0.4932260810    0.7170124784
 H   -1.9155408735   -0.1157602185   -0.8473203429
 H   -1.1578157770   -2.4340183608   -1.1366007204
 H   -0.6854304733   -2.5434053185    0.5633895325
 H   -3.5462142571   -2.2152406288   -0.4971263029
 H   -2.8845328592   -3.6549671919    0.3042963785
 H   -3.1722033783   -0.5448967142    2.8211334184