23

 C   -0.5393917961    1.2663845528    0.2280354920
 C   -0.1990526434   -0.1902271185    0.4780980666
 C    1.0043656538   -0.9267015688   -0.0367262536
 C    0.7698693660   -0.7799926958    1.4733110084
 C    2.1031376530   -0.0395490326    1.6345661255
 C    2.1555482052    1.3052929861    2.3497288560
 O    2.9628338062   -0.9623999634    2.3000156429
 C    2.2909730778   -0.0829014601    0.0620889052
 C    3.5531316226   -0.7748125743   -0.4365657299
 H    0.3415743211    1.8943148591    0.0811064352
 H   -1.1512866732    1.3551187075   -0.6765130217
 H   -1.1156698788    1.6877499700    1.0592466163
 H   -1.0872803386   -0.8202904954    0.4319640042
 H    0.9194855305   -1.8189601456   -0.6474361855
 H    0.4571349446   -1.5334418763    2.1875786714
 H    1.8983395756    1.1775480264    3.4058905090
 H    3.1681009267    1.7279289594    2.2976875760
 H    1.4726042863    2.0360957808    1.9132385413
 H    3.8402142073   -0.5670549480    2.3461764308
 H    2.2115225540    0.9022448782   -0.4134252485
 H    3.6751366504   -1.7546081345    0.0309523599
 H    3.5067783817   -0.9120147334   -1.5223448568
 H    4.4492611972   -0.1802963836   -0.2224021148