17

 N   -0.0046069599   -1.1157890683   -0.2267778970
 C   -0.0176110391    0.0308677389   -0.0931137064
 C    0.0019809821    1.4989958300    0.0055206597
 O   -0.7153351232    1.8685175702    1.1633414316
 C   -0.6920788497    3.2755530044    1.3756277672
 C    0.6988301536    3.7616555511    1.7914636716
 C    1.7720209898    3.1720313939    0.8863194488
 N    2.2028583085    1.8022739205    1.2163010306
 C    1.4344880209    2.0254427192   -0.0041703567
 H   -0.5050717898    1.8967332722   -0.8924214484
 H   -1.0186100868    3.7926251849    0.4580540944
 H   -1.4328907388    3.4700449034    2.1545078108
 H    0.7241213928    4.8557841962    1.7471436572
 H    0.9035211961    3.4645998350    2.8242876052
 H    2.5327687563    3.8599471959    0.5258201609
 H    3.1848665870    1.6628797824    0.9964386324
 H    1.9299949303    1.9431512100   -0.9687602220