12

 N    0.0585123853    1.2165031293    0.3206419284
 C   -0.0519229309    0.0193994941   -0.0365401709
 O   -1.0557222097   -0.7381300074    0.5193758050
 C   -1.0949965498   -2.0462545425    0.2216416497
 C   -2.0995209267   -2.8765761721   -0.1397637522
 N   -1.5898760667   -4.1694022142   -0.2226288838
 C   -0.3423023711   -4.0495696500    0.0786188477
 O    0.0487922074   -2.7776975399    0.3735550351
 H    0.8257938155    1.6640503200   -0.1766694003
 H    0.5527280598   -0.5379783481   -0.7574285991
 H   -3.1311916427   -2.6417035716   -0.3388282783
 H    0.4222972998   -4.8084638576    0.1204340887