18

 C    0.0128847072    1.5165527504    0.0032685868
 C    0.0253571378    0.0138860273    0.0317970600
 N   -0.8518620721   -0.7609287678    0.9310194072
 C    0.6219982477   -0.8331573528    1.0920044376
 C    1.2998815239   -1.9531157946    0.2797636537
 C    0.2314096356   -2.8542247807   -0.3691373978
 O   -0.3140665510   -1.9746782581   -1.3732725538
 C    0.4398479599   -0.7865053551   -1.2437365137
 O    1.7456685800   -1.2257813772   -0.8953086367
 H    0.9239037553    1.9029978634   -0.4659943559
 H   -0.8450298914    1.8981167546   -0.5620411623
 H   -0.0414532235    1.9281148471    1.0168597785
 H   -1.2317189771   -0.1360437197    1.6419425969
 H    1.0954597261   -0.4290339483    1.9801569735
 H    2.1401376514   -2.4563783374    0.7534303820
 H    0.6849140060   -3.7247147272   -0.8546772548
 H   -0.5546763235   -3.1601040714    0.3229389389
 H    0.4444244177   -0.2350256823   -2.1836243601