16

 O   -0.6746845043    0.2551953554   -0.3285644315
 C   -0.3769245269    1.3971109357   -0.1731320532
 O    0.8821273590    1.7888126861    0.1376585141
 C    1.1424009435    3.1661585884    0.2897058110
 C    2.0894435341    3.5534081059    1.4392924938
 C    2.7452801387    4.5961291410    0.4939906224
 C    2.1239197132    3.8402297276   -0.7323356756
 C    3.0453889152    2.9162502776   -1.3734014188
 N    3.7937428902    2.2001573633   -1.8863201726
 H   -1.0795427207    2.2498871080   -0.2538295759
 H    0.2037538505    3.7318041914    0.3177031194
 H    1.6378512738    3.9040562101    2.3682993383
 H    2.7697447426    2.7264597848    1.6556241182
 H    2.3113696352    5.5927965432    0.5934913406
 H    3.8314255149    4.6728609491    0.5102702932
 H    1.6510203610    4.4594275225   -1.4984941233