20

 C   -0.2546236890    1.1936137172    0.5518661787
 C    0.2413961406   -0.2316742909    0.4226726451
 C    0.6603097889   -0.8767183306   -0.8356352265
 C    1.4428331215    0.0652727163   -1.7361913298
 O    2.4364894958   -0.6374681691   -2.4970383439
 C    3.3942795991   -0.5495643802   -1.4177869624
 C    2.4242994607    0.2593685501   -0.5281372605
 C    2.9822046849    1.5012050909    0.1257613038
 N    1.6484082310   -0.6945590226    0.3307914246
 H    0.1586346760    1.8701535020   -0.1977331071
 H   -1.3435185817    1.1989162227    0.4316523601
 H   -0.0321472180    1.6007853300    1.5440153055
 H   -0.2857016744   -0.9089987148    1.0929661361
 H    0.3241542614   -1.8601669599   -1.1481112218
 H    0.9228559546    0.8186914716   -2.3343339121
 H    3.6748118192   -1.5283896673   -1.0135803439
 H    4.2912903215   -0.0022036529   -1.7319902057
 H    3.4692547594    2.1437741456   -0.6147699080
 H    2.2263843825    2.0899188577    0.6469014357
 H    3.7384966361    1.2078331643    0.8637917321