19

 C   -0.0160966779    1.5186469144    0.0106483532
 C   -0.0343270410   -0.0218114664    0.0025908852
 C    0.7178428250   -0.5580136676   -1.2419784775
 O    0.8880579104   -1.9608521196   -1.1800212754
 C    1.5740356315   -2.3412635064   -0.0170944288
 O    0.8988342703   -1.9732054571    1.1560688565
 C    0.7292686109   -0.5711090137    1.2344266668
 C   -1.4148635301   -0.5072070723    0.0063988313
 C   -2.5618715296   -0.8662011075    0.0097502205
 H    1.0128197423    1.8935318629    0.0078846374
 H   -0.5314621551    1.9152524090   -0.8685098221
 H   -0.5233180162    1.9059177671    0.8986586699
 H    0.1630027902   -0.3437681577   -2.1581083738
 H    1.7000633654   -0.0573612878   -1.2983511796
 H    1.6387771632   -3.4305741138   -0.0231531262
 H    2.5881369142   -1.8936078911   -0.0194056341
 H    1.7119917435   -0.0710333083    1.2870194890
 H    0.1829175876   -0.3665896098    2.1578522039
 H   -3.5687034645   -1.2031668641    0.0124094340