17

 C    0.1460661276    1.2986677605   -0.1304058753
 N    0.2510537537   -0.1458501741   -0.0630809033
 C    0.7444932338   -0.7098202118    1.0924192029
 C    0.8948875165   -0.1941696020    2.3436470129
 O    1.3794204987   -1.2139582902    3.1521306066
 C    1.5019092685   -2.2642267076    2.3327377327
 C    2.0038895023   -3.5722343922    2.8575427892
 O    2.1126002996   -4.5198964835    1.8254188756
 N    1.1467806799   -2.0418844540    1.1055162800
 H    1.1005348159    1.8156033812    0.0583610749
 H   -0.2216032616    1.5875217502   -1.1170045241
 H   -0.5799726946    1.6505907016    0.6112930089
 H    0.6090676431   -0.5950428810   -0.8930781334
 H    0.7250363068    0.7555345366    2.8145234336
 H    2.9830299255   -3.4206775596    3.3357561828
 H    1.3215702434   -3.9254232688    3.6477978477
 H    1.7257376110   -4.1154728954    1.0369078583