17

 C   -0.0791922672    1.4806137296   -0.1312216918
 C   -0.1076218314   -0.0035646565    0.0717835364
 C   -1.3666514985   -0.8485869598    0.3545895380
 C   -0.5177751383   -1.7939153165    1.2597130641
 C   -0.3365523445   -3.2207424738    0.8343171667
 O   -0.4804946218   -3.6035018215   -0.3046690846
 C    0.7334564607   -0.9114399509    0.9274367380
 N    0.9473321420   -0.8274987684   -0.5060516068
 H    0.9514783464    1.8438805660   -0.1426437326
 H   -0.5409399301    1.7499521150   -1.0887297626
 H   -0.6281438212    1.9995927993    0.6618250649
 H   -2.1264291972   -0.3164477890    0.9320033256
 H   -1.8326427747   -1.3140413060   -0.5177214686
 H   -0.7819262166   -1.7340301818    2.3185340460
 H    0.0122639472   -3.9220137762    1.6255866826
 H    1.5601493534   -0.7136669291    1.6006447941
 H    0.6079658419   -1.6464172103   -1.0102546694