21

 C   -0.0260402659    1.5652930760    0.1406467879
 C    0.0807222210    0.0550824213    0.1777919484
 C    1.2885607377   -0.7536615504   -0.2355465827
 C    2.5949671483   -0.0707167201    0.1882218987
 C    2.0965466959   -0.0654010995    1.6689191995
 C    0.7988176478   -0.7574136725    1.2221680787
 C    0.1182804519   -1.8561908667    2.0089048853
 C   -0.5650346058   -1.3576505920    3.2014885497
 C   -1.1127448842   -0.9231061687    4.1793644153
 H    0.9058013051    2.0595878535    0.4262507450
 H   -0.2848446578    1.9100590666   -0.8666056068
 H   -0.8068347464    1.9152215414    0.8244481322
 H   -0.8415098547   -0.4371171248   -0.1301536892
 H    1.2117954497   -1.5383240668   -0.9806620190
 H    3.4689765653   -0.7110424238    0.0515337811
 H    2.8072987020    0.9003549852   -0.2701906388
 H    2.7069415755   -0.7078657408    2.3087422689
 H    1.9887533520    0.9043518331    2.1636535448
 H   -0.6042339587   -2.3739101548    1.3642760423
 H    0.8568014552   -2.6131856192    2.3079670206
 H   -1.6018986040   -0.5479016772    5.0436380182