19

 C   -0.0157820659    1.5207644853   -0.0350478933
 C   -0.0025625094    0.0650942135    0.0012391606
 C    0.0131909205   -1.1398590279    0.0216855055
 C    0.0226608910   -2.5919791243    0.0642497438
 C    0.2459053216   -3.2940999217    1.4629665412
 C   -1.1075484989   -3.9911624995    1.2928851189
 O   -1.3390438429   -5.3153024197    1.6224025935
 C   -2.2142253974   -2.9895401017    1.1200357340
 C   -1.3282476630   -3.3326927381   -0.0571156685
 H    0.8558859974    1.9142329334   -0.5700309729
 H   -0.9113714337    1.8991905971   -0.5405835823
 H   -0.0025095787    1.9464786953    0.9746654943
 H    0.7411060866   -2.9828259949   -0.6623026164
 H    1.0798107551   -3.9979364606    1.4271226782
 H    0.3604579881   -2.6325342379    2.3263951591
 H   -1.6952474502   -5.3469539213    2.5169736379
 H   -3.2043831067   -3.4313085202    1.0689373109
 H   -2.1714428786   -2.0015348371    1.5724915197
 H   -1.7296855750   -3.7416927196   -0.9756266840