19

 C    0.3335144562    1.5942941697   -0.3737326255
 C    1.6638345118    1.4926355842    0.4403484345
 C    1.3675294397    0.0031963476    0.7504867402
 C    0.0265530001    0.1057162916   -0.0699007054
 C    0.5904571488   -0.9315026334   -1.0925970267
 O    0.9673747246   -0.4923214922   -2.3836431376
 C    2.3323848998   -0.1169298116   -2.3545881952
 O    2.9298790853   -0.6421124234   -1.1831785543
 C    1.9060922199   -1.0319654546   -0.2878386363
 H   -0.3916293416    2.2797983596    0.0699436225
 H    0.4222131344    1.8345918416   -1.4352141470
 H    2.5917901126    1.6688859064   -0.1075350956
 H    1.6718824599    2.1220382641    1.3327537823
 H    1.4140458656   -0.3133925376    1.7928934543
 H   -0.9535843304   -0.1323203934    0.3444339197
 H   -0.0129648403   -1.8364214331   -1.1989813560
 H    2.8366007342   -0.5410716147   -3.2317945516
 H    2.4249645678    0.9792476643   -2.3691798721
 H    2.1713805215   -2.0032386351    0.1370870398