21

 C    0.2955227008    1.6564897264   -0.0308489353
 C   -0.2270308200    0.2268186020   -0.1487507248
 N    0.4857964174   -0.4788694867   -1.2141729828
 C    1.7146797524   -1.1884058924   -0.8644610635
 C    0.4869278805   -1.9391687838   -1.2480804472
 C   -0.2539062897   -2.8208220564   -0.2616226001
 O    0.1995636314   -2.6322022822    1.0621399455
 C   -0.4790866578   -3.4453585330    1.9908583459
 H    1.3516827461    1.6623646697    0.2586520591
 H    0.2056036782    2.1804994560   -0.9867236495
 H   -0.2649447320    2.2122136366    0.7275558770
 H   -0.1509720816   -0.2864106386    0.8200025867
 H   -1.2893272056    0.2454300189   -0.4240592319
 H    2.5427136545   -1.0865979281   -1.5616147664
 H    1.9938517702   -1.2347442146    0.1854640690
 H    0.4186215474   -2.3370716831   -2.2605674211
 H   -1.3397609621   -2.6265508773   -0.3213837324
 H   -0.1050799014   -3.8719330676   -0.5641696214
 H   -0.3467190446   -4.5151219000    1.7649071662
 H   -0.0577289920   -3.2370180932    2.9769772389
 H   -1.5590013821   -3.2305054727    2.0110692781