17

 O    0.6569222080    0.7497378302    0.9081724035
 C    0.1144224455   -0.3506568462    0.2372578117
 C   -1.4340659212   -0.4551558526    0.0156286094
 C   -2.2372430712    0.8184061449   -0.0089843140
 C   -2.5820376750    1.1341488950   -1.2596306765
 C   -2.0441132964    0.1321953056   -2.2641139314
 N   -1.1713707871   -0.7150497438   -1.4356458824
 C    0.1805989454   -0.3416594104   -1.3021812110
 N    0.9891627969    0.0181582159   -2.2036110630
 H    0.3294328084    1.5483809845    0.4770548798
 H    0.5391996431   -1.2433489363    0.7029396712
 H   -1.9357407075   -1.2689207436    0.5517172903
 H   -2.5359728927    1.3493801775    0.8865189283
 H   -3.2010784903    1.9751319405   -1.5507662033
 H   -2.8506153870   -0.4468559545   -2.7326609489
 H   -1.4495132213    0.5859374917   -3.0634239844
 H    1.8894514024    0.2633497016   -1.7901391694