23

 C   -0.5745337354    1.2891337919    0.3835940110
 C    0.1067719569   -0.0224499171    0.0304434677
 O    0.6733200138   -0.5666196141    1.2027833946
 C    1.3262951176   -1.8014222654    0.9785168464
 C    1.9322249800   -2.2672803610    2.2754756586
 C    1.0603197554   -2.9665893500    3.3020443339
 C    2.1170562960   -3.7304999529    2.5433101328
 O    1.7362453777   -4.6188393241    1.5396931040
 C    1.3550608580   -5.8838524451    2.0410017800
 H    0.1478981200    1.9964509139    0.8010065966
 H   -1.0262327502    1.7377630803   -0.5063435058
 H   -1.3596656566    1.1247846025    1.1271413014
 H   -0.6196953839   -0.7295834268   -0.4067566799
 H    0.8881650489    0.1408457595   -0.7323040960
 H    0.6211127511   -2.5543162049    0.5966104084
 H    2.1124707731   -1.6808696863    0.2132890815
 H    2.7064453517   -1.6112036830    2.6623943744
 H    1.2101408209   -2.7551294673    4.3549151696
 H    0.0293997838   -3.1444917699    3.0143315854
 H    3.0115668572   -4.0383785835    3.0880876488
 H    1.0818323510   -6.5018532520    1.1825097052
 H    2.1817488509   -6.3703003079    2.5809789774
 H    0.4952734022   -5.8087388867    2.7219902140