19

 C   -0.0538367886    1.4916307978   -0.0128982925
 C    0.0292958032   -0.0075046293    0.0445911635
 C   -0.7977331898   -0.8340604980    0.9970212338
 C    0.7185098529   -0.8332270622    1.1028886794
 C    1.5488267285   -1.8644397920    0.3564418649
 O    2.8585815778   -2.0566784706    0.7934569362
 C    0.8548005191   -2.9353604503   -0.4603854542
 C    1.2600829861   -1.6142777666   -1.0927160122
 O    0.3089998717   -0.5902257213   -1.2215313140
 H    0.8858655775    1.9202369854   -0.3753222693
 H   -0.8553840910    1.8074067546   -0.6890816698
 H   -0.2659207408    1.9027081181    0.9781450590
 H   -1.3362802763   -0.2974981313    1.7720298909
 H   -1.3149609034   -1.7110838648    0.6267891510
 H    1.1973654775   -0.3840320963    1.9648884378
 H    2.8431154385   -2.7226126412    1.4896451159
 H    1.4755588482   -3.7819400094   -0.7370607453
 H   -0.1916669883   -3.1673098412   -0.3036745843
 H    2.0242062072   -1.6035872213   -1.8622557009