19

 C   -0.3907552180    1.3055922011   -0.1025595112
 C   -0.0170921268   -0.1695694960   -0.0116761576
 C    1.1734023450   -0.6619867435   -0.8225482960
 C    1.8413584818   -1.3394593887    0.3588961770
 C    0.7491446304   -0.6950245892    1.2320342879
 C    0.8948863364   -0.0204610317    2.5382418119
 N    0.1888119589   -1.3161574555    2.4230488010
 N    1.4560745066   -0.4483312225   -2.0370557667
 O    2.6839888431   -1.0443081996   -2.3826881014
 H    0.4773058799    1.9423077590    0.0914854112
 H   -0.7672387953    1.5432080595   -1.1015944642
 H   -1.1723371398    1.5596663057    0.6219003439
 H   -0.9007693090   -0.7934538152   -0.2071998245
 H    1.7926960779   -2.4330076133    0.3289051436
 H    2.8759718734   -1.0413973140    0.5502168414
 H    1.8413953474   -0.0638291725    3.0710284042
 H    0.3123060949    0.8787060328    2.7232977944
 H   -0.8177252026   -1.1677945448    2.4590817233
 H    2.7755185758   -0.7971343315   -3.3091157581