15

 C   -0.0492780386   -1.2189329192    0.0253491345
 C   -0.0306749852   -0.0154282456    0.0015088700
 C    0.0027622075    1.3990635475   -0.0243696451
 C   -0.6323740516    2.4816757964    0.7995950896
 O    0.5501197429    3.1986562676    1.0229885728
 C    1.2260826413    2.3832727123   -0.0293897270
 C    1.1015041208    3.1877358312   -1.2938974511
 C   -0.1947951532    3.2101952372   -1.6371476364
 C   -0.9750112786    2.3456818606   -0.7204506053
 H   -0.0665795443   -2.2801425269    0.0506748519
 H   -1.3858986715    2.4770530858    1.5775591266
 H    2.2012222378    2.0452902001    0.3134326592
 H    1.8992624999    3.7853581851   -1.7135143239
 H   -0.6471055333    3.8235067649   -2.4063420233
 H   -1.9677457138    1.9820429728   -0.9541724625