16

 C   -0.0894534026    1.4844805493   -0.0243697697
 C   -0.0821670297    0.0087164359    0.1852964378
 C   -1.0510893154   -0.9134266534    0.2224884926
 N   -2.2781759895   -1.2549952892   -0.4404271032
 C   -1.6246100248   -2.5658885800   -0.8179678107
 C   -0.4988561984   -2.2809035994    0.2543842258
 O    0.8896249075   -2.1533331063    0.0673193087
 C    1.1893285153   -0.7825807520    0.1522681967
 O    2.3175776168   -0.3892484880    0.0916406663
 H    0.7158363812    1.7756837490   -0.7045009948
 H   -1.0470327876    1.8172486098   -0.4342813343
 H    0.0805734718    2.0206256660    0.9168286676
 H   -3.1029130661   -1.3480963000    0.1435711214
 H   -2.2275309567   -3.4627058799   -0.6582860858
 H   -1.2671073116   -2.5158387749   -1.8481952726
 H   -0.6958857301   -2.8655571869    1.1594548943