14

 O    0.0295009661    1.3990397186    0.0070233813
 C   -0.0285657995   -0.0040991024    0.0021560010
 C   -1.4539867035   -0.4859018215    0.0126694009
 N   -2.3932051563    0.3953535792    0.0234447741
 O   -3.7072366537   -0.0767779021    0.0330343336
 C   -3.9618729387   -1.3889864288    0.0310961649
 C   -3.0246385879   -2.3565842856    0.0200174207
 C   -1.6354230198   -1.9669345095    0.0090296916
 O   -0.6701007408   -2.7174474329   -0.0009741961
 H    0.9568439451    1.6526404237   -0.0026903323
 H    0.4540339726   -0.4521835500   -0.8815224972
 H    0.4691907330   -0.4588615674    0.8739518690
 H   -5.0329345260   -1.5633517814    0.0397995163
 H   -3.3011536106   -3.4027534600    0.0192327821