20

 C   -0.3025151913    1.4266390114   -0.1283449475
 C   -0.0011550881   -0.0475352472    0.0103828150
 C    1.3734551135   -0.5917098721   -0.2273406490
 C    0.8122458061   -0.6129209388    1.1792529620
 C    1.3917736777    0.2625079870    2.2113520279
 N    2.1321087988    1.2845126583    2.0390694061
 C    2.4218435261    1.8297429327    3.3710414843
 C    1.7289098527    0.8501691662    4.3540354709
 O    1.0687066784   -0.0974298476    3.4888660051
 H    0.5325684185    2.0323788005    0.2299349403
 H   -0.4870940116    1.6782274567   -1.1785341329
 H   -1.1959382121    1.7032335823    0.4424923625
 H   -0.8185975602   -0.7014448908   -0.2833884809
 H    1.4911488157   -1.5423935813   -0.7354874721
 H    2.1684925987    0.1260356625   -0.3970465289
 H    0.4731116931   -1.5624131060    1.5760624781
 H    3.5040518512    1.8856226155    3.5298836123
 H    2.0309461356    2.8502252671    3.4543007002
 H    2.4304692316    0.3031111383    4.9911225800
 H    0.9727371556    1.3224932353    4.9871679966