21

 C    0.0548857691    1.5573801557    0.1597060846
 C    1.2948178713    0.7407973165   -0.0811813731
 C    2.1664142900    0.3987123407    1.1448292954
 C    1.4550296423   -0.8092689142    1.8013592208
 C    1.3277402413   -0.9875819047    3.3239446421
 C   -0.0738400086   -1.6459480313    3.4952359917
 C   -0.8345995568   -1.1490662602    2.2769161942
 C    0.0089029497   -0.6828494330    1.3578654023
 C   -0.0577647101    0.0460795319    0.0658163864
 H   -0.0831883209    2.0202738351    1.1319672820
 H   -0.3429015598    2.1322488818   -0.6706167099
 H    1.7716866921    0.8166378728   -1.0519012124
 H    3.1929845372    0.1664212748    0.8482181864
 H    2.2171907551    1.2480258618    1.8372948146
 H    1.8715660953   -1.7257696109    1.3532243121
 H    2.1332490047   -1.5738102946    3.7750865864
 H    1.3227450065   -0.0023092278    3.8059849351
 H    0.0015867361   -2.7440196744    3.5004404100
 H   -0.5554328644   -1.3689606866    4.4398600681
 H   -1.9158535536   -1.1804352794    2.2029533540
 H   -0.5814690463   -0.3757430342   -0.7849870411