14

 N   -0.0270057915    1.1856175620   -0.6479696182
 C   -0.0343918729    0.0585751937   -0.0632054391
 N    1.1510047344   -0.4918906514    0.4883212875
 N    1.5904722061   -1.6201366794    1.1136757647
 N    0.8525421915   -2.4714227831    1.6681540361
 C   -0.5356444694   -2.4436686283    1.7251370957
 C   -1.4687837281   -1.7423451579    1.0506745936
 C   -1.3212813310   -0.7119719840    0.0321410903
 N   -2.2540319850   -0.3650413773   -0.7710295209
 H    0.8939112786    1.6293167928   -0.6340966040
 H    1.9710750665    0.0393543725    0.2265192235
 H   -0.8921929717   -3.1986491508    2.4201987930
 H   -2.5024895222   -2.0066205393    1.2630027126
 H   -3.0889064153   -0.9329879494   -0.6024801946