21

 C    0.1299841881    1.4540044692    0.0714008053
 C    0.0216735972    0.0025399539    0.0173149842
 C   -0.0681502672   -1.1983564701   -0.0136912203
 C   -0.1856275262   -2.6552889098   -0.0770295469
 C   -1.6574078653   -3.0918135193   -0.2261868107
 C    0.6938165067   -3.2178916351   -1.2125204135
 C    0.9310157148   -4.7215154779   -1.1296474167
 C    1.5865143382   -5.3590358973   -2.3419830972
 O    0.6302835425   -5.3696035928   -0.1525746463
 H    0.7382510227    1.8409815208   -0.7539105340
 H   -0.8547774583    1.9301071348    0.0058246022
 H    0.5946825253    1.7853047781    1.0068458507
 H    0.1934300229   -3.0850850444    0.8583708680
 H   -2.0799112609   -2.7119761671   -1.1622465966
 H   -1.7299114595   -4.1817392808   -0.2176247581
 H   -2.2587692064   -2.6981013680    0.5970797170
 H    0.2712651126   -2.9669915050   -2.1939603779
 H    1.6822955381   -2.7391101641   -1.1938377672
 H    2.4790118875   -4.8011559780   -2.6447879680
 H    1.8480121912   -6.3947723808   -2.1222173737
 H    0.8933371258   -5.3330606064   -3.1911257302