19

 C    0.0809200089    1.5975425968    0.2679107358
 N    0.1267567026    0.1539533304    0.1295641153
 C   -1.1498960334   -0.5740215422    0.2368799554
 C   -0.4561185749   -1.6549005429    1.1213375414
 C   -0.1667848260   -2.9103897283    0.4479678315
 N    0.0513884275   -3.9127731322   -0.0860304007
 C    0.7279251219   -0.6322815670    1.2294948990
 C    2.1548074665   -1.0911083341    0.9502232529
 O    2.9850681841    0.0206510355    0.6546570997
 H    1.0975110003    1.9899727808    0.3477759624
 H   -0.3947531566    2.0410822561   -0.6129484458
 H   -0.4811021076    1.9235576376    1.1632500502
 H   -1.9191713724   -0.0308730410    0.8064150383
 H   -1.5752879809   -0.9092268397   -0.7129723487
 H   -0.9595959117   -1.8685397164    2.0649211330
 H    0.6835309344   -0.1034822485    2.1943692734
 H    2.5781153162   -1.5794678122    1.8344557505
 H    2.1571152673   -1.8192061184    0.1286957151
 H    2.7288440139    0.3236422157   -0.2232217488