20

 C    0.1982861106    0.7017067735    0.7986209991
 O   -0.5569366069    0.1320087617   -0.2628211535
 C   -1.2756540261   -0.9618441159    0.0626673875
 N   -1.9848118345   -1.5266220963   -0.8100638750
 C   -2.7557855002   -2.7213432679   -0.4640378027
 C   -2.3702005574   -3.8480431779   -1.4420890628
 C   -2.6637255813   -3.1816457693    0.9299864873
 C   -2.5820334683   -3.5664064713    2.0694709538
 C   -2.5026140656   -4.0469343067    3.4423776072
 H    0.7246880286    1.5584498262    0.3760481176
 H   -0.4493100644    1.0460138313    1.6143001724
 H    0.9329644232   -0.0085343727    1.1976323537
 H   -1.1814022998   -1.2846750551    1.1071782191
 H   -3.8066863715   -2.4661959798   -0.6623500408
 H   -2.4721872025   -3.4866412273   -2.4681600456
 H   -1.3316636285   -4.1492400505   -1.2799267713
 H   -3.0136333376   -4.7199487130   -1.2972959611
 H   -3.1066267624   -4.9508350877    3.5784928519
 H   -1.4723761401   -4.2944377836    3.7212382432
 H   -2.8679504953   -3.2962240776    4.1518555501