19

 C   -0.1625186300    1.6490746406    0.1072943571
 N    1.1466813454    1.0087887293   -0.0691958321
 C   -0.0681025552    0.1748746437   -0.0667267943
 C   -0.2978541020   -0.7378839801    1.1124335303
 C   -0.3830008005   -2.2171895984    1.1816505545
 C    0.6491387760   -3.0557889120    0.4063714781
 C    1.6363501617   -2.2366822151   -0.3801727289
 C    1.7110949675   -2.2500991269    1.1189147736
 N    0.6957818720   -1.4736209243    1.9355455525
 H   -0.3341678154    2.0566681147    1.1005729935
 H   -0.5806962877    2.2387165483   -0.7045532109
 H    1.4777004637    1.1424243407   -1.0213621397
 H   -0.4157378636   -0.2073964352   -1.0242169999
 H   -0.9965719075   -0.2884767211    1.8193510166
 H   -1.1880485324   -2.7042383253    1.7259401974
 H    0.5535825223   -4.1280476640    0.3010191144
 H    2.4175884317   -2.8442769395   -0.8304242471
 H    1.3749658544   -1.3721555911   -0.9694185553
 H    2.5964433095   -2.5645460643    1.6557232401