20

 C   -0.2093239003    1.4699078251    0.0364077894
 C   -0.0257052633   -0.0470275669    0.0922183154
 O    0.5817025328   -0.5285541552   -1.1088153228
 C    0.8581572116   -0.5593425815    1.2523055830
 C    0.9955878165   -2.0995577409    1.1636091949
 C    2.2656534633    0.0717961658    1.2490837914
 C    0.2094085671   -0.2862877480    2.6001305999
 O   -0.8951159470    0.1574141935    2.7886486962
 H    0.7441392738    1.9798902544   -0.1266610841
 H   -0.8732216718    1.7305625668   -0.7966202124
 H   -0.6697472140    1.8421287938    0.9534653068
 H   -1.0167394816   -0.5080300208    0.2205546554
 H    0.0736332225   -0.1871884720   -1.8508435975
 H    1.5397257603   -2.3690880613    0.2570035708
 H    1.5402702596   -2.4936967337    2.0282325188
 H    0.0135005970   -2.5818284311    1.1296293052
 H    2.2360895225    1.1501807205    1.4290568881
 H    2.8936948291   -0.3784913927    2.0245922609
 H    2.7389174207   -0.1016142628    0.2799411166
 H    0.8605368413   -0.5692821232    3.4617844941