17

 C   -0.0585842946    1.4801044686    0.0628380732
 C    0.0024476521   -0.0081144202   -0.0176387978
 N    0.0925170887   -0.6706081971   -1.1032594631
 C    0.1140067828   -2.1119303997   -0.7517913340
 C    1.2360599962   -2.8144878853   -1.3681560001
 C    2.1613028623   -3.4080682336   -1.8528174116
 C    0.1139127149   -2.1337902055    0.7881387425
 C    1.2123437720   -1.4356875298    1.4891315260
 N   -0.0771771275   -0.7364575040    1.2219109794
 H    0.7504355645    1.8580888655    0.6976428976
 H    0.0212341676    1.9175659916   -0.9321693088
 H   -0.9988436019    1.7905044984    0.5298726340
 H   -0.8191895366   -2.5610910103   -1.1180520281
 H    2.9767149319   -3.9284839208   -2.2909753961
 H   -0.4701315567   -2.8895493263    1.3009608561
 H    1.4035233106   -1.6435170242    2.5368834461
 H    2.0765259637   -1.1288665071    0.9061342046