17

 C   -0.3019894994    1.3678602341   -0.5839525572
 C   -0.0266696349   -0.0285810870   -0.0589272582
 C    0.9895001098   -0.8745194851   -0.7606320521
 N    1.2673954988   -0.3276454394    0.5759453436
 C   -1.1564152852   -0.6896188468    0.6265738957
 C   -1.2903974010   -1.4134765617    1.7652148729
 N   -2.6170950559   -1.8083126219    1.9099104239
 C   -3.2069077418   -1.3117628694    0.8748382716
 O   -2.3968478141   -0.6169517809    0.0398496927
 H    0.5717811604    1.7585736616   -1.1145929845
 H   -1.1488553574    1.3646486101   -1.2760810789
 H   -0.5437725206    2.0514284477    0.2369411527
 H    0.8632946877   -1.9522688566   -0.7937827246
 H    1.4937371127   -0.4419479664   -1.6213037931
 H    1.8762080620    0.4840383829    0.5060487568
 H   -0.5293358240   -1.6724019455    2.4816870343
 H   -4.2470094468   -1.3759463358    0.5962100044