16

 C    0.0646294111    1.4837021667   -0.0578537036
 C    0.0255003475   -0.0179415246   -0.0384868161
 C    0.1347732159   -0.8395358555    1.2511384187
 C   -0.2185040585   -2.2817907307    0.8183667730
 C   -0.5174782929   -2.2190471612   -0.6404277097
 N    0.8973280596   -2.3220264707   -0.1615451335
 C    1.2337792327   -0.8819821945    0.2417473102
 C   -0.8325384076   -0.7943026135   -0.9978462225
 O   -1.5781239474   -0.3715018532   -1.8421357596
 H    0.7491333970    1.8761442967    0.6998720255
 H    0.3927738395    1.8479683195   -1.0360530837
 H   -0.9297693851    1.8983456013    0.1332425947
 H    0.0898824199   -0.4053267524    2.2395073092
 H   -0.4533951045   -3.1216674553    1.4615559730
 H   -0.9021108079   -3.0557704515   -1.2075247948
 H    2.2622115107   -0.5471011710    0.2506493692