20

 C   -0.0492143613    1.5505799199    0.0662328643
 N    0.0147810913    0.1065453560    0.1414438286
 C   -1.2256971607   -0.6873916470    0.4499275923
 C   -0.3181542343   -1.7203156989    1.1746469544
 C    0.6930184872   -2.6337936422    0.4505729706
 C    1.5557875270   -1.8508313318    1.4542588890
 C    0.4072341170   -1.8514000309    2.5674690398
 C    0.4748938514   -0.3296776165    2.7777072137
 C    0.6913085348   -0.5491613464    1.2599199366
 H    0.9599855479    1.9536404731   -0.0663030880
 H   -0.6467108688    1.8506748514   -0.8013843507
 H   -0.4928989979    2.0184821252    0.9636312502
 H   -1.9283727441   -0.1569597647    1.1099535872
 H   -1.7629983686   -1.0439842703   -0.4347162239
 H    0.5932155138   -3.7116474827    0.6135155177
 H    0.8718129556   -2.4136417506   -0.6050784174
 H    2.6274548803   -1.9429845595    1.6631962896
 H    0.2728662194   -2.6340016360    3.3197701314
 H   -0.4561376080    0.1530239665    3.0904895040
 H    1.3207994381    0.0594846255    3.3517695208