17

 O    0.0768280509    1.3986125578    0.1174487400
 C    0.0625817503    0.0035448452   -0.0622167447
 C   -1.3707175759   -0.5421119280   -0.0157198843
 C   -1.4277308641   -2.0687052956   -0.1590635727
 C   -2.8088531362   -2.6212233617    0.1400855422
 O   -3.2884672437   -3.6197157133   -0.3418550008
 N   -3.4843603102   -1.8782440387    1.1041451701
 C   -2.9684950441   -0.7192200300    1.6737302941
 N   -1.9826699709   -0.0581494313    1.2267783583
 H   -0.5074422601    1.5608351388    0.8711639365
 H    0.5164709620   -0.2087847262   -1.0362566808
 H    0.6608329468   -0.5147898450    0.7073888637
 H   -1.9263072386   -0.0749534811   -0.8432735300
 H   -1.1314268474   -2.4028134557   -1.1553765305
 H   -0.7378340613   -2.5335091770    0.5599715274
 H   -4.3503472463   -2.2706662009    1.4450755899
 H   -3.4931158312   -0.3874569274    2.5689456816