18

 C   -0.1672216485    1.5410705728   -0.0593841981
 C    0.0358534920    0.0375502094    0.0363704351
 O    0.6922278330   -0.4526766944   -1.1642120413
 C    1.7903786262   -1.2243694983   -0.7097628341
 C    1.2606790226   -1.9006093312    0.5569462961
 C    0.9449947887   -0.5145696805    1.1616212527
 C    2.3390460462    0.1250878642    1.0369633834
 O    2.8209044628   -0.3731014756   -0.2304409291
 H    0.7777238707    2.0683785017   -0.2093305652
 H   -0.8134715027    1.7711486766   -0.9111634388
 H   -0.6496317331    1.9246997695    0.8461649000
 H   -0.9499386574   -0.4462257339    0.1088595977
 H    2.1784041886   -1.8179612184   -1.5355629991
 H    0.3793844694   -2.5201045596    0.3796771692
 H    2.0235453831   -2.4624935198    1.0994637177
 H    0.5070675980   -0.4814526094    2.1591563513
 H    2.3282890330    1.2186938180    1.0207130500
 H    3.0101429475   -0.2014074712    1.8422243626