25

 C    0.1317975924    1.5477261343   -0.3003755788
 C    0.0729204071    0.0556596593   -0.0531119912
 C    1.3305549055   -0.7798619032    0.0029278835
 C    0.4968426737   -0.5857855491    1.2500551561
 C    1.0282154945    0.1967707594    2.4337985158
 C    1.8736929990   -0.6661967714    3.3811491324
 C    2.4092702614    0.1108488781    4.5866696765
 C    3.2427972234   -0.7487792029    5.5273369062
 O    3.6861855825    0.0717794901    6.5987562701
 H    1.0195877235    2.0039826575    0.1464407883
 H    0.1634749597    1.7603044613   -1.3748890148
 H   -0.7460689930    2.0583844849    0.1119282607
 H   -0.7767241518   -0.4253662462   -0.5322834371
 H    1.3453647452   -1.7502129321   -0.4816973799
 H    2.2774865384   -0.2488411883   -0.0450894097
 H   -0.1005717455   -1.4472352492    1.5433247918
 H    1.6339244475    1.0428883511    2.0879203622
 H    0.1904062742    0.6329051279    2.9957032193
 H    1.2694490319   -1.5154284243    3.7299534325
 H    2.7098078970   -1.1013597131    2.8175097370
 H    3.0265789078    0.9532541378    4.2501419822
 H    1.5786538582    0.5440137382    5.1578314366
 H    2.6353785989   -1.5917097336    5.8969778352
 H    4.0956253648   -1.1812457907    4.9780762515
 H    4.2138463735   -0.4694688658    7.1929265836