27

 C   -0.0677680219    0.5995719487    0.4477915259
 C   -0.5464061707   -0.2814647674   -0.7155193097
 C    0.4822403495   -0.5855710408   -1.8069741212
 C    0.6357470294    0.4349415833   -2.9337414700
 C    1.0904119606    1.8673606095   -2.5854517991
 C    2.4833298104    1.9110936571   -1.9431116178
 C    1.0543752573    2.7419120381   -3.8477055072
 C    1.6851270077   -1.4188546745   -1.4194393171
 C    0.5850675188   -2.0323687720   -2.2473963811
 H    0.8044396638    0.1586259479    0.9415811104
 H    0.2096785848    1.6062359150    0.1264034211
 H   -0.8576286534    0.7001391029    1.1996308758
 H   -0.8939896394   -1.2319736460   -0.2929669234
 H   -1.4295735114    0.1757732496   -1.1817310586
 H    1.3426087605    0.0279211846   -3.6706282957
 H   -0.3300904180    0.5043016413   -3.4552226982
 H    0.3710026330    2.2942447444   -1.8748247550
 H    2.7746473135    2.9415109963   -1.7122506589
 H    2.5260388382    1.3337433334   -1.0163665626
 H    3.2378388032    1.5012500696   -2.6260646507
 H    0.0554487283    2.7575120840   -4.2965382309
 H    1.3377769764    3.7753585718   -3.6221180513
 H    1.7527548597    2.3646782734   -4.6047482946
 H    2.6341730079   -1.2113736162   -1.9017060034
 H    1.7794180027   -1.7351693530   -0.3854113190
 H   -0.0657728575   -2.7595906163   -1.7733197298
 H    0.7849194767   -2.2359574347   -3.2945033478