16

 C    0.0906905417    1.3636207957    0.0454478381
 N    0.0703263263   -0.0861930442    0.0459892880
 C   -1.0661481970   -0.6505290479   -0.0757636118
 N   -2.3000264498   -0.0708193743   -0.2393629350
 C   -1.1597208591   -2.1578964719   -0.0805615764
 O   -2.2158153336   -2.7428320926   -0.1001237963
 O    0.0542615062   -2.7531962489   -0.0560305352
 C    0.0934177876   -4.1291107350   -0.0424663974
 N    1.2226614035   -4.6794562213   -0.0255524726
 H    1.1220813287    1.7149504739    0.1164803791
 H   -0.3534740517    1.7823680816   -0.8711326939
 H   -0.4641221824    1.7859167732    0.8997991954
 H   -2.4227170012    0.8886468932    0.0357063562
 H   -3.0931241336   -0.6841306152   -0.1310516221
 H   -0.8966462817   -4.5846343891   -0.0483433468
 H    1.1112196262   -5.6925501875   -0.0166407092