19

 C   -0.1273336164    1.5013774874    0.0131452901
 C    0.0825342074    0.0161610376    0.0360464398
 C    1.0230919800   -0.7783351122   -0.9030964674
 C    0.6952795194   -1.9264896196    0.1200398140
 C    1.4477643890   -3.2259453879    0.2309654757
 C    0.6854620142   -0.7934590870    1.2102938696
 C   -0.8115312336   -2.0007736879   -0.1212277488
 O   -1.5488779403   -2.9324638161   -0.2457285130
 O   -1.1959026191   -0.6861358846   -0.1732222741
 H    0.8240789797    2.0179755842    0.1689082101
 H   -0.5415844112    1.8177774718   -0.9486475363
 H   -0.8214222367    1.8052285546    0.8022419227
 H    0.7081105446   -0.9017219951   -1.9422390749
 H    2.0652385060   -0.4555401534   -0.8440456983
 H    2.5143866793   -3.0528979299    0.4021004806
 H    1.0591852645   -3.8283210391    1.0579229494
 H    1.3366693512   -3.8163062388   -0.6838228501
 H    1.6934126036   -0.4721862493    1.4833732115
 H    0.0626908984   -0.9306409746    2.0977581693