11

 C   -0.0253668322    1.5141427098    0.0223385623
 C   -0.0122318528    0.0047464832   -0.0645636349
 C    0.7621430565   -0.7122595933   -1.0988873497
 O    1.2233401782   -0.6452637034    0.2478245296
 C   -1.1908123773   -0.6587510708    0.4745246881
 N   -2.1432851263   -1.1560340699    0.8998481857
 H    0.8943962678    1.9136617217   -0.4104262108
 H   -0.8838215125    1.9235655535   -0.5178301298
 H   -0.0909240426    1.8355323636    1.0654439143
 H    0.4336900124   -1.6931122517   -1.4352443590
 H    1.3250847288   -0.1225336127   -1.8205080957