16

 N   -0.5359069052    1.3747053843   -0.1871500687
 C   -0.2826289571    0.0449927086   -0.0653817315
 C   -1.1258042972   -1.0544462655   -0.0857791376
 C   -2.6073559989   -1.1823667479   -0.2615663050
 C   -3.1923238794   -0.4519678358   -1.4760482962
 O   -3.1583546420    0.9750836697   -1.3454556388
 N   -0.3192237154   -2.1354143251    0.1348049210
 N    0.8844939926   -1.8358395659    0.2845009505
 O    0.9571798899   -0.3525846015    0.1538901851
 H    0.2604929613    1.9556181708   -0.3978409632
 H   -1.3955569145    1.5870557557   -0.6840306443
 H   -2.8299218284   -2.2504380409   -0.3563503002
 H   -3.1473627079   -0.8390227231    0.6349860989
 H   -2.6129310794   -0.6782767242   -2.3753980525
 H   -4.2253390188   -0.7834607338   -1.6471757109
 H   -3.7753340997    1.2198199047   -0.6472031566