18

 C   -0.0351351165    1.5311720271   -0.0147132411
 C   -0.0060014009    0.0271126392   -0.0370392581
 C   -0.0199936566   -0.6682049078   -1.1975675721
 C    0.0080023948   -2.1180606684   -1.2281493191
 N   -0.0052822937   -2.7838536007   -2.3278230803
 N    0.0497502718   -2.6673866202    0.0569425882
 N    0.0649610451   -2.0178674777    1.2353113100
 C    0.0386469686   -0.7183725500    1.2130547395
 C    0.0566005699   -0.0225674125    2.5460581138
 H    0.8492268404    1.9404109699    0.4869705865
 H   -0.0686756978    1.9355907685   -1.0286312158
 H   -0.9084275805    1.9058070008    0.5313820484
 H   -0.0528897457   -0.1762029236   -2.1629875829
 H    0.0186862126   -3.7910659822   -2.1576118044
 H    0.0717884539   -3.6720126393    0.1508587124
 H    0.0910778856   -0.7663296908    3.3432057806
 H    0.9264254559    0.6373375547    2.6448084466
 H   -0.8337654468    0.6012370230    2.6873449978