9

 O   -0.0499690796   -0.0443336033   -0.0001878928
 C   -0.0205644036    1.1457423526    0.0087093946
 N    1.1732796187    1.9125079145    0.0022116765
 C    1.3167244337    3.2656205264    0.0113761571
 N    2.5846393967    3.5646619275   -0.0005283825
 N    3.2440746704    2.3533922827   -0.0162418526
 N    2.4286661581    1.3699843192   -0.0146379905
 H   -0.9044013540    1.8066931876    0.0228422894
 H    0.4923544095    3.9604467428    0.0253234608