16

 C    0.1415257936    1.3197912614    0.9876167547
 C   -0.1686899347    0.4453400222   -0.2226388918
 O    0.8357637303   -0.5683571549   -0.4272951394
 C   -1.5202543403   -0.2007843284   -0.1514313445
 C   -1.9851750224   -1.2798134289   -0.8891537262
 N   -1.3579127844   -1.9926293534   -1.8589138357
 O   -3.2245294831   -1.5564461891   -0.5568965379
 N   -3.5777963850   -0.5274325972    0.5076186811
 N   -2.5558589266    0.1690088889    0.6517333954
 H    1.1404306790    1.7503477737    0.8842770605
 H   -0.5898030176    2.1266809863    1.0792891453
 H    0.0999951230    0.7326922344    1.9117024842
 H   -0.0890150250    1.0547581003   -1.1322179812
 H    0.8817819822   -1.0859385453    0.3860191471
 H   -0.3495651141   -1.9208445915   -1.8304189309
 H   -1.7434533449   -2.8953578686   -2.0863222406