23

 C   -0.0421730678    1.4949452314   -0.0798329337
 C    0.0926436259   -0.0324309164   -0.0331002944
 C    0.9344503842   -0.5273024294   -1.2196465395
 C    0.6835015122   -0.5315965018    1.3100280259
 C   -0.0973833922   -0.0452851831    2.5494718318
 C    0.6974078940   -2.0523595454    1.3550311788
 O   -0.2865394069   -2.7252326303    1.1201444867
 C    1.9907079449   -2.7529706103    1.7410803046
 O    1.8254545986   -4.1351953111    1.8169483109
 H    0.9279794222    1.9835134930    0.0737538126
 H   -0.4175896897    1.8117857710   -1.0581516944
 H   -0.7344895472    1.8755616390    0.6752552964
 H   -0.9071970320   -0.4757706028   -0.1175653803
 H    1.9561944734   -0.1310423572   -1.1701279631
 H    0.9952594286   -1.6194405087   -1.2509556527
 H    0.4994160886   -0.1964649607   -2.1677724171
 H    1.7209488095   -0.1774698256    1.3915139504
 H   -0.0396246535    1.0405498462    2.6490055921
 H   -1.1489516525   -0.3375105171    2.4751549481
 H    0.3079433040   -0.4824530249    3.4678893693
 H    2.7541482698   -2.4728291179    0.9936712492
 H    2.3396032338   -2.3340530014    2.7003125785
 H    0.9010795722   -4.2869103664    1.5591697700