22

 C   -0.0639201727    1.6149002977   -0.0201621043
 C    0.0238900658    0.0865917611    0.0048878138
 C    0.7072092473   -0.4931217195   -1.2378915349
 C    0.8094723025   -2.0228383181   -1.2100381917
 C    1.4496275569   -2.5987689678   -2.4724397234
 C    1.4485374821   -4.1324933943   -2.6659879698
 O    0.6475674883   -3.9877672059   -3.8809248331
 C    0.6011046744   -2.6167912705   -3.7331743650
 N    0.0216594986   -1.7437720106   -4.4230435827
 H    0.9326509588    2.0679532888   -0.0683586750
 H   -0.6261469362    1.9630219021   -0.8934794729
 H   -0.5622995975    2.0018919105    0.8741671694
 H    0.5660450310   -0.2357030203    0.9043562678
 H   -0.9855959023   -0.3367679471    0.0922922258
 H    0.1630019329   -0.1890147980   -2.1396116104
 H    1.7158692188   -0.0661764126   -1.3306956256
 H    1.3980985103   -2.3419452755   -0.3392842845
 H   -0.1909037112   -2.4579431600   -1.0845797862
 H    2.4309512181   -2.1462301174   -2.6455913823
 H    2.4091566097   -4.6047222592   -2.8845563220
 H    0.9052112176   -4.7053588689   -1.9092939945
 H   -0.4825193433   -2.1622906445   -5.2068894786