20

 C   -0.2976639305    1.5236160907   -0.0658219696
 N    0.0181445023    0.1093899656    0.0519733822
 C    1.3393347839   -0.4278353950   -0.2788869576
 C    2.5482922852    0.4193226201   -0.6525963271
 O    3.7114456594    0.0385147467    0.0742883948
 C    3.8040510960    0.5920833177    1.3592862814
 O    2.9349444414    0.0519850733    2.3180253324
 C    1.5727262346    0.4362469095    2.1663482425
 C    0.8502198881   -0.4193489860    1.1344303205
 H    0.4990325329    2.2311348468    0.2056395922
 H   -0.5843329918    1.7287257018   -1.1024116841
 H   -1.1629625011    1.7387756781    0.5695770421
 H    1.2920222622   -1.3746046995   -0.8145012097
 H    2.7925461329    0.2702606106   -1.7083760096
 H    2.3542026567    1.4914833341   -0.5100204089
 H    4.8141442365    0.3692469087    1.7101921373
 H    3.6524585880    1.6873293235    1.3002485671
 H    1.1116022607    0.2994212985    3.1487908737
 H    1.5122609700    1.5060897598    1.9228181840
 H    0.4784546425   -1.3604908350    1.5363459464