21

 C   -0.1038097358    1.5340360752    0.0159356422
 C    0.0440428817    0.0007222067   -0.0293660318
 C    0.7717002812   -0.4572457309   -1.3046203422
 O   -0.0098047531   -0.0517759487   -2.4178466816
 C    0.7272886220   -0.5169676158    1.1547941921
 C    1.3102183293   -0.9350757966    2.1246118432
 C    1.9985513048   -1.4304802157    3.2820858176
 C    1.2182788782   -2.0341602078    4.4397591682
 C    2.0504413198   -2.9240784480    3.5649116190
 H    0.8793036338    2.0113201868    0.0819532975
 H   -0.6021686795    1.8844948315   -0.8902123591
 H   -0.6873943625    1.8405898696    0.8876140604
 H   -0.9627513287   -0.4377898336   -0.0739135710
 H    1.7759358367   -0.0061334322   -1.3281730859
 H    0.8963170256   -1.5494935855   -1.2771212615
 H    0.4665663167   -0.2810144878   -3.2205711511
 H    2.8876743813   -0.8714310558    3.5601027852
 H    1.5689207207   -1.8161079617    5.4422484257
 H    0.1409537796   -2.0792523617    4.3351873751
 H    1.5385741560   -3.5740554868    2.8654674966
 H    2.9773007720   -3.3231768214    3.9614361714