20

 C    0.0093537905    1.5490691403   -0.0217376950
 C   -0.0110056003    0.0215144854    0.0603683418
 C   -1.4312564239   -0.5580487301   -0.0247139913
 C   -1.4472586862   -2.0568936070    0.0371417223
 C   -2.6512020577   -3.0611774265   -0.0221083806
 C   -1.3760929292   -3.9588363886   -0.0325574487
 N   -0.6951470603   -2.9569727742   -0.9642193697
 C   -0.8713954207   -3.0342343913    1.0906300097
 O   -0.3761113482   -3.0509503771    2.1702548892
 H    1.0312732934    1.9348473031    0.0416219503
 H   -0.4219139775    1.9028787276   -0.9651542770
 H   -0.5672662438    1.9992046069    0.7941657629
 H    0.5950317300   -0.4082682597   -0.7449460303
 H    0.4493927665   -0.3090451795    0.9986845764
 H   -2.0433517620   -0.1742051827    0.8022882805
 H   -1.9211491227   -0.2228319086   -0.9493864319
 H   -3.3444960556   -3.1182322596    0.8235462514
 H   -3.1780550053   -3.0464669088   -0.9812632999
 H   -1.2907866079   -5.0339790746   -0.1723786051
 H   -1.2361450991   -2.9457951052   -1.8365546550