13

 O   -0.3853112848    0.5912622135    0.7349425238
 C    0.3242012421    0.8878094068   -0.1829266728
 C    1.4228294150    1.9837461342   -0.0887517856
 C    1.5053760704    2.6299298049    1.3211245217
 O    2.7897947841    2.1848513677    1.8192545118
 C    3.3316057642    1.4451311449    0.8408008227
 N    2.7124216586    1.2686111175   -0.2578816761
 C    1.2090208542    2.9508337291   -1.1687007790
 N    0.9927435631    3.7100016586   -2.0124756803
 H    0.2944710545    0.3798310914   -1.1646916749
 H    1.4980619575    3.7197930411    1.3024693164
 H    0.7194100013    2.2459584756    1.9736957532
 H    4.3081859597    1.0325991445    1.0675894990