17

 C   -0.1125391555    1.5509686606    0.1253138930
 C    1.3917887518    1.2585624115    0.0603390591
 O    1.1539554058    0.0458919730    0.9303358624
 C    0.1127202359    0.0332532637   -0.1237973200
 C   -0.8772966018   -0.9367597251   -0.7363527138
 O   -1.8603048394   -0.1917588455   -1.4621138067
 C   -0.7340103022   -0.6921949783   -2.1978918844
 C    0.3809995972    0.3560673740   -2.4926503768
 C    1.1792801130    0.3152409394   -1.1728795600
 H   -0.4925422337    1.8008580504    1.1158643412
 H   -0.5660033920    2.1450860105   -0.6671872455
 H    2.2452012360    1.8753255077    0.3422326144
 H   -1.1935104743   -1.8737242248   -0.2880041795
 H   -0.9827847596   -1.4409658489   -2.9467080195
 H    0.9813811184    0.0557602262   -3.3550306945
 H   -0.0789151468    1.3203245390   -2.7235962531
 H    1.9366887171   -0.4727012635   -1.1921811262