18

 C   -0.0461122279    1.6240095752   -0.1815075489
 C   -0.0200019547    0.1222796524   -0.0150752397
 C    1.2990257322   -0.6742353998   -0.1233101751
 C    2.5493553344    0.0022173387   -0.2868229476
 N    3.5576458887    0.5648589118   -0.3799943292
 C    0.5425786543   -0.5234436815    1.1943581209
 C    1.0610198334    0.0497714704    2.5063874823
 C    0.4754443135   -1.2485740433    3.1055071189
 O   -0.0476792085   -1.6529318549    1.8110910577
 H    0.8291293256    2.0931994164    0.2759689965
 H   -0.0525487784    1.8995659560   -1.2405378287
 H   -0.9426122700    2.0458088300    0.2843535124
 H   -0.8574753726   -0.4138893894   -0.4544634405
 H    1.2322141894   -1.6496719475   -0.5931527863
 H    2.1424531019    0.1722642465    2.5740489596
 H    0.5676084965    0.9682121881    2.8293259909
 H    1.2117058713   -1.9662584151    3.4816903731
 H   -0.3275020891   -1.1263926143    3.8382981439