17

 C   -0.0319139220    1.4983955422    0.0566785963
 C    1.3995042470    2.0690538670   -0.0291575927
 C    2.2112862080    1.3338997459   -1.0486214381
 N    3.2244274450    1.7520145259   -1.7686982251
 C    3.6559465362    0.6433204130   -2.4717157645
 C    2.8977556741   -0.4520452984   -2.1662793704
 N    1.9627625874   -0.0038448680   -1.2505804819
 C    0.9129867526   -0.6892627109   -0.6203519984
 C   -0.0368653079   -0.0121698906    0.0256541746
 H   -0.5220834849    1.8646421660    0.9637107529
 H   -0.6324627844    1.8729188966   -0.7858776210
 H    1.3921887370    3.1345417906   -0.2687426763
 H    1.8861554989    1.9675576507    0.9516245752
 H    4.4869865299    0.7038912013   -3.1575664305
 H    2.9089350029   -1.4731844193   -2.5096460439
 H    0.9448098421   -1.7684323726   -0.7043711226
 H   -0.8449560920   -0.5547321295    0.5016524867