17

 C    1.4508999509   -1.2295237028   -0.6851515747
 C    0.0242291681   -0.7667564959   -0.5686661619
 N   -0.5551413270   -0.7959093827    0.7132769922
 C   -0.0372209699   -1.2042179105    1.9171487261
 O    1.0703143267   -1.6448634637    2.1199266124
 N   -0.7590142188   -0.3360952493   -1.4772294163
 C   -0.3005093607   -0.2559987747   -2.8641705672
 C    0.5947896994    0.8737612562   -3.1157651104
 C    1.3326339011    1.8029337057   -3.3071057422
 H    2.0932756477   -0.6326064436   -0.0336942181
 H    1.5488449249   -2.2612312324   -0.3396727974
 H    1.8058949851   -1.1411425044   -1.7104527345
 H   -1.5078724651   -0.4555369945    0.7102609703
 H   -0.7890692854   -1.0775919406    2.7204377697
 H    0.1877865141   -1.1853325682   -3.1934205550
 H   -1.1927034315   -0.1453957081   -3.4905901451
 H    1.9808850303    2.6257378496   -3.4814583779