20

 C   -0.0476001871    1.5372450114    0.0820624284
 C    0.1184908969    0.0487933391    0.0341353756
 N   -0.7874802435   -0.8654036039    0.7659131677
 C    0.6806340502   -0.9248635120    1.0055036580
 C    1.2591294873   -1.8021368365   -0.1021806406
 C    0.6708163470   -0.8078598327   -1.1633985333
 C   -0.3711949055   -1.3277481318   -2.1505672857
 C    1.7478864041   -0.0281837541   -1.8890501836
 O    2.9286695062   -0.0606621232   -1.6498370865
 H    0.8527623954    2.0529193286   -0.2684010774
 H   -0.8886700683    1.8682515467   -0.5386746280
 H   -0.2403843824    1.8691762704    1.1082300080
 H   -1.1996787328   -0.3239069005    1.5263021814
 H    1.0827390483   -0.7542386808    1.9970961079
 H    2.3496546026   -1.7986411934   -0.1335667976
 H    0.8725031697   -2.8230036165   -0.1424732931
 H   -1.2131159469   -1.7528096327   -1.6007900842
 H   -0.7473563429   -0.5243568830   -2.7953404388
 H    0.0513928145   -2.1040046873   -2.7978449389
 H    1.3540959973    0.6324191023   -2.6972118094