19

 O   -0.1145561827    1.3487824369   -0.3740754239
 C    0.0006613665    0.0027075243    0.0957594092
 C   -1.3985258867   -0.5590436291    0.0746189438
 O   -2.2945230408    0.2009995267    0.8378853318
 C   -1.9164584720   -1.2382122448   -1.1857848558
 C   -1.6178833960   -2.0320826018    0.0786372975
 O   -0.4653222097   -2.8281681923    0.1087209060
 C   -2.7551710117   -2.6306252517    0.8673446691
 O   -2.9720604338   -3.9300508999    0.3102171353
 H    0.6810166384    1.8254522950   -0.1225759743
 H    0.6689500357   -0.5948166023   -0.5339931108
 H    0.3838317415   -0.0179549577    1.1258933321
 H   -2.1510435992    1.1142243189    0.5565030653
 H   -2.9556947289   -1.0730975693   -1.4468639388
 H   -1.2306152510   -1.3536829033   -2.0174835309
 H   -0.7703906560   -3.7186969263   -0.1095313709
 H   -2.4633064372   -2.7047824453    1.9245758784
 H   -3.6493476113   -2.0013748089    0.7986056925
 H   -3.4829201049   -4.4467165090    0.9390901544