19

 C   -0.0487368196    1.5153771474    0.0141476805
 C    0.0612861648    0.0096230618   -0.0130600273
 O   -0.3169509852   -0.6652731980    1.1879331070
 C    1.0630520233   -0.7124935173    0.7930735621
 C    1.6032724250   -2.0524527806    0.3137321972
 C    1.7368465950   -2.1242788408   -1.2206892448
 C    0.4727204657   -1.6795133984   -1.9230172785
 O   -0.7585211374   -2.0109997853   -1.2767410818
 C   -0.3735088469   -0.6382808520   -1.3108725273
 H    0.5170640755    1.9651660936   -0.8094797352
 H   -1.0944242698    1.8265997113   -0.0880443771
 H    0.3349666915    1.9099458799    0.9576322951
 H    1.7171065967   -0.1239610790    1.4368175005
 H    2.5773324827   -2.2476947239    0.7717638745
 H    0.9168852653   -2.8322709028    0.6531460259
 H    2.5625354759   -1.4886926562   -1.5687509814
 H    1.9859664993   -3.1484910814   -1.5207925662
 H    0.4584698112   -1.7879669415   -3.0080826544
 H   -0.9958202729   -0.0160895168   -1.9547444089