13

 C   -0.0261098565    1.4626466784   -0.0193433194
 C   -0.0025561372   -0.0360502970   -0.0024096826
 N   -0.0620786292   -0.6534192363   -1.1298358135
 O   -0.0385086792   -2.0393395651   -1.0839878873
 C    0.0453253557   -2.7586854756    0.1159172015
 N    0.0628700515   -4.0215588594    0.0915300282
 N    0.1082162392   -2.0556890220    1.3166289684
 C    0.0851139371   -0.7775512370    1.2511002938
 H    0.8803995998    1.8693357780    0.4426797843
 H   -0.0943662086    1.8247467543   -1.0458657451
 H   -0.8812849571    1.8428763201    0.5504980047
 H    0.0092838910   -4.3593962948   -0.8699548610
 H    0.1337397135   -0.2172412737    2.1856618380