23

 C   -0.0411407295    1.2987038431   -0.1405836102
 O    0.0078625876   -0.0992835912    0.0017275175
 C   -1.2708039246   -0.7005582289   -0.0181239192
 C   -1.1262836127   -2.2149113135    0.1455090981
 C   -0.4653561886   -2.5514153615    1.4845441213
 O   -0.1592417154   -3.9389897780    1.5033943032
 C   -2.4753449207   -2.8889177704   -0.0218144714
 C   -3.0093928982   -3.2003157825   -1.4012395884
 C   -2.5745212567   -4.3164721049   -0.4860250044
 H    0.9871650895    1.6682234431   -0.1185916775
 H   -0.5051994578    1.5968685841   -1.0944700864
 H   -0.6074127299    1.7748020692    0.6762284179
 H   -1.8991277532   -0.2859480717    0.7914575552
 H   -1.7845677111   -0.4793920977   -0.9676205142
 H   -0.4531806086   -2.5702988711   -0.6457508051
 H    0.4394517357   -1.9400604571    1.5963089704
 H   -1.1530303985   -2.2854283707    2.3063999073
 H    0.3238361744   -4.1254106959    2.3132084821
 H   -3.2168057879   -2.5773933042    0.7120032922
 H   -4.0689073717   -3.0652921204   -1.5893482533
 H   -2.3765063928   -2.9664873174   -2.2517865306
 H   -1.6475970943   -4.8317598757   -0.7074040887
 H   -3.3376322150   -4.9469155466   -0.0431228658