17

 C    0.0088040108    1.5378689508    0.0302094089
 C    0.2263330345    0.0208815673    0.0133617651
 C    0.6931480969   -0.4792993283   -1.3522885037
 C    0.7337861631   -2.0111617765   -1.6165425505
 O   -0.2465692263   -1.8420352671   -2.7083202702
 C   -0.3432541844   -0.4916020138   -2.4779654555
 O   -1.0592791912    0.2849376736   -3.0237034746
 C    1.9796561399   -2.5969328835   -2.0578162632
 C    3.0268028690   -3.0730812346   -2.4042644681
 H    0.9424411886    2.0718745929   -0.1767225665
 H   -0.7214288511    1.8346761264   -0.7274603796
 H   -0.3552442550    1.8663196254    1.0077336194
 H    0.9728507991   -0.2638144505    0.7645359884
 H   -0.7040454090   -0.4920731076    0.2872213078
 H    1.6161214430    0.0189585362   -1.6615590034
 H    0.2743192236   -2.6034173767   -0.8196988562
 H    3.9485134484   -3.5000962441   -2.7155573480