23

 C   -0.0086235734    1.5136645054   -0.2181408680
 C    0.1038097670    0.0015344552   -0.1087973724
 O    1.1766984215   -0.5584536561   -0.1258047309
 C   -1.2089860294   -0.7582443009    0.0205827473
 C   -1.0276022981   -2.2733812267    0.1042934980
 C   -2.3370286366   -3.0791019287    0.0491344178
 C   -2.0161180464   -4.5792975919   -0.0097395535
 C   -3.2589310638   -2.7789646288    1.2414280257
 O   -2.9771200320   -2.6773250103   -1.1715365514
 H    0.9857091786    1.9549352678   -0.2958507848
 H   -0.6031864840    1.7877993028   -1.0968732644
 H   -0.5273702840    1.9242416348    0.6554025616
 H   -1.7342273552   -0.3592833413    0.8989738916
 H   -1.8456454703   -0.5025557667   -0.8352667190
 H   -0.3930669257   -2.5917536002   -0.7284395699
 H   -0.4836286897   -2.5344650318    1.0178691649
 H   -1.4783507240   -4.9088419929    0.8852537709
 H   -2.9374208799   -5.1699765202   -0.0793873898
 H   -1.4006116475   -4.8006091900   -0.8859564168
 H   -3.5634538469   -1.7294026135    1.2502146813
 H   -4.1677736848   -3.3899780331    1.1852735786
 H   -2.7672423486   -3.0075410847    2.1926584584
 H   -3.8028143665   -3.1669744284   -1.2465646054