23

 C   -0.1209032011    1.6233099876   -0.1729536669
 C   -0.1607670449    0.0895617721   -0.1457031988
 C    0.7794023791   -0.5232069011   -1.1564356740
 C    2.3150820330   -0.4321410032   -0.9571447064
 C    2.4485551371   -1.9364515660   -1.3488560511
 C    0.9061405163   -2.0446167018   -1.5274427099
 C    0.1759664590   -3.1860104944   -0.8572508476
 C    0.4364394799   -1.5851235453   -2.9200137874
 O    0.4134707074   -0.1963726322   -2.5237480239
 H    0.8756974052    1.9995491762    0.0811936925
 H   -0.3751902318    1.9923995673   -1.1702716747
 H   -0.8312690839    2.0479841003    0.5423727482
 H    0.1034763948   -0.2782911099    0.8540452442
 H   -1.1802171720   -0.2571296980   -0.3543892453
 H    2.7987323546    0.2856795543   -1.6225139099
 H    2.6172908844   -0.2208945641    0.0726244066
 H    3.0383169450   -2.1503236086   -2.2447114111
 H    2.8270169886   -2.5620463424   -0.5360871020
 H    0.4604416457   -3.2806534435    0.1964138570
 H   -0.9104605926   -3.0526414639   -0.9021095837
 H    0.4123206720   -4.1396657124   -1.3456730679
 H    1.1230371294   -1.7699163978   -3.7568256473
 H   -0.5661555652   -1.9366702229   -3.2012085006