16

 O    0.0425960031    1.4289503885   -0.0390972875
 C    0.0858504953    0.0449420980   -0.0317943444
 C   -1.2122797434   -0.6586596577    0.2044595322
 C   -2.4890656639    0.1230698485    0.4455282134
 C   -3.7159328213   -0.6313680044   -0.0315044157
 O   -4.6641534549   -0.8911793352    0.6622307540
 C   -0.5611195573   -0.7283082656   -1.1864830228
 C   -1.1003319741    0.0210320605   -2.2819480148
 N   -1.5167697708    0.6352590463   -3.1703256720
 H    0.5951795201    1.7610080779   -0.7556671193
 H    0.9893970885   -0.3973545990    0.3859492557
 H   -1.1421455967   -1.5927242327    0.7540423439
 H   -2.6063216221    0.3408864232    1.5107670976
 H   -2.4387627063    1.0761465552   -0.0928486238
 H   -3.6825716574   -0.9375653722   -1.1010169635
 H   -0.1073003088   -1.6714557013   -1.4714032029