16

 N   -0.0527591732    1.2693240667    0.0166007363
 C   -0.0180958506    0.0123258686   -0.0121342164
 O    1.0987490574   -0.7824163858   -0.0412208254
 C    0.6421362651   -2.1506927013   -0.1252045808
 C    0.5636328089   -2.7691556638    1.2758698885
 C   -0.6220171526   -2.2121478137    2.0274392536
 C   -1.4591568696   -1.3511557493    1.4498041861
 C   -1.1956733575   -0.9530846592    0.0116462218
 O   -0.6386223454   -2.0687970025   -0.6986503062
 H    0.8901783509    1.6618648375    0.0212230847
 H    1.3089209484   -2.6893672035   -0.8010296292
 H    0.4869903354   -3.8606199580    1.1855478427
 H    1.4989388924   -2.5636938178    1.8106676282
 H   -0.7675653497   -2.5362735518    3.0536625770
 H   -2.2951382782   -0.9015849993    1.9730382566
 H   -2.0701632916   -0.5858699167   -0.5209611475