19

 C   -0.1862507448    1.3771965410   -0.0452228812
 O   -0.1727280224   -0.0314269397   -0.0897571541
 C    0.7449036424   -0.5398611673   -1.0314660965
 C    0.6526703781   -2.0510788457   -1.0039557079
 C    0.8174328139   -2.6858592665    0.3606298471
 N   -0.3163472345   -2.6162177036   -1.9471631087
 C    1.1260009434   -2.8253015724   -2.1994628874
 C    1.6858878315   -2.1923213671   -3.3702391595
 N    2.1694785937   -1.6913606689   -4.2933990313
 H    0.7975783405    1.7854355603    0.2349223902
 H   -0.4754438406    1.8114452944   -1.0142945575
 H   -0.9198044035    1.6716480353    0.7087281841
 H    0.5184905976   -0.1725629465   -2.0424508643
 H    1.7733271849   -0.2256508693   -0.7807463899
 H    0.0255552878   -2.3363189813    1.0274056300
 H    0.7729401387   -3.7778430781    0.2982282878
 H    1.7777215238   -2.4087660004    0.8076143555
 H   -0.7209566679   -3.4764577437   -1.5837006278
 H    1.5515187573   -3.8049301806   -1.9968256085