15

 C    0.0037129452    1.5353688319    0.0481393719
 C    1.5765067068    1.4039432000    0.0453504752
 C    1.3240653382   -0.0285553466    0.4637611749
 C    1.4235736103   -0.8640924022    1.4896378649
 C    0.0934174589   -1.5959229658    1.6107048901
 O   -0.8327981708   -0.8574698745    0.7877380087
 C   -0.0704940907   -0.0339147716   -0.0697829107
 H   -0.3659842184    1.8674623417    1.0197672944
 H   -0.4493124376    2.1213569332   -0.7548717473
 H    1.9829931791    1.5046848665   -0.9655520170
 H    2.1508407450    2.0347407205    0.7256554188
 H    2.2091009596   -0.9432194378    2.2304274754
 H    0.1308516970   -2.6462438762    1.2790333901
 H   -0.2739796655   -1.5923316418    2.6454910753
 H   -0.1994006670   -0.3392477774   -1.1183876146