20

 C   -0.1072759413    1.7650542066   -0.2233096283
 N   -0.0643778189    0.3294078669   -0.0349500418
 C   -1.2191015062   -0.4236314393    0.5375783025
 C   -0.2284594044   -1.3107874025    1.3246887888
 C    0.8389162319   -0.2819559447    0.9462426081
 C    2.3125724913   -0.4549325156    0.7883352296
 C    1.7593909178    0.4386525543    1.8902391993
 C   -2.1532341209    0.4037792169    1.4082148578
 O   -2.2501357638    0.3091957205    2.6053715033
 H    0.8479306145    2.0988963524   -0.6428934487
 H   -0.8863014090    2.0163565500   -0.9509924547
 H   -0.2915627781    2.3461800186    0.6969096014
 H   -1.8290714841   -0.9054061482   -0.2403081508
 H   -0.4581422143   -1.4008717684    2.3864289405
 H   -0.0765074630   -2.2964947954    0.8813565801
 H    2.7496150380   -1.4100550103    1.0621080377
 H    2.7940259070    0.0310196434   -0.0546430175
 H    1.8906092733    1.5094402626    1.7733113926
 H    1.8129871582    0.0954052905    2.9184924882
 H   -2.7715693381    1.1407501917    0.8460365520