19

 C    0.3572104260    1.6677986231   -0.1811935015
 C   -0.0246250513    0.2122334570    0.1214491839
 C    0.2124051560   -0.6784806752   -1.1158459817
 C    0.6917866486   -0.3241370367    1.3300607876
 C    1.8306772388    0.0912196066    1.9414971820
 O    2.1258491776   -0.6682566897    3.0051354708
 N    1.1482979147   -1.6624606722    3.1301188083
 C    0.3057057449   -1.4422433251    2.1456059147
 N   -0.8568489190   -2.1878286872    2.0179407634
 H    1.4182849604    1.7497807833   -0.4430485780
 H   -0.2196222874    2.0486451232   -1.0294163015
 H    0.1685509908    2.3157610521    0.6795159894
 H   -1.1002592662    0.1865236508    0.3464105638
 H    1.2688322254   -0.6625718020   -1.4037816129
 H   -0.0573931984   -1.7234445910   -0.9292192042
 H   -0.3799988869   -0.3272273001   -1.9670595995
 H    2.5151256187    0.9020281018    1.7445992135
 H   -0.8509458343   -3.0158601724    2.5993576211
 H   -1.1063803384   -2.4081693664    1.0643212109