14

 O   -0.0312497847    1.4474520448   -0.0804105409
 C    0.0352277827    0.0526063724   -0.0362288997
 C    0.4076586585   -0.6441016754    1.3311916339
 C   -0.9659559936   -1.3307581545    1.2976262846
 O   -1.9424649257   -0.2630660344    1.2167482531
 C   -1.3123514860   -0.6908519054    0.0045805563
 C   -1.3515298237   -2.5788170561    1.8587645847
 C   -1.6303481221   -3.6399640088    2.3505227342
 H   -0.7063008226    1.7060617000    0.5604333349
 H    0.6846617306   -0.2700914249   -0.8528674519
 H    1.2438388736   -1.3398479649    1.2385355872
 H    0.5665427941    0.0231491958    2.1809425990
 H   -1.9584090767   -1.0273193032   -0.7985668877
 H   -1.8890829343   -4.5755226653    2.7816024725