14

 N    0.0068057878    1.3442631364    0.3791912090
 C   -0.0139937585   -0.0106791012    0.0374802433
 C   -1.0909535816   -0.8054392325   -0.2222775837
 O   -0.6778083666   -2.1076874687   -0.4295778691
 C    0.6603250493   -2.1017954800   -0.2947482367
 O    1.3033002139   -3.2730645620   -0.5261719249
 C    0.9477426804   -4.3553935732    0.2424419473
 O    1.4109799948   -5.4317314769    0.0485059069
 C    1.1428871819   -0.8685593416   -0.0078743126
 H    0.8111573030    1.8333967285    0.0093834263
 H   -0.8380611877    1.8359196150    0.1199229773
 H   -2.1515883476   -0.6358628873   -0.2795901948
 H    0.2138410328   -4.0909537554    1.0207205784
 H    2.1738250481   -0.6026076911    0.1583462631