18

 O   -0.1296063010    1.4784945148   -0.1281864157
 C    0.0510359747    0.0755054178    0.0026386823
 C   -1.3532729328   -0.4932263624    0.2252004604
 N   -1.3708174052   -1.8884531534    0.6311498842
 C   -0.9612122909   -2.9767889808   -0.0881922792
 O   -1.2161048641   -4.1135413868    0.2625369326
 C   -0.1564351116   -2.7050983750   -1.3679766053
 O    0.9727106774   -1.8702088343   -1.1999680552
 C    0.7205989894   -0.4846210632   -1.2588250278
 H    0.7338761376    1.8873527585   -0.2455985098
 H    0.6693265806   -0.1768253156    0.8773021883
 H   -1.8196183479    0.0878065157    1.0235500341
 H   -1.9532536168   -0.3236229134   -0.6804997855
 H   -1.9093536403   -2.1333345291    1.4485734143
 H    0.2084460386   -3.6784153097   -1.6992479110
 H   -0.8283327094   -2.3021399187   -2.1447049489
 H    0.0972103047   -0.2284597625   -2.1317647812
 H    1.6982595268   -0.0061203020   -1.3939670867