19

 C   -0.6286064798    1.2208337333    0.3557294895
 C   -0.0742661837   -0.1514041130    0.0473864052
 C    0.7319851051   -0.4642733778   -1.2056695734
 C    1.2144112314    0.6245046743   -2.1593605520
 C    2.7220232823    0.8085700304   -2.0342055925
 O    3.4584955481    1.0073998043   -2.9694626841
 C    3.2665223571    0.7114897936   -0.6054092686
 O    2.2438248343    0.6383558198    0.3744197436
 C    1.3940719850   -0.4529764409    0.1543362514
 H    0.1253737090    1.9983632231    0.2205390511
 H   -1.4910547332    1.4535960533   -0.2781383338
 H   -0.9583948364    1.2695680119    1.3985123501
 H   -0.7160165640   -0.9705924518    0.3614295297
 H    0.5578705061   -1.4313632651   -1.6657071096
 H    0.9828303755    0.3935997129   -3.2010065120
 H    0.7430125103    1.5893559024   -1.9348970048
 H    3.9465371721   -0.1533542247   -0.5501272535
 H    3.8562045164    1.6076911037   -0.3917016127
 H    1.7303085143   -1.3819149300    0.6146765965