17

 O    0.1961824568    1.3735690046   -0.0357745779
 C    0.0199183983   -0.0072944100    0.0049086130
 C   -0.4448693763   -0.6798442143    1.2723563366
 O   -1.0500014698    0.2012665947    2.1941521052
 C   -2.4071809582    0.4321712645    1.8345383734
 C   -2.7159096881    1.4090995898    0.7309419348
 C   -2.6329518442   -0.0798347790    0.4413685041
 C   -1.3244061267   -0.7394698353    0.0411872437
 O   -1.4138137830   -1.9395294625   -0.6631068395
 H    0.1835661994    1.6747660453    0.8827711936
 H    0.7718511434   -0.5531326671   -0.5634762845
 H    0.0708082098   -1.5249867533    1.7173759714
 H   -3.0927152011    0.2927472635    2.6635268567
 H   -3.7127272955    1.8389043509    0.7494180856
 H   -1.9436296265    2.0576169312    0.3449942963
 H   -3.5194423383   -0.6375518740    0.1649847516
 H   -1.4573491499   -1.7294387492   -1.6027266840