20

 C   -0.0157818220    1.5600874745   -0.0913509105
 C   -0.0066844642    0.0303043729   -0.1311237178
 C   -1.4047072416   -0.5738256328    0.1150579942
 C   -1.4264763327   -2.0704469913    0.1074938108
 C   -1.6736221615   -2.9099648570    1.1194081680
 C   -1.5864018352   -4.3252441324    0.6589527038
 O   -1.7196052718   -5.3481222797    1.2975723444
 N   -1.3139552072   -4.2353466945   -0.6926470754
 C   -1.1531562995   -2.8768095704   -1.1481653326
 H    0.9851237423    1.9664384820   -0.2649017874
 H   -0.6814802150    1.9731165892   -0.8573035380
 H   -0.3614959719    1.9285660769    0.8806338588
 H    0.3744049138   -0.3085335378   -1.1021777551
 H    0.6860540378   -0.3596686923    0.6240575715
 H   -1.7877114760   -0.2155840273    1.0771780283
 H   -2.0909712471   -0.1938065470   -0.6554449320
 H   -1.9105876705   -2.6556472714    2.1432301465
 H   -1.1158490455   -5.0507186833   -1.2463917458
 H   -1.8629717892   -2.6136538682   -1.9469153795
 H   -0.1435291730   -2.6835044602   -1.5395175722