18

 C   -0.0208808776    1.4779849932    0.0417855831
 C    0.0008649462   -0.0131361236   -0.0130275033
 C   -0.0300995978   -0.7938500642   -1.1028774909
 N    0.0065630665   -2.1496655297   -0.7370475987
 C    0.0025127701   -3.3819191086   -1.3372057624
 C    0.0582233488   -4.3177030977   -0.3247977897
 C    0.0972233446   -3.6250674895    0.9259625860
 C    0.0637574085   -2.2823296746    0.6356236429
 C    0.0650834540   -0.9005632534    1.2289699547
 H    0.8744581728    1.8762872072    0.5363489840
 H   -0.0708197345    1.9127259945   -0.9604987345
 H   -0.8830217724    1.8478290467    0.6116492387
 H   -0.0765257034   -0.5138940899   -2.1455358304
 H   -0.0386805439   -3.4901243470   -2.4087642320
 H    0.0700493976   -5.3883804651   -0.4623601313
 H    0.1438337644   -4.0732036657    1.9065628253
 H    0.9644849125   -0.6897209402    1.8234461036
 H   -0.7903194464   -0.7182109525    1.8936619449