23

 C    0.1625191904    1.5051748946    0.2816844263
 C    0.0991209838   -0.0015359087    0.0080259264
 C   -1.3295925251   -0.5396427351   -0.0100124191
 C   -1.5980455627   -2.0707492790   -0.1711859201
 C   -2.6520395278   -2.0278638544    0.9818916911
 C   -2.6519084999   -3.0974277357    2.0714521820
 C   -3.6869374836   -2.8268413384    3.1689873915
 C   -2.0880880828   -0.6374933728    1.3258796785
 O   -2.0881293233    0.0286195704    2.3252403337
 H    1.1984577727    1.8568854892    0.3073423584
 H   -0.3617590474    2.0696282540   -0.4977621470
 H   -0.3058462989    1.7417378311    1.2405862907
 H    0.5777741726   -0.2323412420   -0.9522658263
 H    0.6717122637   -0.5396234863    0.7743092090
 H   -1.9388436993    0.0300583942   -0.7249087573
 H   -1.9541313659   -2.4045431055   -1.1467493904
 H   -0.7214662820   -2.6630059892    0.1089040723
 H   -3.6629003400   -1.9101199187    0.5682261837
 H   -2.8372160734   -4.0754359623    1.6091739148
 H   -1.6496944827   -3.1520285449    2.5154959372
 H   -3.6495703295   -3.5988838700    3.9436366776
 H   -3.5039335409   -1.8572431744    3.6393171099
 H   -4.7029500680   -2.8157751664    2.7583682571