20

 C   -0.0922664922    1.4818288634    0.0665000958
 N    1.2503871553    0.9043062961   -0.0019885377
 C    2.0459531755    0.4767809282    1.1663370924
 C    1.5520172535   -0.9757194092    1.3934366059
 C    0.0394230707   -0.7559072310    1.2909109185
 C    0.0613970448    0.0076134009   -0.0358966452
 C    0.1682830568   -0.9656178683   -1.1887609192
 C    1.5736053805   -1.6074259514   -0.9867600940
 O    1.9330899364   -1.8989818214    0.3732828815
 H   -0.4754660823    1.8613882691    1.0153385899
 H   -0.3474189622    2.0996164314   -0.7927141484
 H    3.1078557457    0.5256136555    0.9098345351
 H    1.8808115535    1.0802282018    2.0703538909
 H    1.9114945682   -1.4168484572    2.3274696631
 H   -0.5155687169   -1.6939717340    1.2415097300
 H   -0.3425796390   -0.1580314342    2.1230483145
 H   -0.6318176525   -1.7126187696   -1.1629824167
 H    0.1480344783   -0.4732362293   -2.1656584437
 H    1.6556438455   -2.5645061671   -1.5100945684
 H    2.3082882104   -0.9141193538   -1.4119712242