16

 C   -0.0649064428    1.5375160720    0.0334529170
 C   -0.0444489166    0.0353141804    0.0518581335
 C    1.0836511366   -0.8061435038   -0.6717881839
 O    2.0477335817   -0.5130033533    0.3876230523
 C    0.7929105399   -0.7891325054    1.0969203105
 C    0.4900955885   -1.9888496896    0.1638047225
 N   -0.9495589762   -2.0602749729    0.0061286641
 C   -1.3423047713   -0.7392904565   -0.1911022504
 O   -2.4284636182   -0.3266431798   -0.5135968037
 H    0.9456676171    1.9295449946    0.1740405294
 H   -0.4624005123    1.9057559532   -0.9167892652
 H   -0.7085624189    1.9266730335    0.8282349078
 H    1.4241375736   -0.7543149909   -1.7073790787
 H    0.7850070114   -0.7249089470    2.1856928528
 H    1.0278075071   -2.9267497616    0.2728158900
 H   -1.4140123996   -2.8078728630   -0.4871016079