22

 C   -0.0716086202    1.5792211364   -0.2614637323
 C   -0.0213388561    0.1327771363    0.2448398453
 C   -1.3726462267   -0.5506373188    0.1807921714
 C   -1.8387423381   -1.2402624204   -1.0816723226
 C   -1.5389051336   -2.0549990669    0.1565180583
 C   -0.3830054998   -3.0053745353    0.2024819681
 C   -0.0826884171   -3.7768008255    1.4654742708
 C   -0.6339274591   -4.4932388736    0.2571010594
 H    0.9113305316    2.0572719284   -0.2017062239
 H   -0.4047623154    1.6189613323   -1.3038423846
 H   -0.7706823584    2.1800399030    0.3309702317
 H    0.7108112863   -0.4308302091   -0.3446416685
 H    0.3476303375    0.1198621322    1.2789831923
 H   -2.1472790027   -0.0184733146    0.7301190850
 H   -2.8687141402   -1.1268332078   -1.4025098495
 H   -1.1270387274   -1.3084511509   -1.8999085442
 H   -2.4103660392   -2.4251439425    0.6934105851
 H    0.4823760419   -2.7026453859   -0.3794953830
 H    0.9537809786   -3.9437477936    1.7377368009
 H   -0.7447423715   -3.6311151465    2.3129589381
 H   -1.6654795791   -4.8287060742    0.2932805701
 H    0.0250623785   -5.1507047229   -0.2994464780