21

 O    0.0568495425    1.4810139314   -0.1098870874
 C    0.0582889140    0.0732976770    0.0684473558
 C   -1.3626218269   -0.4285075420   -0.1672304637
 C   -1.4763171155   -1.9380789812   -0.0250355284
 C   -1.4642400651   -2.6887091072    1.3369157901
 C   -2.5927890644   -2.0341875610    2.1611614950
 C   -3.6839830736   -2.0425751192    1.0433093422
 C   -2.8271270899   -2.6987836279   -0.0600269238
 O   -2.1752586267   -3.7816598186    0.6763953003
 H    0.9503323893    1.8047507796    0.0367310142
 H    0.7477820651   -0.4188110112   -0.6369634254
 H    0.3867824105   -0.1993020095    1.0851277361
 H   -2.0300886078    0.0961489046    0.5237389237
 H   -1.6675820966   -0.1316077280   -1.1785370243
 H   -0.7833181317   -2.4500892469   -0.6992503454
 H   -0.5502726840   -2.9971059040    1.8453999093
 H   -2.8613642543   -2.6564051702    3.0169341974
 H   -2.3416717878   -1.0342270761    2.5249878518
 H   -4.5411704442   -2.6695469255    1.2959746164
 H   -4.0481850686   -1.0475459088    0.7744874545
 H   -3.3084059541   -3.0144217550   -0.9861747483