24

 C   -0.6116024697   -0.8158214743    0.0100082470
 C    0.4490271937   -1.7954116297    0.4790131072
 C    1.8069017449   -1.9010023163   -0.1571395972
 C    2.2674145132   -0.9518444573   -1.2446111438
 N    1.6579097223   -1.5032797081    1.2399101984
 C    2.1209037797   -0.2557212438    1.7939549075
 C    3.6160304792   -0.3275365735    2.0472965034
 C    1.5370169239    1.1250197074    1.5305563341
 C    1.2754599747    0.4125221063    2.8425852066
 H   -0.2174744363    0.0159468962   -0.5748880576
 H   -1.3223351465   -1.3544044203   -0.6265383035
 H   -1.1804728380   -0.4040692867    0.8504610010
 H   -0.0025711639   -2.7322614899    0.8105532896
 H    2.2234446510   -2.9033488660   -0.2719143142
 H    1.9029563383    0.0665308411   -1.1023015501
 H    3.3613438487   -0.9073758730   -1.2754255901
 H    1.9282740818   -1.3043657510   -2.2253841359
 H    4.1738536475   -0.4122900027    1.1083019356
 H    3.9684812007    0.5687369704    2.5659252994
 H    3.8534292380   -1.2024494145    2.6602747399
 H    2.2255173368    1.9645092166    1.5316135360
 H    0.7024373673    1.2459951441    0.8554092667
 H    0.2778912901    0.0168658242    3.0015040921
 H    1.7574875525    0.7749408006    3.7446933881