21

 C   -0.2302637400    1.5671671289    0.0064598374
 C   -0.0021668093    0.0513068249    0.0173107129
 C    0.7186460474   -0.4498290719   -1.2467296421
 C   -0.0572717901   -0.2128519308   -2.5547085099
 C    0.5971172324   -0.9175797782   -3.7215903138
 O    0.9640810694   -0.3842829754   -4.7360761075
 C    0.8003759505   -0.3831460245    1.2705333923
 C    0.1174726071   -0.1076772576    2.5285096408
 C   -0.4668896811    0.1181152773    3.5546921561
 H    0.7204149543    2.1033292600   -0.1027114978
 H   -0.8822494855    1.8721061906   -0.8165050665
 H   -0.6946254078    1.8929605262    0.9408775467
 H   -0.9798860864   -0.4465632257    0.0705997053
 H    1.7027660455    0.0326723422   -1.3194817326
 H    0.9112148656   -1.5262650137   -1.1414217729
 H   -1.0714054642   -0.6266382818   -2.4486462764
 H   -0.1452281089    0.8480477867   -2.7998314039
 H    0.7308632965   -2.0161351282   -3.5727984225
 H    1.0148829002   -1.4578728886    1.2075896492
 H    1.7761881665    0.1222048636    1.2652691662
 H   -0.9719881918    0.3143401859    4.4677795091