12

 O   -0.0098387262    0.0009976593    0.1204298787
 C   -0.0295015322    1.1975110601    0.0512371960
 C   -1.2526737709    2.1063469981    0.0099624194
 C   -0.6967329106    3.5461532746    0.0563442650
 N    0.7476166095    3.3745119102   -0.0372956606
 C    1.2260978594    2.0971202750   -0.0162399711
 O    2.3788747391    1.7366475674   -0.0449657246
 H   -1.8056953753    1.9095924812   -0.9134997425
 H   -1.9237070551    1.8784185590    0.8411597656
 H   -1.0698272354    4.1578423576   -0.7718487768
 H   -0.9703740542    4.0531772005    0.9891514445
 H    1.3839933618    4.1563429071   -0.0549654136