20

 C    0.1515957761    1.4277851685   -0.1095329799
 C    0.0102361776   -0.0680940459    0.0187784027
 N   -0.3467900235   -0.7455779233    1.0333438535
 O    0.3283013874   -0.6651321374   -1.1479573814
 C    0.2619703329   -2.0946772388   -1.1821047027
 C   -1.1401877119   -2.7613169255   -1.3339849431
 C   -0.6485979256   -3.4017007039   -2.6385402549
 C   -0.2599733472   -2.3262765519   -3.6071387825
 C    0.7049955428   -2.6846332850   -2.5085605325
 H   -0.1070167006    1.9284543991    0.8248524835
 H    1.1788233179    1.6865080197   -0.3840067052
 H   -0.4980947444    1.7999056914   -0.9076450297
 H   -0.5378261945   -0.1310525586    1.8213782939
 H    0.8007517360   -2.4922650721   -0.3208723482
 H   -1.3468897157   -3.4622546700   -0.5244113866
 H   -1.9849156786   -2.0735002629   -1.4330809114
 H   -0.8334402070   -4.4221401507   -2.9487888373
 H    0.0358930194   -2.6642856575   -4.5949675429
 H   -0.7687230494   -1.3660169557   -3.5953821468
 H    1.7015223583   -3.0510816693   -2.7220327584