18

 C   -0.0210922160    1.5616776900    0.0132413189
 C    0.0474868412    0.0357873267   -0.0364490812
 C    0.8420470599   -0.5215305995   -1.2257698069
 C    0.8125966983   -2.0382938180   -1.1948007406
 O    1.3762153264   -2.5747706124    0.0094874721
 C    1.1473436667   -1.9837369498    1.2163379888
 N    1.4330924491   -2.5642992864    2.3037149378
 C    0.5921741881   -0.5517924464    1.2627032430
 O    0.5958249857    0.0575513415    2.3008391510
 H    0.9830740949    1.9943473090    0.0665416250
 H   -0.5154971291    1.9517678820   -0.8812212328
 H   -0.5697206500    1.8950393311    0.8956392966
 H   -0.9779739973   -0.3635983151   -0.1176180019
 H    0.4142264429   -0.1688711655   -2.1706459227
 H    1.8803163685   -0.1686154332   -1.1885799754
 H   -0.2194759444   -2.4029184985   -1.2965922991
 H    1.4044701753   -2.4750762912   -2.0026167257
 H    1.7996856598   -3.4997876443    2.1099969232