16

 O    0.0791933313   -0.0365953908   -0.3632024196
 C    0.0397713415    1.1520113878   -0.1374468378
 N   -1.1550780229    1.8396435130   -0.0174490908
 C   -1.2588602750    3.2204951438    0.1457342057
 N   -0.3126579035    4.0642255572    0.1562899153
 C    1.0428477210    3.5792873121    0.0120831025
 C    1.8499706007    3.6289739559    1.3387206457
 N    1.6143002396    2.1736839243    1.5041368719
 C    1.2575203582    2.0315593491    0.0731569166
 H   -1.9959358800    1.2844515163   -0.0877598813
 H   -2.2864064694    3.5643270475    0.2595706306
 H    1.5074709747    4.0922209027   -0.8330103294
 H    2.8999092159    3.9096114131    1.1787348226
 H    1.4237130495    4.2499342378    2.1316885354
 H    2.4046281891    1.6181830902    1.8101057456
 H    2.0636228396    1.6680894698   -0.5751989228