18

 N    0.0737637873    1.3360421046    0.0010774288
 C   -0.0384692397   -0.0132776419   -0.0160747125
 C   -1.1630185874   -0.7739906050    0.0531215934
 C   -0.8353317866   -2.1884823268    0.0433604937
 O   -1.5862793244   -3.1411958475    0.1070933093
 C    0.7007030003   -2.3022795197   -0.0841451071
 C    1.2291091709   -0.8562099219   -0.0619413323
 C    2.1342543217   -0.5290869963   -1.2509840133
 O    2.6539830235    0.7909529810   -1.0783911595
 H    0.9520067175    1.7295014821   -0.3044687506
 H   -0.7532775013    1.9003491335   -0.1028834229
 H   -2.1791030622   -0.4049137167    0.1094250347
 H    1.1003914753   -2.9166921134    0.7265228096
 H    0.9389061161   -2.8188859149   -1.0209261124
 H    1.8137264183   -0.6567409184    0.8449753712
 H    2.9530093664   -1.2614211327   -1.2924024303
 H    1.5607391784   -0.6095260398   -2.1867638433
 H    3.1593271557    1.0271585938   -1.8618426166