15

 C   -0.0341066782    1.5256633612    0.0526083259
 C   -0.0071022864    0.0403279541   -0.0229186810
 C   -0.0223470691   -0.8481094311   -1.0751902433
 N    0.0146498310   -2.1798346008   -0.6875301467
 C    0.0519612227   -2.0852323146    0.6170488878
 N    0.1003482219   -2.8684453970    1.7310039444
 N    0.1234654256   -2.1143255880    2.8715888591
 C    0.0868508339   -0.8708183783    2.4703990390
 N    0.0416944361   -0.7899038030    1.0977071565
 H    0.8579534035    1.9357655885    0.5434513560
 H   -0.0743116326    1.9407898910   -0.9572913261
 H   -0.9090813947    1.9003501021    0.5992999413
 H   -0.0588339706   -0.5870891182   -2.1234911819
 H    0.1271754884   -3.8698176756    1.7908124595
 H    0.0913204687   -0.0245287603    3.1360863795