21

 C    0.1552233167    1.5655425007    0.1347569757
 C    0.0559482675    0.0527855143    0.0428552966
 C    1.0422300776   -0.6494725529   -0.8669696988
 C    1.1933800541   -0.7534498653    0.6314821804
 C   -1.3228917253   -0.5656287882    0.1381272914
 C   -2.2783750451   -0.2708274210    1.3636086404
 C   -3.3619609144    0.1297346369    0.3551389757
 O   -2.8480191111    1.2361325191   -0.3939580006
 C   -2.4599637559   -0.0873008722   -0.7879561064
 H    1.1996871472    1.8828076571    0.0507519220
 H   -0.4174645340    2.0554259608   -0.6566021962
 H   -0.2273963723    1.9387930735    1.0903530178
 H    0.7124881793   -1.5298128301   -1.4092952195
 H    1.7535934128   -0.0380744599   -1.4118543050
 H    2.0082893961   -0.2137337574    1.1023887498
 H    0.9635707919   -1.7041210115    1.1019711072
 H   -1.2303188610   -1.6525483628    0.0332425071
 H   -2.5101707643   -1.1705240085    1.9378930313
 H   -1.9794514846    0.5285945098    2.0448099035
 H   -4.4393357969    0.0413185841    0.4298602606
 H   -2.6674463482   -0.3709868564   -1.8138439730