16

 C    0.0011246729    1.5486930014   -0.0527626847
 O    1.4354547766    1.5195053441    0.0600574233
 C    1.4244342380    0.1148311511    0.3724906395
 C   -0.0860011253    0.0003662473    0.0297286918
 C   -0.9893230897   -0.5965010699    1.0406626019
 N   -1.0848928422   -0.3157656877    2.3036110175
 C   -2.0773842427   -1.1610411300    2.7789901387
 C   -2.5367440340   -1.9213221825    1.7585820934
 O   -1.8468497747   -1.5704790181    0.6323887838
 H   -0.4711479100    2.0547081585    0.7975712360
 H   -0.3324675240    2.0051690180   -0.9910115088
 H    2.1114119024   -0.4569414450   -0.2608296806
 H    1.6440296085   -0.0762451799    1.4295689543
 H   -0.2685866839   -0.4678485561   -0.9376633272
 H   -2.3825428193   -1.1567840131    3.8132268031
 H   -3.2796873123   -2.6921275281    1.6498136580