19

 C    0.0183366858    1.6381924608    0.0065853007
 C    0.1681372072    0.1194611113   -0.1514121568
 C    0.6436883008   -0.5541411618    1.1156253396
 C    2.1223422809   -0.4250681614    1.5604350329
 O    2.2323943565   -1.8485346270    1.7786605825
 C    0.8732616938   -2.0810979180    1.3504735653
 C   -0.1010700306   -1.9575385595    2.5219171352
 N   -0.4925194946   -2.7796905882    3.3960263902
 N   -0.3222240865   -0.6013677494    2.2299453751
 H    0.9685683258    2.1086565610    0.2827416936
 H   -0.3200778631    2.0977409379   -0.9262046052
 H   -0.7161571462    1.8818549455    0.7814064735
 H   -0.7928991994   -0.3197166986   -0.4415600970
 H    0.8789759816   -0.1025840969   -0.9563295099
 H    2.8078207873   -0.0948189019    0.7695462847
 H    2.3066922382    0.1587283183    2.4700732902
 H    0.7749789039   -2.8866519810    0.6224499497
 H   -1.0922537573   -2.3357554266    4.0948390936
 H   -0.4679589843    0.1277449056    2.9169329323