18

 C   -0.0505544903    1.5326611968   -0.0053777933
 C    0.0400436149    0.0368666619    0.0173122048
 C    0.2464348170   -0.8336738397   -1.0336889243
 C    0.2602723823   -1.2719021334   -2.4835579580
 O    1.3886432961   -0.8615491672   -3.2165600206
 C    0.2832782920   -2.7498092835   -1.8921079969
 N    0.2772999829   -2.1152387531   -0.5661332765
 C    0.0668201753   -2.1481878126    0.7784631029
 C   -0.0533059828   -0.8187116632    1.1642579911
 H    0.8146013117    2.0029913381    0.4775592725
 H   -0.0932197667    1.9089635420   -1.0314272360
 H   -0.9437023014    1.8905601384    0.5191339448
 H   -0.6659984660   -1.0599875863   -3.0348264852
 H    1.2417063830   -1.0757754251   -4.1435667238
 H   -0.5993542239   -3.3629670892   -2.1009214411
 H    1.1988472368   -3.3038293552   -2.1173764690
 H    0.0525731129   -3.0583290867    1.3557817413
 H   -0.1795930841   -0.4820920619    2.1840092575