14

 C   -0.0200213458    1.5396051189    0.0351554509
 C   -0.0112205098    0.0535115783   -0.0246982532
 C   -0.0342497936   -0.8465912301   -1.0633450070
 N   -0.0131779957   -2.1798242926   -0.6542177847
 C    0.0231146730   -2.0642097281    0.6354081545
 O    0.0591606616   -2.9051009864    1.6842342302
 N    0.0873297997   -2.1139603510    2.8596964223
 C    0.0674200064   -0.8762288372    2.4666225188
 N    0.0273771326   -0.7723205534    1.1033057765
 H    0.8777383785    1.9420269184    0.5205093856
 H   -0.0550200833    1.9419129962   -0.9798951875
 H   -0.8910916415    1.9291979994    0.5763669254
 H   -0.0661929336   -0.6028815012   -2.1153366863
 H    0.0814369816   -0.0491827111    3.1585027945