19

 C   -0.0046155597    1.4410984379    0.0324764771
 N    0.0217324625   -0.0041971571    0.0191848206
 C    0.0542598198   -0.7850613624   -1.1102795166
 C    0.0717586815   -2.1007370524   -0.7227359267
 C    0.0491355580   -2.1329421588    0.7033307503
 C    0.0580129698   -3.3714056526    1.5498087105
 C    0.0183411264   -0.8194443739    1.1370475049
 C   -0.0145358495   -0.2409039958    2.5137404453
 H    0.8670414900    1.8544994454    0.5523565882
 H    0.0064430248    1.8046403311   -0.9965747438
 H   -0.9078816861    1.8225091881    0.5219917859
 H    0.0617782911   -0.3301693082   -2.0885026211
 H    0.0978929809   -2.9555437064   -1.3822449381
 H    0.9530493234   -3.9791082420    1.3693718193
 H    0.0358740949   -3.1377156905    2.6180722075
 H   -0.8074083698   -4.0116913390    1.3400172875
 H    0.8532455875    0.3990843411    2.7213261648
 H   -0.9109621763    0.3675241818    2.6924424653
 H   -0.0123718290   -1.0395616963    3.2581585391