20

 C    0.1550800395    1.6370334356    0.1470799775
 C    0.1922093325    0.1073292898    0.1405982629
 C    0.5091724508   -0.4774165893   -1.2514162120
 C    0.5441921755   -1.9687462018   -1.2991097372
 C   -0.2811237160   -2.9052282503   -1.8822838434
 N   -1.4585186171   -2.6938373132   -2.6182501629
 N    0.1443376315   -4.1828906883   -1.6098182760
 C    1.2208328859   -4.0406748831   -0.8663798819
 N    1.5115703259   -2.7333677977   -0.6527648890
 H    1.1158112258    2.0600477169   -0.1680511628
 H   -0.6117360493    2.0161828837   -0.5377113853
 H   -0.0688192562    2.0265715166    1.1448674240
 H    0.9410470910   -0.2455101733    0.8619504190
 H   -0.7683798619   -0.2960953999    0.4803991385
 H   -0.2535696061   -0.1321064334   -1.9590469479
 H    1.4602586886   -0.0522056186   -1.6068780625
 H   -1.3547252495   -1.9876130387   -3.3364865385
 H   -1.7457550138   -3.5646525051   -3.0485213793
 H    1.8216279142   -4.8430337056   -0.4654015546
 H    2.2921713786   -2.3737464441   -0.1302309087