19

 C   -0.0150826620    1.5127842829   -0.0038605002
 C    0.0299523455   -0.0014638337   -0.0030068072
 C   -1.2990235924   -0.7634308381    0.3388496954
 C   -0.4964917124   -1.6466497577    1.3015550290
 C    0.6957557177   -0.7533656682    1.1967270467
 N    0.7677388611   -2.1247020253    0.7191788685
 C    0.8386620270   -2.1361628569   -0.7609783931
 C    0.6774619067   -0.6674829649   -1.2253290480
 H    0.9904802267    1.9366786791   -0.1098005388
 H   -0.6231927082    1.8908038712   -0.8333653125
 H   -0.4458087035    1.9000530486    0.9257522267
 H   -1.9977489735   -0.1254914185    0.8873653482
 H   -1.8333627833   -1.2462210436   -0.4876319637
 H   -0.8883848315   -2.1970468514    2.1501936440
 H    1.3943651190   -0.3725119881    1.9333900816
 H    1.8029161322   -2.5593742372   -1.0561881362
 H    0.0578749344   -2.7907480935   -1.1608729542
 H    0.0603866368   -0.5733673325   -2.1253124387
 H    1.6517757796   -0.2113766222   -1.4386709076