16

 O    0.1502318983    0.1048301972   -0.7818825675
 C    0.3185576612    0.8706305483    0.1313822436
 C    1.3725133637    1.9301439750    0.1579521895
 C    1.6919107463    2.7059248709    1.4340584733
 C    2.1076329027    4.1057687670    0.9740435911
 N    3.3435397627    4.1503588784    0.1787249976
 C    2.0397614756    4.1751641036   -0.5148032062
 C    1.5985347653    2.8205443322   -1.0237037113
 O    2.4700545102    1.7471688983   -0.7375251684
 H   -0.3362914312    0.8578616003    1.0327466938
 H    0.7919301649    2.7688471542    2.0567413446
 H    2.4758139734    2.2170908785    2.0200887925
 H    1.8586160261    4.9574127048    1.5996513530
 H    3.7217663053    5.0948909979    0.2026490367
 H    1.7221550568    5.0638499043   -1.0482418998
 H    1.0107642887    2.7262642091   -1.9328159723