19

 C   -0.0241469436    1.4651341393    0.0552083180
 N    0.0001758554    0.0143347529    0.0150348547
 C   -1.3342901813   -0.5587013768   -0.1070057085
 C   -1.3160381960   -2.0864367666   -0.2015829795
 O   -2.2277044483   -2.6760655648   -0.7572756609
 C   -0.1979399447   -2.7519880164    0.4387339465
 C    0.7580412501   -2.0525439891    1.0958399648
 N    1.7522924162   -2.6304067232    1.8380327273
 C    0.7315324704   -0.5434709410    1.1349504900
 H    0.9994362801    1.8547649536    0.0699591462
 H   -0.5202761363    1.8475133280   -0.8416541780
 H   -0.5569524779    1.8688954970    0.9380777354
 H   -1.9880442627   -0.2851580619    0.7488819051
 H   -1.8153423247   -0.1751711745   -1.0104820873
 H   -0.1813815318   -3.8371981629    0.4014792346
 H    1.8782697162   -3.6273628027    1.7579445134
 H    2.6006742977   -2.1090701316    1.9904208567
 H    1.7609154361   -0.1603862386    1.1059700356
 H    0.3147835249   -0.2324868308    2.1180514257