17

 C    0.1488676860    1.2942867861    0.1205998197
 O   -0.1203735212   -0.0682401419   -0.1867285662
 C    0.5743426663   -0.5383352869   -1.2648845795
 C    0.3442596000   -0.2191602048   -2.7456075651
 C    1.2208916064   -1.4841893746   -3.0147810026
 C    0.9310519472   -1.9493325354   -1.5317474185
 C    2.0658457334   -0.9749424714   -1.1079502852
 C    2.6167468116   -1.0689705746   -2.4929786442
 O    3.7104401336   -1.0256396599   -2.9809457261
 H    1.2108377814    1.4466777362    0.3533276556
 H   -0.1299914346    1.9564981106   -0.7093724939
 H   -0.4547063149    1.5440748588    0.9948079016
 H   -0.7009449140   -0.3838512645   -3.0223049566
 H    0.7018947639    0.7322599309   -3.1532799770
 H    1.0994488624   -2.0774390160   -3.9162710474
 H    0.6735689040   -2.8985616004   -1.0892545996
 H    2.5570066287   -0.9149317023   -0.1463412049