18

 C   -0.0904884410    1.5550427201    0.3529518577
 C   -0.0506416804    0.0589683261    0.0175423358
 O    0.7358143853   -0.6621128565    0.9658754218
 C   -1.4154711856   -0.5305883781   -0.1234055229
 C   -2.1116932527   -1.1490836562   -1.1045869544
 N   -3.3733440025   -1.5003258257   -0.6354545811
 C   -3.3893863914   -1.0935877108    0.5935037562
 C   -4.4805580858   -1.2080484277    1.5950628903
 O   -2.2337832656   -0.4866177712    0.9834811580
 H    0.9289119832    1.9329755374    0.4644117385
 H   -0.5963889653    2.1207100554   -0.4354648069
 H   -0.6312096448    1.7242389186    1.2900096561
 H    0.4603922980   -0.0843665648   -0.9401881887
 H    0.2710380960   -0.6266426919    1.8094880367
 H   -1.7995780516   -1.3683252790   -2.1134505496
 H   -4.1587327999   -1.7891216785    2.4656939691
 H   -4.7932609431   -0.2219944743    1.9541307493
 H   -5.3326988328   -1.7052361330    1.1314385941