16

 C   -0.2663660379    1.5853634050   -0.0161887409
 C    0.0359543659    0.1051311615    0.0121701929
 C   -1.0997333705   -0.8972900053    0.2932480410
 O   -0.3011005257   -1.6160752217    1.2644527558
 C    0.7707489616   -0.6500013966    1.1798123368
 C    1.8225865858   -1.1409517547    0.1606134530
 O    2.8332198631   -1.7723560100    0.2427315996
 C    1.0783357126   -0.4538743971   -1.0056870946
 H    0.6537685695    2.1794630725   -0.0154325491
 H   -0.8289234259    1.8522467666   -0.9185631068
 H   -0.8628669699    1.8878072871    0.8505472455
 H   -1.9864284509   -0.4562247543    0.7670429527
 H   -1.4168965063   -1.5352072552   -0.5403905139
 H    1.0723749183   -0.2464934165    2.1505238609
 H    0.7038198116   -1.1119903210   -1.7949683818
 H    1.6993603987    0.3210513895   -1.4683251913