16

 C   -0.1929764028    1.6148719796   -0.0612627724
 C   -0.1260823958    0.1221103672    0.0295612676
 C   -0.0522946184   -0.9766255540   -0.9356239403
 O    1.3774834951   -1.3428785207   -0.6476629719
 C    0.9857288211   -0.8328471810    0.5954085353
 N    0.7872887390   -1.5757119467    1.6037043748
 C   -0.7014211345   -1.5008562241    1.7306196427
 C   -1.1164525592   -0.9337918888    0.3453006129
 O   -2.4415360389   -0.7346750677    0.0208191555
 H    0.6725664047    2.0157735430   -0.5973602975
 H   -1.0991814068    1.9170812796   -0.5944971504
 H   -0.2197934211    2.0698671239    0.9339285125
 H   -0.3633716782   -1.0857204769   -1.9684910378
 H   -1.0366863292   -2.5292341309    1.9075193735
 H   -1.0939080729   -0.8697872117    2.5421817092
 H   -2.8830936120   -1.5909624108   -0.0155308337