17

 C   -0.1234620801    1.5368758495    0.1486277625
 C    0.0079413245    0.0446547174   -0.0228025766
 C   -0.8231027287   -0.9004461474    0.7697838479
 N    0.5951059975   -0.7209401419    1.1200270167
 C    1.4494263318   -1.7767188981    0.5770741332
 C    1.2963680613   -1.7793983777   -0.9531608983
 O    1.7090614697   -2.6190834343   -1.7070880025
 C    0.5401168399   -0.4995360681   -1.3357859119
 H    0.8239528681    2.0409044810   -0.0735936459
 H   -0.8858729315    1.9424254428   -0.5258978686
 H   -0.4050309018    1.7826789414    1.1755902169
 H   -1.5261703986   -0.5202474240    1.5055415885
 H   -1.1249486282   -1.8394528730    0.3055161498
 H    2.4982560280   -1.5643144199    0.8214022693
 H    1.2103377432   -2.7596125358    0.9947499286
 H   -0.2262974674   -0.7181419590   -2.0842684572
 H    1.2525555924    0.1967761272   -1.7969149526