19

 C   -0.1121004630    1.5376297207   -0.3056684080
 C    0.0127717319    0.0258132237   -0.2805354609
 C    0.8419230666   -0.8472004667   -1.2594817733
 C    2.1039473254   -0.4630724633   -0.4409998596
 C    2.8531961474    0.8672585275   -0.5081669916
 N    1.0324933524   -0.6819801608    0.6698441689
 C    0.6951364392   -1.9436956392   -0.1668377981
 C   -0.5879800805   -2.5848279111    0.0826534269
 N   -1.5854591368   -3.1415839413    0.2613374705
 H    0.7514708789    2.0767098380   -0.6849024086
 H   -0.9707598431    1.8034593375   -0.9315673770
 H   -0.3246531565    1.8975276877    0.7068692917
 H   -0.9876391914   -0.3702434100   -0.0832366475
 H    0.7317095781   -0.9741220278   -2.3421642434
 H    2.8396042650   -1.2719328844   -0.3920946987
 H    2.6308285997    1.4948375408    0.3578434253
 H    3.9303352232    0.6811132618   -0.5050836442
 H    2.6260255073    1.4357266409   -1.4133479893
 H    1.4850183063   -2.6966980940   -0.1179045130