19

 C   -0.0550591801    1.4256644025   -0.0072084984
 C    0.0804950445   -0.0678875878   -0.0280076914
 C    0.5811569132   -0.9713588145   -1.1601583844
 C    0.0793391440   -1.9264417734   -0.0717248315
 C   -0.0580763634   -3.4191495526   -0.1211888671
 C    0.5949095042   -1.0244966296    1.0985695788
 C   -0.8013614441   -1.0377866485    1.7046756859
 N   -1.1485474809   -1.0027382246    0.2194925311
 H    0.9241725822    1.9020589880   -0.1255483195
 H   -0.6989887062    1.7614698019   -0.8264805388
 H   -0.4908660816    1.7778477291    0.9333160219
 H   -0.0012590092   -0.9491893154   -2.0870722675
 H    1.6571355405   -0.9673577486   -1.3585522712
 H    0.9205559865   -3.8906695053   -0.2618935682
 H   -0.4942969475   -3.8146490120    0.8017619838
 H   -0.7024479466   -3.7152359505   -0.9552958203
 H    1.5841877595   -1.0362424279    1.5716113844
 H   -1.1411276786   -1.9457064682    2.2131419988
 H   -1.1399587763   -0.1542575125    2.2551607338