23

 C    0.1118194650    1.4224149286    0.2145215458
 C   -0.2461627657   -0.0241513549   -0.1473184985
 C    0.5819397742   -0.5668183328   -1.2917170307
 C    2.0030970186   -1.1086400935   -1.1305277088
 C    2.4822897251   -1.5253450860    0.2593899443
 C    1.7612584674   -2.8728977799    0.4752567594
 O    0.6012413385   -2.8497939210   -0.3597326283
 C    0.8694488837   -2.0362413226   -1.4870114454
 C    0.6932178632   -2.7419549606   -2.8043399140
 H    1.1576740635    1.5065943209    0.5287304825
 H   -0.0260372703    2.0907675067   -0.6427711878
 H   -0.5162775153    1.7942675020    1.0303923928
 H   -0.1420069664   -0.6706573606    0.7288726358
 H   -1.3062460561   -0.0782894764   -0.4271379671
 H    0.4425221186   -0.0190253473   -2.2232407926
 H    2.7443289698   -0.8249816297   -1.8694243887
 H    3.5691876079   -1.6414025299    0.2861173711
 H    2.2140995879   -0.7982286275    1.0325239433
 H    2.4141672193   -3.7118072461    0.1883298354
 H    1.4282640201   -3.0365977772    1.5045627862
 H   -0.3394676212   -3.0864698093   -2.9251654525
 H    0.9261165907   -2.0705051726   -3.6361442319
 H    1.3500440417   -3.6160184105   -2.8718781204