23

 C    0.1677206673    1.1120088381    1.0817361520
 C   -0.4793473868    1.3302491734   -0.2922864862
 C    0.0069099724    0.3617897514   -1.3586560298
 O   -0.0944249930    0.8409317342   -2.7116678800
 C    1.2171499984    0.6319237689   -2.1626392827
 C    2.1174673637    1.8347866299   -2.0372739254
 C   -0.4405874921   -1.0659067492   -1.1749480589
 C   -1.8007621488   -1.4864852473   -1.6790771252
 C   -0.5507847237   -1.9971282196   -2.3516083757
 H   -0.0478611431    0.1149128386    1.4779441872
 H    1.2559960031    1.2221428275    1.0312440898
 H   -0.2089758574    1.8404165760    1.8059954043
 H   -1.5676677182    1.2216105460   -0.2082463661
 H   -0.2997196524    2.3527387062   -0.6344011015
 H    1.7118413111   -0.2498437028   -2.5757989288
 H    1.6085997447    2.6900581744   -1.5893828437
 H    2.9934245095    1.5894220156   -1.4267488381
 H    2.4773462926    2.1373039703   -3.0266344959
 H   -0.1213171365   -1.5097130826   -0.2362944949
 H   -2.3879121410   -2.1699177929   -1.0759537288
 H   -2.3799410075   -0.7458141807   -2.2198541029
 H   -0.3216526520   -1.5849110088   -3.3274030158
 H   -0.2714463302   -3.0354934362   -2.2118686430