17

 C   -0.0382963049    1.5016622720    0.0041241110
 C    0.0544831716   -0.0054133496    0.0062017758
 N   -0.7803109294   -0.7850947867    0.9478737937
 C    0.6893632048   -0.7523734541    1.1496131083
 C    1.4109054237   -2.0066924050    0.8590001865
 C    1.3474715934   -2.5278175399   -0.3698538292
 N    0.6912996229   -1.8873948081   -1.4190415098
 C    0.1454657106   -0.6203875476   -1.3680029675
 O   -0.2081643260   -0.0401602860   -2.3764960337
 H    0.8275524354    1.9517880538   -0.4904621363
 H   -0.9299670088    1.8258990878   -0.5391727513
 H   -0.0860280328    1.8829673903    1.0291342670
 H   -1.2229252370   -0.1298280611    1.5894528383
 H    1.0594296865   -0.1465920149    1.9732113216
 H    1.9576697047   -2.5152382319    1.6420865650
 H    1.8126415705   -3.4684995942   -0.6383077065
 H    0.7454227647   -2.2768494548   -2.3483040332