19

 C   -0.2018736108    1.5091855489   -0.1312882140
 C    0.0608108990    0.0094788413    0.0267199149
 C    0.7559025861   -0.6119300337   -1.1861486916
 O    2.0189497974    0.0057666101   -1.4594658559
 C    0.9359124215   -2.1263501149   -1.0420126895
 N    1.6476575129   -2.6604824313   -2.1863322545
 C    1.2845457830   -3.8008165431   -2.8255651745
 O    0.3761870232   -4.5333954460   -2.4911169852
 H    0.7275670908    2.0470704611   -0.3362699554
 H   -0.8860267353    1.7016287671   -0.9646083410
 H   -0.6505293896    1.9284418794    0.7737657938
 H    0.6801387413   -0.1724158101    0.9178161443
 H   -0.8816891527   -0.5242076398    0.2003661950
 H    0.1630530237   -0.4177713731   -2.0885060943
 H    2.5389694969   -0.0237521791   -0.6472819473
 H    1.4813574204   -2.3411191755   -0.1093658248
 H   -0.0264470521   -2.6404255464   -0.9814913256
 H    2.3863483321   -2.0861094634   -2.5630585575
 H    1.9259081523   -3.9976274116   -3.7077901970