18

 N   -0.0838016510    1.4619332675   -0.2788516827
 C   -0.0172910720    0.0499102963   -0.0000421145
 C   -0.1834820475   -0.3639868179    1.4527841338
 C   -1.2987968382   -0.6366113928    0.4837561056
 C   -2.5862176444    0.1186792996    0.5418292273
 C   -3.7233097661   -0.2929621617   -0.3206764983
 N   -3.7748070187   -0.5215099663    1.1342498598
 C    0.8729487859   -0.7441278717   -0.8227937949
 N    1.5877656538   -1.3452922611   -1.5069487358
 H    0.8253789261    1.8939502233   -0.1443122535
 H   -0.3566040751    1.6256133094   -1.2433609527
 H    0.4092553778   -1.1937992578    1.8179810257
 H   -0.3130426748    0.4606142234    2.1446719353
 H   -1.3997805649   -1.6692709654    0.1590950832
 H   -2.4824247439    1.1680435665    0.7977853572
 H   -4.4227809359    0.4500821574   -0.6928544290
 H   -3.5782971896   -1.1459022409   -0.9795734583
 H   -3.5772996215   -1.4993512177    1.3365244619