20

 C   -0.0175640373    1.4706946742    0.0919968308
 C   -0.0711880980   -0.0322730460    0.0708705214
 C   -1.2933014748   -0.7828782057   -0.4240729277
 C   -0.7426934188   -2.1889192052   -0.3523254409
 C    0.2497933265   -2.3185724505    0.8034092764
 C    0.6816050239   -0.8689441207    1.0451321135
 N    1.1878456451   -0.7265043257   -0.3638497957
 C    0.7414858947   -2.1592784221   -0.6133521492
 C    1.5331423788   -3.0235929550   -1.5378199260
 H    0.9537458283    1.8177888178    0.4538921580
 H   -0.1670155833    1.8808514058   -0.9124345223
 H   -0.7955187738    1.8799161384    0.7457462289
 H   -2.1601220588   -0.6212205884    0.2267897953
 H   -1.5669852500   -0.4908780356   -1.4446346484
 H   -1.3160546632   -3.0588246576   -0.6487554596
 H    0.3030460711   -3.1548396762    1.4865538329
 H    1.2455391128   -0.4899207344    1.8904005218
 H    2.5870747932   -3.0547863064   -1.2430185259
 H    1.1461658961   -4.0476006874   -1.5371085523
 H    1.4839185874   -2.6417316895   -2.5644315711