16

 C    0.0172315526    1.4868049052    0.0100357218
 N   -0.0092964217    0.0387473951    0.0014325378
 C   -1.1322025334   -0.7216355948    0.0096360476
 C   -1.1317609537   -2.1097571258    0.0073103878
 C   -2.3850767191   -2.7374871640    0.0157865844
 N   -3.5652701864   -2.1524959122    0.0256831484
 C   -3.6085244869   -0.7828947115    0.0283143107
 O   -4.6026080960   -0.0880974718    0.0369277320
 N   -2.3382770450   -0.1083266722    0.0200069505
 H    1.0573108632    1.8147164667    0.0008708277
 H   -0.4753942843    1.9108176528   -0.8742105251
 H   -0.4571840843    1.9009417666    0.9089073849
 H    0.8649913300   -0.4562450499   -0.0009840683
 H   -0.2075514552   -2.6704471575   -0.0007905840
 H   -2.4050967451   -3.8281075007    0.0141060024
 H   -2.4186303749    0.8977566641    0.0223870014