16

 C   -0.4659740616    1.5163689130    0.2655346826
 N   -0.0275466175    0.1294842295    0.1011047521
 C    0.0099191494   -0.6831081608    1.2408527536
 O   -0.2987253986   -0.2985791258    2.3419588468
 C    0.3671815585   -0.4236150408   -1.1252808533
 O    0.7645945827   -1.5620872159   -1.2274495623
 C    0.2961429843    0.4860250987   -2.3299968733
 C    1.3959806417    0.3960025481   -3.3147233250
 O    0.1352498346   -0.1950710189   -3.5687337151
 H    0.2943127625    2.2161239380   -0.0901105178
 H   -1.4073030263    1.7030301582   -0.2588603432
 H   -0.6207859341    1.6683811033    1.3333663708
 H    0.3498350846   -1.6982632271    1.0042198361
 H   -0.2586403891    1.4156844195   -2.2515288989
 H    1.6417976665    1.2741719883   -3.9096595578
 H    2.2030296724   -0.3058295175   -3.1166904554