21

 O   -0.1061118359    1.4688620911   -0.1540018725
 C    0.0120893821    0.0611118935   -0.0218163599
 C   -1.3943964334   -0.5297389008   -0.0549717849
 C   -1.4019905862   -2.0382992337    0.0650566652
 C   -0.9087879795   -2.8962038141   -1.1441024747
 C   -2.2296158636   -3.7271644367   -1.1039890373
 C   -2.6816187859   -2.9290701177    0.1370321936
 O   -2.2449022153   -3.5268474633    1.3748626068
 C   -1.0741507113   -2.6816732350    1.4294185323
 H    0.7767671774    1.8493105623   -0.1337435764
 H    0.6163376906   -0.3669359423   -0.8380679035
 H    0.5081617791   -0.2096059596    0.9250243247
 H   -1.9779235791   -0.0835359743    0.7598528533
 H   -1.8746305055   -0.2222670305   -0.9921980491
 H   -0.7876063727   -2.3157849386   -2.0625014373
 H    0.0143707148   -3.4560865980   -0.9707675735
 H   -2.8656563959   -3.5684726281   -1.9792292267
 H   -2.1314856791   -4.8000482005   -0.9261342274
 H   -3.7106351742   -2.5611079102    0.1935660591
 H   -0.1433447172   -3.2601086658    1.4957361178
 H   -1.1236376695   -1.9881324777    2.2807341407