20

 C   -0.2949197703    1.4922208059   -0.0672424948
 C    0.1403658935    0.0254201452    0.0490513128
 C    0.8406228323   -0.4924346888   -1.1891944933
 C    0.0135816896   -1.0078764772   -2.3415330421
 C    0.8763049991   -1.9737091990   -1.5462240367
 C    2.2322515254   -2.2201777943   -2.1136932656
 C    2.9613942855   -1.1023161416   -2.1491474016
 C    2.2243358783    0.0740936774   -1.5437098638
 H    0.5650500156    2.1508408047   -0.2283670339
 H   -0.9810769007    1.6315586981   -0.9092244656
 H   -0.8033020857    1.8272274983    0.8423200508
 H    0.8047033391   -0.0901424444    0.9163456791
 H   -0.7386461532   -0.5987448078    0.2531163151
 H   -1.0606242567   -1.0557256136   -2.1875195706
 H    0.3151060301   -0.7861942403   -3.3607006472
 H    0.3890928742   -2.7252209087   -0.9332160844
 H    2.5489413295   -3.1901739058   -2.4805375847
 H    3.9566301122   -1.0121898179   -2.5697484342
 H    2.1648365832    0.9246715795   -2.2349048479
 H    2.7393018190    0.4468345004   -0.6458081314