19

 O   -0.0010598500    1.3217430018    0.0245115240
 C   -0.0291715337   -0.0762219368    0.2635719122
 C   -1.3641343980   -0.6034581080   -0.2549467870
 C   -1.4963037375   -2.0990872256   -0.0798242908
 C   -1.9527891552   -2.6943739189    1.2173722754
 C   -2.8846529787   -2.7320382452    0.0205990539
 O   -4.0211603604   -1.9233342838    0.0985060050
 C   -3.0862944190   -4.0514684351   -0.6394733937
 O   -2.2200704899   -4.8786659092   -0.7962243842
 H    0.8372676096    1.6661516848    0.3455308958
 H    0.7990290768   -0.5881014690   -0.2529603405
 H    0.0654628785   -0.3048836687    1.3368505280
 H   -2.1739794893   -0.0881685698    0.2709621992
 H   -1.4473655770   -0.3342090098   -1.3155141560
 H   -0.7966034698   -2.7105434979   -0.6443955335
 H   -1.5308268759   -3.6412252915    1.5337817797
 H   -2.2612559303   -2.0175302019    2.0069288229
 H   -4.1337254333   -1.4667382100   -0.7425517287
 H   -4.1323695870   -4.2176225855   -0.9822390815