14

 O   -0.0772460061    1.3509721616    0.0660977750
 N    0.0547771892   -0.0515289074    0.0073998468
 C   -1.0670164219   -0.6157931825   -0.0604013231
 C   -2.5812266871   -0.4556230296   -0.0121205456
 C   -2.6634677364   -1.5776605839   -1.0881888387
 C   -1.5974643292   -2.0451401621   -0.0458642829
 N   -2.6053086595   -1.5936540887    1.0228758904
 C   -0.8883624946   -3.2961065580    0.0219200354
 N   -0.3130230996   -4.2969111520    0.0667669470
 H    0.8428142098    1.6352063795    0.1033677040
 H   -3.1911132763    0.4354333717    0.0957848802
 H   -3.5853416623   -2.1591106784   -1.0590772953
 H   -2.3060219788   -1.3494960110   -2.0912769359
 H   -2.0938406072   -1.3066791193    1.8636198728