21

 C   -0.1607912492    1.4390633438    0.0270923714
 C    0.0223767431   -0.0741508494   -0.0143173189
 C    0.8344346019   -0.5398383557   -1.2206488468
 C    2.0915441042   -0.6366352140   -0.3838064853
 C    1.2116394647   -0.5825042670    0.9078822016
 C    0.9259716550   -2.0291941423    1.2410893818
 C    1.0436689835   -2.7576332914    0.1269329249
 C    1.5475362736   -1.9021805741   -0.9938816965
 C    2.2097564705   -2.5269323850   -2.1989182846
 H    0.7913821041    1.9569624128   -0.1320428287
 H   -0.8573216978    1.7760927446   -0.7488696716
 H   -0.5618426837    1.7564303063    0.9961434291
 H   -0.9367015954   -0.5767062236    0.1613834197
 H    0.7149818070   -0.1720165997   -2.2347025577
 H    3.0896407213   -0.2439196560   -0.5421785721
 H    1.4901503956    0.0772644923    1.7295887206
 H    0.5198390573   -2.3599260082    2.1894098550
 H    0.7900397618   -3.8043048006    0.0056761328
 H    1.5052019868   -3.1455173137   -2.7666505154
 H    2.5986079053   -1.7619278456   -2.8789158356
 H    3.0486722704   -3.1658163236   -1.9006654335