17

 O    0.0872197312    0.6860041184   -1.5713460257
 C    0.1007866501    1.4554176111   -0.6392850224
 N    1.1714600511    1.6987062740    0.1807894090
 C    2.4072657957    1.0134815743    0.1128399233
 C    2.9789958775   -0.0677323115    1.0185667869
 N    4.3440276825    0.2255656785    0.4265113946
 C    4.1489946717   -0.2425287721   -1.0093384309
 C    3.1847660688    0.9073078962   -1.2154287800
 C    3.7902294546    1.5945361779   -0.0283446706
 H   -0.7716545152    2.0757431404   -0.3496676866
 H    1.0183993150    2.3266334642    0.9562674391
 H    2.9718121509    0.2196506181    2.0742386062
 H    2.6436739278   -1.1051028238    0.9123781736
 H    5.0846633800   -0.1171536824   -1.5597134339
 H    3.7934333410   -1.2734742180   -1.1090773903
 H    2.7717167522    1.3337583458   -2.1191198540
 H    4.2297355649    2.5619070390    0.1688888417