18

 C    0.2827894981    1.4132421495    0.1255876674
 O    1.0739254781    0.3614343115   -0.4348490676
 C   -0.2485975653    0.0484680644    0.0057055375
 C   -0.4248334097   -0.8284915818    1.2177131614
 C   -0.0500884458   -2.3279413008    1.2412520192
 C    1.4654124911   -2.3327759941    0.8972566213
 C    1.6405728198   -1.5463748442    2.1930106430
 C    0.3585810479   -2.0421389166    2.7398440543
 N    0.4811538337   -0.5957384057    2.3908514522
 H    0.6078271706    1.7623225473    1.1029170454
 H   -0.0362339584    2.1812314420   -0.5771083311
 H   -0.9496347063   -0.1585805484   -0.8063952716
 H   -1.4511605053   -0.6905072487    1.5806275962
 H   -0.7179737055   -3.1007637439    0.8653061177
 H    1.8835615228   -3.3368555265    1.0088374024
 H    1.7879797481   -1.8845490915   -0.0433290337
 H    2.5503153122   -1.2759924704    2.7117527455
 H    0.0376606939   -2.4087414719    3.7055871504