25

 C   -0.8649699823    0.9122479425   -0.1004510802
 C   -1.0341729203   -0.2339028718   -1.1112359233
 C   -2.0847761029    0.0999658640   -2.1817971434
 C    0.3091414171   -0.6304301925   -1.7324716831
 C    0.9061362758    0.4030279738   -2.6785588278
 O    1.2498084140   -1.2053972843   -0.8019431786
 C    0.7214987245   -2.0574766390   -1.8353707868
 C   -0.1553740053   -3.1990118446   -1.3480576157
 C    1.7222725621   -2.5197150517   -2.8804254020
 H   -0.0990006901    0.6612061936    0.6385180686
 H   -0.5779749169    1.8520912946   -0.5839680499
 H   -1.8059865068    1.0940734999    0.4288443957
 H   -1.4028054626   -1.0936866502   -0.5471343915
 H   -1.8129839403    0.9940853057   -2.7525428889
 H   -2.2126346722   -0.7245785323   -2.8914478129
 H   -3.0560733247    0.2930192671   -1.7150944277
 H    0.7293457480    1.4179553790   -2.3115061645
 H    1.9849688908    0.2721524291   -2.7608814138
 H    0.4680485274    0.3321239076   -3.6794065224
 H    0.4707195863   -4.0654560060   -1.1077892556
 H   -0.7128037104   -2.9393992329   -0.4486913774
 H   -0.8626740665   -3.5095997335   -2.1250833123
 H    2.3798000780   -3.2816465839   -2.4474157942
 H    1.2012643139   -2.9784539678   -3.7283769328
 H    2.3475475435   -1.7123858763   -3.2589360395