18

 C   -0.0245987077    1.4408754153   -0.2856320940
 C    1.4608781119    1.5929932799    0.2074226384
 C    1.2444061161    0.2640085909    0.9259919164
 C    1.8413745936   -1.0154520460    1.5062893802
 C    1.0704061852   -0.9490054784    2.7681292145
 C    0.2617091962    0.2285272675    2.1875877228
 C   -0.5131511085   -0.7508095034    1.2693617275
 C    0.0464470428   -0.1028700737    0.0108834439
 N    0.5499500094   -1.8184719710    1.6693872488
 H   -0.7394307355    1.9819388764    0.3380036305
 H   -0.2114130409    1.6984197535   -1.3288958198
 H    2.1633855498    1.5109516417   -0.6284269060
 H    1.7240048378    2.4672155575    0.8091532181
 H    2.7261843996   -1.5799416880    1.2398659775
 H    1.2693032090   -1.3085117708    3.7712189335
 H   -0.1067705518    1.1211304859    2.6865331244
 H   -1.5225409273   -1.1354316828    1.4188129989
 H    0.1924110400   -0.7218436546   -0.8772694855