19

 C    0.0752737034    1.4098504135    0.1104004287
 N    0.1034692231   -0.0409576417    0.0383484248
 C    0.5403801866   -0.6101537639   -1.0019009756
 O    1.0417175117    0.0714077055   -2.0788482539
 C    0.8137009543   -0.5135672526   -3.3692253221
 C    1.4421686169   -1.8977372732   -3.5034242940
 C    1.0425221778   -2.7744081638   -2.3239923180
 N    1.9396181271   -2.6927426053   -1.1666588471
 C    0.5826377378   -2.0985097638   -1.0762428283
 H    0.9183553708    1.7601702179    0.7189554462
 H    0.1307186057    1.9074654977   -0.8641178639
 H   -0.8395492016    1.7194282196    0.6259754207
 H   -0.2690548765   -0.5678375254   -3.5489003517
 H    1.2403267231    0.1939354511   -4.0840052830
 H    1.1137415394   -2.3433480708   -4.4484502604
 H    2.5324316562   -1.8136097117   -3.5319361956
 H    0.5980739417   -3.7389898276   -2.5554054821
 H    1.9458168633   -3.5721124422   -0.6560726974
 H   -0.1439840508   -2.5843126135   -0.4349232573