17

 N    0.0027795094   -1.1314560246   -0.1839306158
 C   -0.0109451378    0.0199019408   -0.0871833949
 C   -0.0028122292    1.4751231595    0.0365738229
 C    1.4238932340    2.0580932828    0.0275443077
 C    1.4278564170    3.5762621297    0.1577834747
 C    2.8290334105    4.2325379663    0.0131466371
 N    2.7441287276    5.0609844173   -1.2015727778
 C    1.5560182364    4.9404461120   -1.6183385738
 O    0.6745713643    4.1573358921   -0.9451910920
 H   -0.5803415652    1.9068812406   -0.7868181753
 H   -0.5199979347    1.7486544941    0.9640132730
 H    2.0038373287    1.6339390383    0.8546732356
 H    1.9319981330    1.7740295694   -0.9003346982
 H    0.9186164192    3.8799728981    1.0787451698
 H    3.0886956775    4.8596646666    0.8715628593
 H    3.6236410791    3.4864162823   -0.0990992611
 H    1.1433871202    5.4212636546   -2.4981670511