17

 C    0.0522774044    1.5115706633   -0.0693434929
 C    0.0497979646   -0.0186974791   -0.0665801746
 C   -1.3655034455   -0.5856856525    0.0784253777
 N   -1.4007678670   -2.0356778111    0.0569861110
 N   -1.1434448281   -2.7530548081   -1.0949109788
 C   -1.2460231163   -3.9740388056   -0.7155605382
 O   -1.5473242527   -4.1433801963    0.5918271358
 C   -1.6513500114   -2.8504402674    1.1273611439
 O   -1.9078364665   -2.6006800643    2.2711247233
 H    1.0686646926    1.9008097385   -0.1747111891
 H   -0.5436922069    1.9092097282   -0.8981529092
 H   -0.3631426795    1.9127505357    0.8615118413
 H    0.4872545955   -0.4007560952   -0.9954929437
 H    0.6681942144   -0.3973306145    0.7555263236
 H   -1.8089033923   -0.2944747461    1.0348103796
 H   -2.0123142769   -0.2155776487   -0.7245882627
 H   -1.1187210983   -4.8495985068   -1.3310578269