23

 C    0.0617226909    1.5255847185   -0.0474508545
 C    0.0301276003    0.0045357756    0.1068499389
 O    0.6075383976   -0.4036563533    1.3497479364
 C   -1.3744833251   -0.5734655146   -0.0431568405
 C   -2.1036108460   -0.5394608444   -1.4309714525
 C   -2.3025453458   -2.0567958706   -1.3374949936
 C   -0.9605685807   -2.7289404007   -1.2394760923
 C   -1.5477443985   -2.1037320828   -0.0019960329
 C   -1.8144238541   -2.8793372192    1.2560097513
 H    1.0796590027    1.9008473212    0.0892567886
 H   -0.2927724355    1.8332147356   -1.0365709837
 H   -0.5832624739    2.0051264134    0.7002582884
 H    0.6862865656   -0.4414019726   -0.6499945898
 H    0.0864054715   -0.0039632731    2.0553423136
 H   -2.0185044247   -0.1107892546    0.7178787025
 H   -3.0300185205    0.0380159847   -1.4058006705
 H   -1.5065110567   -0.1974858489   -2.2846610703
 H   -3.1940673049   -2.5947744980   -1.6384403691
 H   -0.9806254592   -3.8145880103   -1.2470846734
 H   -0.0947018623   -2.3057449334   -1.7444516169
 H   -0.9216836670   -2.8975099382    1.8910058420
 H   -2.6291061496   -2.4299528555    1.8373316287
 H   -2.0944855641   -3.9152031988    1.0372702495