16

 O    0.0150699655    1.4377143137    0.0063994357
 C    0.0053201204    0.0213508391    0.0023678049
 C   -1.4149357152   -0.4644740033    0.0124577038
 C   -2.4887747665    0.3572244683    0.0233720083
 C   -3.8191140728   -0.1875772381    0.0325650908
 C   -3.9610407473   -1.5224567473    0.0300424586
 O   -2.9097206951   -2.3727671049    0.0192471973
 C   -1.5963627071   -1.9088032949    0.0098817583
 N   -0.6243260577   -2.7301363185   -0.0002174886
 H    0.9312576928    1.7265216941    0.0000465293
 H    0.5145593994   -0.3931371496   -0.8817164943
 H    0.5288076304   -0.3982607930    0.8756407372
 H   -2.3344881171    1.4291197321    0.0251145135
 H   -4.6934846379    0.4491781952    0.0413441099
 H   -4.9022731798   -2.0576349709    0.0361517829
 H   -0.9598867419   -3.6931276120   -0.0001724475