18

 C   -0.0405184318    1.5307412370    0.0802974965
 C    0.0550907415    0.0328195389   -0.0008675789
 N   -0.6039840238   -0.8400368923    1.0101750599
 C    0.8818241010   -0.8302524834    0.8796452971
 C    1.3908490214   -1.8891693516   -0.0764224316
 C    0.2519446992   -2.2151875431   -1.0864318537
 O    1.2228532125   -2.4035740872   -2.1799463071
 C    1.6762272554   -1.2126286042   -1.4664173052
 C    0.2015027494   -0.6821152395   -1.3373288799
 H    0.7360286277    2.0082454649   -0.5277189679
 H   -1.0105929685    1.8881921901   -0.2842995779
 H    0.0801541071    1.8800210415    1.1114353467
 H   -0.8576630026   -0.2643916928    1.8128732667
 H    1.4896425637   -0.4368623030    1.6870689135
 H    2.0395584013   -2.6975155731    0.2562538020
 H   -0.5652848525   -2.9270702665   -0.9977645579
 H    2.5743364622   -0.7119765228   -1.8323055305
 H   -0.3021390433   -0.3147398929   -2.2305464618