17

 O   -0.8659245070    1.4123804346    0.2593695976
 C    0.1437260494    0.9911441146   -0.2393881621
 C    1.4331018990    1.8159818216   -0.3667591818
 O    2.3984651630    1.2871377831   -0.8694270406
 C    1.4001361331    3.2372077408    0.1433221097
 C    2.7530887186    3.9242155551    0.0649243201
 C    3.2880827114    4.2968733958   -1.3359820072
 O    3.3557623438    5.6956799104   -0.9876127423
 C    2.7925844383    5.4489525538    0.3147176995
 H    0.2459329383   -0.0338056691   -0.6541393886
 H    0.6397993742    3.7787854165   -0.4382940781
 H    1.0024172961    3.2229793845    1.1668071958
 H    3.4849619031    3.3715259936    0.6575019877
 H    4.2677933073    3.8874097697   -1.6032430590
 H    2.5907629433    4.1140776229   -2.1648567473
 H    1.8100030194    5.9265751895    0.4358796524
 H    3.4519829587    5.7902693827    1.1216762741