19

 C   -0.0009292266    1.5265692855    0.0224907436
 C    0.1083021222    0.0057185294   -0.0081763408
 N    0.5550314016   -0.4575854759   -1.3117292029
 C    0.7570565245   -1.8349249965   -1.4694922539
 C    0.3479267189   -2.8462327581   -0.6307469052
 N    0.7104817369   -4.0527077566   -1.2336645791
 C    1.3412460765   -3.7957892191   -2.4067235807
 O    1.7792583059   -4.8556964229   -3.1349793317
 C    1.3966854094   -2.4368203338   -2.6056609810
 H    0.9755224439    1.9960185205   -0.1469468526
 H   -0.6858908662    1.8819928472   -0.7528956524
 H   -0.3669662907    1.8692191910    0.9945372704
 H    0.7695392663   -0.3437108163    0.8056557745
 H   -0.8769834338   -0.4385408894    0.1838588223
 H    1.3418663637    0.0802939216   -1.6527731009
 H   -0.1627286290   -2.8322435190    0.3153053848
 H    0.5501076729   -4.9732678858   -0.8671759482
 H    2.1773507043   -4.5193434782   -3.9429980587
 H    1.8204838991   -1.9255394936   -3.4564869475