22

 C    0.0605518644    1.4820819702    0.1282501665
 C   -0.0209761641   -0.0414976507   -0.0136248125
 C   -1.4575413868   -0.5220826262   -0.1897960711
 O    0.6995597626   -0.5132994680   -1.1463336493
 C    2.1048843961   -0.5034998748   -1.0194447989
 C    2.6949521733   -1.2088643483   -2.2338970064
 C    4.2170773846   -1.2432036067   -2.2111434676
 O    4.6525290051   -1.9162568990   -3.3826232555
 H    1.0886796190    1.8243220592    0.2767730338
 H   -0.3362993126    1.9661342187   -0.7701126175
 H   -0.5264225715    1.8167839906    0.9895458996
 H    0.4038484379   -0.5052367523    0.8939038807
 H   -1.8951040748   -0.0839016383   -1.0925501285
 H   -1.4857430542   -1.6101068785   -0.2907106237
 H   -2.0716520858   -0.2324074243    0.6680464106
 H    2.4942476142    0.5258849251   -0.9561025071
 H    2.4067177691   -1.0175558030   -0.0897055963
 H    2.3114041067   -2.2334198075   -2.2810007172
 H    2.3613908639   -0.6998798870   -3.1444206838
 H    4.6147744569   -0.2153537080   -2.1720957552
 H    4.5676708632   -1.7601949480   -1.3022726602
 H    5.6136797028   -1.9406221434   -3.3748501105