16

 O   -0.0864288422    1.4358255203   -0.1301091058
 C    0.0023100459    0.0343252590    0.0195883215
 C    0.2842634445   -0.5597436441    1.4528846843
 C   -1.0558902256   -1.2760095625    1.3811730421
 O   -1.1827352648   -2.5505461584    1.8964878902
 C   -2.1665239167   -0.2703966495    1.2207378157
 C   -1.3413863362   -0.6735083809    0.0055589690
 O   -1.9087143657   -1.2706330371   -1.1053608491
 H    0.8022089300    1.8026170639   -0.0847625432
 H    0.6775655533   -0.4075795102   -0.7248604073
 H    1.1310542048   -1.2494188485    1.4617879498
 H    0.3924884941    0.1774903640    2.2540985089
 H   -2.0207059847   -2.9204159585    1.5978540436
 H   -3.1597678335   -0.7128679332    1.2032635212
 H   -2.1187941911    0.7304212400    1.6434835651
 H   -2.4529630121   -0.6154120044   -1.5572082461