18

 O   -0.0904661771   -0.0028566139    0.0227283022
 C   -0.0586126651    1.2012893392    0.0302627476
 N   -1.0446835401    2.1597664057    0.0565382280
 C   -0.1516882090    3.3215187326    0.0461705096
 C    1.0236427511    2.3023612785    0.0160490491
 C    2.2753783387    2.3315274761    0.9333083021
 C    2.8970486929    1.2739742680   -0.0285475079
 C    2.2373571630    2.3438477855   -0.9505981779
 C    2.8470996606    3.4283147899   -0.0134304679
 H   -2.0500092885    2.0830710017    0.0754242626
 H   -0.2487199878    3.9533166755   -0.8432892955
 H   -0.2130978784    3.9418513056    0.9467876677
 H    2.2795052989    2.3233088043    2.0239492522
 H    3.9892483254    1.2364018578   -0.0508373659
 H    2.4443746344    0.2828308595   -0.0259032220
 H    2.1973997018    2.3498839274   -2.0405279376
 H    2.3591802498    4.4067515231    0.0028221992
 H    3.9359648094    3.5275326836   -0.0347492755