19

 C    0.5916710613    1.2503230234   -0.3159196641
 C   -0.0985709086   -0.0678081680    0.0169403803
 C    0.3697703243   -1.2790266877   -0.8556728714
 C    1.1755207262   -1.7676594983    0.3526646481
 C    0.4634825788   -0.7881110396    1.2870667829
 O    1.4611865862   -3.1099699604    0.6554039842
 C    2.5806366568   -2.2306362648    0.4399193134
 C    3.3583199366   -2.4893332099   -0.8048837767
 O    4.5058630964   -2.1553290606   -0.9593508285
 H    1.6813204805    1.1332673282   -0.3389951859
 H    0.2770326758    1.6238779926   -1.2961277377
 H    0.3553071926    2.0180048247    0.4284499934
 H   -1.1819987293    0.0705187862    0.0325488098
 H   -0.4398604645   -1.9741724202   -1.0953965026
 H    0.9146034246   -1.0419231633   -1.7728936833
 H    1.0873557101   -0.1925295325    1.9585855878
 H   -0.3091483298   -1.2928580268    1.8739268465
 H    3.1671732311   -1.9759899922    1.3213625958
 H    2.7788240610   -3.0214435109   -1.5912208420