17

 C    0.5283676319    0.9555332052   -0.9291560662
 C    0.0037523084    0.0567385612    0.1656935002
 O    0.5442530255   -0.0273766465    1.2500444395
 C   -1.2469063913   -0.7497108728   -0.1115116320
 C   -2.1792644703   -0.3195712303   -1.2215776090
 O   -2.7350653780    0.9608520284   -0.9664383879
 C   -1.1704701351   -2.1898674443    0.2944412193
 N   -1.9422544987   -1.2465529079    1.0948717770
 H    1.4321387349    1.4597161380   -0.5866812608
 H    0.7477029606    0.3770804578   -1.8337255031
 H   -0.2418354105    1.6878950630   -1.1924420225
 H   -1.6506154972   -0.2385266514   -2.1762709709
 H   -2.9627178307   -1.0813263440   -1.3377192450
 H   -3.1942561548    0.8938450956   -0.1207433525
 H   -1.7509984093   -2.9217885105   -0.2611525064
 H   -0.2201432294   -2.5412286574    0.6856319555
 H   -1.3689534959   -0.9697911640    1.8934147548