25

 C    0.0023111352    1.6063453778    0.0561156800
 C   -0.0256091892    0.0769491133   -0.0122304376
 C    0.7046055739   -0.4825911533   -1.2391286905
 C    0.7294021538   -2.0141607387   -1.3154085040
 C   -0.6633025885   -2.6794462891   -1.4674346694
 C   -0.4024321173   -4.0413912112   -2.1511668859
 C    0.8445304855   -3.8191947541   -2.9966533358
 C    0.8919112524   -2.5770126472   -3.8528315401
 C    1.5351939754   -2.5758762835   -2.4847592227
 H    1.0308249048    1.9827473264    0.0946204815
 H   -0.4767189433    2.0504424940   -0.8237642612
 H   -0.5213823827    1.9782568830    0.9425460856
 H    0.4277981582   -0.3388873501    0.8978858874
 H   -1.0674387768   -0.2672329013   -0.0154231552
 H    0.2418722863   -0.0855954504   -2.1535442233
 H    1.7381919030   -0.1093182926   -1.2386732877
 H    1.1937626160   -2.3929233227   -0.3924225300
 H   -1.1822987068   -2.7892243188   -0.5119085240
 H   -1.3043287757   -2.0531560827   -2.0987663770
 H   -0.1925444081   -4.8110114630   -1.3980896422
 H   -1.2662208105   -4.3874066335   -2.7299460838
 H    1.4135769484   -4.6848449861   -3.3182527567
 H    1.5570933784   -2.5921697845   -4.7093674107
 H   -0.0187189090   -2.0099345999   -4.0187244973
 H    2.6174561568   -2.5155554219   -2.4328011193