12

 C    0.1329491394   -3.7236825272   -0.0199103813
 C    0.0728311803   -2.5170475787   -0.0123409358
 C    0.0066134674   -1.1623649457   -0.0039442293
 C   -0.0537440915    0.0485398187    0.0034804246
 C   -0.1197083547    1.4504445380    0.0120390881
 N   -1.1776444600    2.2153521057    0.0305068040
 C   -0.6767969646    3.5004079911    0.0306877795
 C    0.6800039974    3.4511206156    0.0118884824
 O    1.0570161102    2.1469387699   -0.0003490291
 H    0.1846757745   -4.7844602416   -0.0265127727
 H   -1.3239109733    4.3628270150    0.0441867846
 H    1.4702716648    4.1820164494    0.0050490449