19

 C   -0.3051091671    1.6558696149    0.1907765512
 C    0.0786841870    0.1853448981    0.0928137090
 C   -1.1327020766   -0.6925858062   -0.2327749360
 O    1.0311524602    0.0598091160   -1.0034933672
 C    2.0297705418   -0.8108706370   -0.7156605959
 O    2.9035340346   -1.0758512505   -1.4888455493
 C    1.8142346028   -1.3601264148    0.6914713075
 C    0.8507547733   -0.3562948297    1.3275889749
 O    1.5437200424    0.7230560333    1.9318572295
 H    0.5782992866    2.2725122029    0.3524260494
 H   -0.7988497631    1.9702074839   -0.7327134882
 H   -0.9946586256    1.8132229996    1.0250888883
 H   -1.5468824858   -0.4051075485   -1.2024202653
 H   -0.8656745964   -1.7527550469   -0.2808875738
 H   -1.9103049771   -0.5696081124    0.5270533514
 H    1.3778017989   -2.3613366243    0.6105050788
 H    2.7646103415   -1.4555267990    1.2199611999
 H    0.1553042112   -0.8204840498    2.0395328301
 H    2.1003397114    0.3687258303    2.6320714659