16

 N   -0.0329053670    1.3320448828   -0.0796062730
 C   -0.0561157887   -0.0234010861    0.0017318813
 N   -1.0944986476   -0.8091616058   -0.0867618198
 C   -0.5232414632   -2.0437216893    0.1337567050
 N    0.7705084811   -2.0324424733    0.3389524777
 O    1.0956178269   -0.6496776063    0.2498272648
 C   -1.3250960432   -3.2788014779    0.1330972708
 C   -0.7309060078   -4.5728804173   -0.3924459493
 C   -0.9730421846   -4.4149931968    1.0761652516
 H    0.8537801705    1.7567030816   -0.2996825144
 H   -0.8396119847    1.7474389356   -0.5168843111
 H   -2.3746417181   -3.0948099807   -0.0591168444
 H   -1.3843922914   -5.2238828993   -0.9622673716
 H    0.2926357120   -4.5242695584   -0.7449886170
 H   -0.1134387351   -4.2591311201    1.7172862264
 H   -1.7954868791   -4.9556292487    1.5309154228