18

 C    0.2786574121    1.4502532205    0.0256707353
 O    1.1653006079    0.3797578104   -0.2768056148
 C   -0.2073381496    0.0568542362    0.0232301201
 C   -0.4638821178   -0.7045805424    1.2585079404
 C   -1.3817729591   -1.6654351271    1.4000096995
 C   -1.4232513146   -2.2188915506    2.8029457235
 C   -0.1079920933   -1.6802118102    3.4226356620
 C    0.2812394528   -0.4568262156    2.5555210278
 H    0.4602041880    1.9563021491    0.9723478057
 H    0.0236925279    2.1033362973   -0.8084980501
 H   -0.7786522981   -0.2666743452   -0.8471998109
 H   -2.0537604711   -1.9966831388    0.6147555095
 H   -2.3100390808   -1.8505596982    3.3394015981
 H   -1.4843749312   -3.3127157104    2.8295211553
 H   -0.2057537260   -1.4343659367    4.4829270602
 H    0.6702941967   -2.4450495170    3.3375573206
 H    1.3605992064   -0.3648213348    2.4018988076
 H   -0.0521444803    0.4850598236    3.0145664601