21

 C   -0.0546108454    1.2917824960    0.3216598646
 O   -0.0283668912   -0.0819701465   -0.0017390489
 C    0.6914620176   -0.4803979537   -1.1750523315
 C    2.1490111472   -0.0153908201   -1.1859835715
 C    0.6320557710   -2.0142252894   -1.0685685956
 O    1.2589154556   -2.5757555235   -2.2059329258
 C   -0.0914791007   -0.0363415749   -2.4119358917
 C    0.0764831871    1.2549522737   -3.0976471669
 O    0.5905765228    0.0510565379   -3.6602570852
 H    0.9451232915    1.6929320727    0.5356644388
 H   -0.5147388379    1.9028640314   -0.4658307051
 H   -0.6614218973    1.3802534091    1.2265116475
 H    2.6309105147   -0.3104649983   -0.2491403008
 H    2.6691917088   -0.4907573814   -2.0182907509
 H    2.2490701896    1.0672148072   -1.2931373239
 H    1.1291359912   -2.3102773690   -0.1329168339
 H   -0.4249474534   -2.3099027269   -0.9926212845
 H    1.1822125707   -3.5320412532   -2.1512264008
 H   -1.0771694889   -0.5016554434   -2.4762190749
 H   -0.7751089460    1.6920537274   -3.6184793124
 H    0.8245123430    1.9697307647   -2.7611015665