17

 C   -0.0191177479    1.5178173719    0.0643975857
 C   -0.0101708097    0.0299520096   -0.0113875552
 C   -0.0301636393   -0.8454048794   -1.0752147332
 N   -0.0103465714   -2.1696059967   -0.6671175316
 C    0.0220466457   -2.0991474237    0.6376530689
 C    0.0588140038   -3.0167589589    1.8271014054
 C    0.0804663848   -2.0190441035    2.9748530525
 C    0.0590735869   -0.7676253090    2.4962582147
 N    0.0238232610   -0.8010391649    1.0910911616
 H    0.8763433042    1.9144440407    0.5589294470
 H   -0.0509411559    1.9352889157   -0.9447403401
 H   -0.8908865010    1.9011556112    0.6091533005
 H   -0.0584336393   -0.5860795258   -2.1235259467
 H   -0.8144235916   -3.6790745990    1.8717113974
 H    0.9428011595   -3.6661871489    1.8273202542
 H    0.1088325475   -2.2919584311    4.0188637728
 H    0.0653479928    0.1754236418    3.0223783059