17

 C   -0.0606015714    1.4388042429    0.1432093045
 C   -0.0507745907   -0.0443150531   -0.0189742519
 C   -0.1236380601   -0.7733874272   -1.1364704559
 C   -0.0790460983   -2.2255328207   -0.8317912055
 O   -0.1227282759   -3.1518922596   -1.5994188859
 N    0.0278915310   -2.2968609123    0.5817355642
 C    0.0517584620   -0.9664451578    1.1695595254
 C    0.1048115142   -3.4260145154    1.3834281724
 N    0.0902390513   -4.6184136872    0.9505884635
 H    0.8544035524    1.7877307931    0.6374580265
 H   -0.1421325435    1.9434232384   -0.8218393348
 H   -0.8995176786    1.7614519577    0.7719842550
 H   -0.2052444035   -0.4182010218   -2.1543831146
 H    0.9781207543   -0.7890005131    1.7347570671
 H   -0.7856611209   -0.8153891318    1.8660397914
 H    0.1799607868   -3.1418175653    2.4425332059
 H    0.1587482009   -5.2645748168    1.7353912626