15

 O   -0.2266217935    0.3767402119   -0.8423767233
 C    0.0780534280    1.0220659745    0.1359119841
 C    1.2612362311    1.8769742438    0.2129120077
 C    2.6634957935    1.6243163112   -0.3561914511
 C    1.8599744106    2.7830750768   -0.8707902582
 C    2.3084652580    3.8531223343    0.1716002605
 O    3.7203940895    3.6642692859    0.3978667493
 C    3.3567369872    2.3413697033    0.8429526855
 C    1.9241694704    2.8049664759    1.2675803804
 H   -0.5458996336    0.9980320138    1.0576929943
 H    2.9746800618    0.7836208613   -0.9590186060
 H    1.5193398090    2.8825054596   -1.8911269920
 H    1.9897958257    4.8901766660    0.0940793925
 H    4.1062304683    1.8379956575    1.4495126563
 H    1.6060917740    3.0343964642    2.2808380100