20

 C    0.0409686481    1.5065597193   -0.2397169201
 C   -0.0408438157   -0.0051562875    0.0371381971
 C    0.6662334598   -0.4358150472    1.3001585169
 C    0.0052219481   -0.9127632160    2.3534451357
 C    0.6481744361   -1.3563710559    3.6299835292
 N    2.0929417265   -1.2369812604    3.5988920924
 C    2.8782196571   -0.7782376329    2.5835075155
 O    4.0916026002   -0.7373625904    2.6789623388
 C    2.1677141204   -0.3118255142    1.3199834146
 H    1.0744629053    1.8418860304   -0.3686033854
 H   -0.5030709034    1.7592301370   -1.1547819122
 H   -0.3969892716    2.0781570522    0.5846241167
 H   -1.0928636046   -0.3049443858    0.0949429750
 H    0.3917729554   -0.5438292522   -0.8177796287
 H   -1.0772902767   -1.0050986256    2.3259280355
 H    0.2423768469   -0.7682261021    4.4690208097
 H    0.3660575195   -2.4010516281    3.8374581239
 H    2.6131977135   -1.5303334940    4.4130398677
 H    2.6113771887   -0.8699990086    0.4844748186
 H    2.4819567065    0.7267166819    1.1562129091