20

 C    0.3094518825    1.8104734411   -0.4279255084
 C    0.2901151247    0.3055752583   -0.2718814112
 C    1.5253266928   -0.5615788163   -0.4092635636
 N    2.8002990876    0.0636599045   -0.2029102571
 C    2.9711209765    0.5974967191    1.0533829320
 O    3.8754991693    1.3259492881    1.3983805519
 C    1.7944619772    0.1132717327    1.9248762960
 C    1.2948916152    1.1972772213    2.8825388700
 C    0.8112657588   -0.4803069373    0.9244348010
 H    1.2405059154    2.2600859651   -0.0756792485
 H    0.1917020040    2.0833847820   -1.4827120005
 H   -0.5134132158    2.2739763239    0.1259265389
 H   -0.5971280504   -0.1580173446   -0.6986996065
 H    1.5235809808   -1.4545146738   -1.0247883580
 H    3.3712333892    0.4042984886   -0.9615541850
 H    2.1926677440   -0.7132391571    2.5304055773
 H    0.8227861795    2.0245741040    2.3470581993
 H    0.5638010647    0.7889575813    3.5863628157
 H    2.1398761971    1.6002207133    3.4470865402
 H    0.2056772470   -1.3156937544    1.2558731166