15

 O   -0.0584889417   -0.0967355907   -1.3570944306
 C   -0.0161346782    0.9360576368   -0.7629123329
 O    1.1500520346    1.4994151889   -0.3758339757
 C    1.0683251452    2.7664595689    0.3120080096
 C    2.3695332191    2.8718845114    1.1358282311
 C    2.3812485911    4.0336091781    2.0117754028
 C    2.3696856061    4.9887254818    2.7397729746
 C    0.8996662020    3.8617254984   -0.6372430644
 C    0.7603813122    4.7524532753   -1.4303485188
 H   -0.9025096960    1.5260046016   -0.4621186156
 H    0.2167803010    2.7444827656    1.0041661279
 H    2.4612690578    1.9489678197    1.7190781009
 H    3.2160279820    2.8984888497    0.4415607800
 H    2.3711225458    5.8353110446    3.3809625311
 H    0.6355736687    5.5426761699   -2.1296494102