23

 C   -1.2198827716    2.5186984203   -1.1166619368
 C   -0.8112206529    1.1791928525   -0.4773150428
 C   -1.9014801533    0.2105927973   -0.4214503561
 C   -2.8140044816   -0.5763291760   -0.3875398461
 C   -3.9138885054   -1.5492270705   -0.3320875749
 C   -3.3934445867   -2.9927409696   -0.2609848856
 C   -4.5151945747   -4.0312352726   -0.3192100613
 O   -4.7515994498   -1.3503455080    0.7998731926
 C   -5.4790945279   -0.1426086890    0.7709949622
 H   -0.3700139275    3.2074574706   -1.1367457734
 H   -1.5675686777    2.3696038900   -2.1424967046
 H   -2.0299653926    2.9875539759   -0.5513820150
 H    0.0272119562    0.7458486383   -1.0378404249
 H   -0.4321254770    1.3567599322    0.5372969575
 H   -4.5222210189   -1.4393223181   -1.2485880143
 H   -2.6889283660   -3.1376400814   -1.0867839239
 H   -2.8220642246   -3.0958393513    0.6678366545
 H   -4.1103410348   -5.0450673131   -0.2461949538
 H   -5.2222292728   -3.8823436269    0.5000054970
 H   -5.0708819202   -3.9618293116   -1.2614529353
 H   -6.1380483239   -0.0875935238   -0.1102456549
 H   -6.0941636463   -0.1183128771    1.6737649881
 H   -4.8158634101    0.7331909619    0.7630894818