17

 N    0.0155195395    1.3190696546    0.1688811643
 C    0.0381151352    0.0649979803   -0.0114245255
 C    1.3028027950   -0.7821087836   -0.1485303613
 O    1.1936069324   -1.8712138714   -1.0430608882
 C    0.0825409461   -2.6878509078   -0.7253130368
 C   -1.2015330669   -1.8832595385   -0.8661323782
 N   -1.1566240075   -0.6923901712   -0.0108266421
 C   -2.2855516712   -0.3547620613    0.7312332754
 O   -2.4004139820    0.5508971504    1.5104381250
 H    0.9671209761    1.6901667406    0.1759097287
 H    2.1191102859   -0.1552828564   -0.5139895225
 H    1.5676664705   -1.1444004144    0.8610563242
 H    0.0918403044   -3.5236662425   -1.4296579595
 H    0.1727621461   -3.0863229963    0.2987115446
 H   -1.3254444207   -1.5893043971   -1.9163213195
 H   -2.0670114436   -2.4863606127   -0.5771953662
 H   -3.0973557293   -1.0845823528    0.5307632877