19

 O   -0.0200341007    0.0103114160    0.6644276015
 C   -0.0375947180    1.1174147156    0.2010383394
 C   -1.3273636553    1.9187404409    0.0615373185
 C   -1.9665716061    1.8335228878   -1.3424159432
 C   -1.2669779340    2.5820254914   -2.4897399726
 C    0.1300172858    2.0709368765   -2.8822662489
 O    1.2344264072    2.7489665990   -2.2838575008
 C    1.2149139723    2.9014165839   -0.9072306670
 O    1.1433708679    1.6598630512   -0.2139615997
 H   -2.0090085037    1.4590963974    0.7796852798
 H   -1.1986696891    2.9641220952    0.3583376304
 H   -2.0575798912    0.7739536766   -1.6119148701
 H   -2.9900404754    2.2148056572   -1.2565684646
 H   -1.9068484145    2.4840059027   -3.3742473318
 H   -1.2119204095    3.6583344218   -2.2830219006
 H    0.2069406959    0.9918827510   -2.6856637984
 H    0.2914866626    2.2168397439   -3.9530394871
 H    2.1790146104    3.3367941157   -0.6376832845
 H    0.4083780756    3.5656954763   -0.5758484405