13

 C    0.0313527457    1.2977993949    0.0091397130
 C    1.3268855536    1.7858317348   -0.0007129807
 N    2.1132481808    0.6750055119   -0.0144147751
 N    3.4483385000    0.6062753198   -0.0277108585
 C    3.9079846650   -0.6238086414   -0.0389145834
 C    3.0681947132   -1.7694005882   -0.0370545796
 N    1.7555805876   -1.6874583868   -0.0239180477
 C    1.2456450868   -0.4514375039   -0.0122107594
 N   -0.0179024369   -0.0612431861    0.0021498637
 H   -0.8746501616    1.8862886345    0.0211361093
 H    1.7456806791    2.7774562113    0.0006802608
 H    4.9880036264   -0.7186568510   -0.0498854745
 H    3.5098111703   -2.7618759498   -0.0467819778