25

 C    0.1879460690    1.5158119817   -0.0697724145
 C   -0.0194713343    0.0075502978    0.0812363579
 O    0.6235352532   -0.4594273119    1.2703611226
 C   -1.5006105183   -0.4873217874    0.0136338714
 C   -2.2687664844   -0.0632979679    1.2788187725
 C   -2.1939933318    0.0932800646   -1.2324344965
 C   -1.4334335216   -2.0464898797   -0.0742042040
 C   -2.7644237827   -2.7823850321    0.0919271838
 O   -0.7887395076   -2.4649417026   -1.2803594785
 H    1.2521021374    1.7395916592    0.0459624977
 H   -0.1293660228    1.8793983725   -1.0502981651
 H   -0.3586813050    2.0856097682    0.6918079773
 H    0.5112757035   -0.5008647661   -0.7293284449
 H    0.3192239769    0.0863805036    2.0030191290
 H   -2.1903065191    1.0158491585    1.4491642151
 H   -3.3342594636   -0.2933429039    1.1929899647
 H   -1.8912551905   -0.5760569054    2.1695831866
 H   -1.5959687220   -0.0645229546   -2.1359629690
 H   -3.1763282335   -0.3645628926   -1.3909576774
 H   -2.3592593387    1.1693187992   -1.1305079351
 H   -0.7541362094   -2.3696538551    0.7203507785
 H   -3.5058312177   -2.4669962700   -0.6525985449
 H   -2.5943674617   -3.8545736255   -0.0399540346
 H   -3.1997454103   -2.6283729218    1.0824270803
 H   -1.4204589147   -2.3674974487   -2.0005920229