15

 N    0.1979491290    1.3689376942    0.2799896394
 C   -0.1679118390   -0.0133942287   -0.0489349022
 C   -1.6960265847   -0.1054254631   -0.2400714820
 N   -2.3734410781    0.3442669735    0.9541134759
 C   -3.2757032307   -0.4253902871    1.6237270882
 O   -3.6585931816   -1.5198432688    1.2710164037
 C    0.5325797606   -0.5390636483   -1.2373575104
 N    1.0910692299   -0.9065588841   -2.1805142521
 H    1.1671420336    1.4175717054    0.5783571721
 H    0.1218698298    1.9525383082   -0.5493432754
 H    0.1021839261   -0.6411097451    0.8072560523
 H   -1.9831266054    0.4994762919   -1.1105220973
 H   -2.0047073990   -1.1349356994   -0.4287045875
 H   -2.0538891873    1.2102862251    1.3610939493
 H   -3.6351603732    0.0755549963    2.5436126661