15

 C    0.0654473007    1.5523826632    0.0793975134
 C    0.0385150059    0.0575492587    0.0587681490
 C   -0.0207324642   -0.7245180505   -1.0496274296
 N   -0.0711467702   -0.4180312917   -2.4059231087
 O   -0.0283690523   -2.0761651730   -0.6601363142
 C    0.0270044728   -2.0812185907    0.6868043387
 O    0.0307984567   -3.2832477649    1.2891077346
 C    0.0700476148   -0.8273326079    1.2000595874
 H    0.9735541959    1.9294252780    0.5641601365
 H    0.0308081924    1.9452989430   -0.9391991847
 H   -0.7865571813    1.9601614211    0.6358396005
 H   -0.9185289216   -0.7458200629   -2.8588405801
 H    0.7241005934   -0.7747942485   -2.9264399435
 H   -0.0092423669   -3.9593603335    0.6025766385
 H    0.1176294594   -0.5619180903    2.2430488725