18

 N   -0.1800039869    1.3115438442    0.3710767000
 C    0.7851097965    2.3331622893    0.2364246526
 C    0.8547463382    3.3128288994   -0.6902185165
 C    0.1023614185    3.5667057335   -1.9278807709
 C   -0.4619897014    2.6900849621   -2.7891001623
 C   -0.4597348873    1.2587295649   -2.4764233178
 C    0.6528693081    0.5620250125   -2.2032361166
 C    0.6902813315   -0.4368740711   -1.1260883933
 C    0.3175850351   -0.0257312065    0.0974422788
 H   -0.9914655747    1.5151506994   -0.1930099402
 H    1.5480140695    2.3020863786    1.0117127419
 H    1.6089653894    4.0700783865   -0.4827359130
 H    0.0419900838    4.6213863580   -2.1963564539
 H   -1.0156577449    3.0754240774   -3.6423165745
 H   -1.4240808797    0.8139291175   -2.2194324877
 H    1.6142291700    0.9509293787   -2.5375611083
 H    1.1246886997   -1.4257397498   -1.2529498789
 H    0.4171343747   -0.6690856648    0.9682279904