16

 C   -0.0985181859    1.6805621356   -0.0945786113
 C    0.0275038037    0.1676913038   -0.1063394401
 C   -1.3303845318   -0.5095137584    0.0803762487
 O   -2.2616240246    0.0007815980    0.6418325333
 N    0.6968858149   -0.5054056639   -1.2931883710
 C    2.0801404613   -0.0541727816   -1.3179510771
 C    1.7305361655   -1.1478291297   -0.3633321699
 C    1.0506769173   -0.5622849146    0.8335165497
 O    1.1130472595   -0.7373006788    2.0130918529
 H    0.8633183560    2.1870612707    0.0026375321
 H   -0.5870518969    2.0235012698   -1.0121374394
 H   -0.7280877076    1.9681275593    0.7500703540
 H   -1.3808601751   -1.5330614184   -0.3459392128
 H    2.6160895963   -0.3596991524   -2.2115893277
 H    2.3465081069    0.9298783797   -0.9463357874
 H    2.0923256405   -2.1633495691   -0.4754828141