19

 C   -0.0262181989    1.6395614348    0.1159618567
 C    0.0351104599    0.1164329056    0.0487572850
 C   -1.3681440653   -0.4900092091   -0.1786773329
 C   -1.9587112860   -0.0895029264   -1.4548593778
 N   -2.4027610663    0.2354782635   -2.4712024137
 C    1.0943214419   -0.5534205769   -0.8798705992
 N    1.6474913824   -1.3926325144    0.2436380764
 C    2.1902606069   -0.4254857756    1.2131780100
 C    0.7309586753   -0.6340363011    1.1932063604
 H    0.9631578545    2.0705501739    0.2884290400
 H   -0.4151936119    2.0568540743   -0.8186272630
 H   -0.6820833360    1.9704433783    0.9295479897
 H   -1.3101215991   -1.5839669176   -0.1513364576
 H   -2.0439145022   -0.1853183758    0.6299021328
 H    0.6704401111   -1.1845518901   -1.6634743535
 H    1.8353075262    0.1163222504   -1.3280516872
 H    2.7446048825   -0.8976712661    2.0185753946
 H    2.6261780320    0.5017590763    0.8482718181
 H    0.2095405830   -1.1382172940    2.0030058811