16

 O   -0.0250028114    1.3084655774   -0.1590641994
 C    0.0523123149   -0.0980231417   -0.0249332348
 C   -1.3240695980   -0.6614616186    0.2751878582
 O   -2.2213314439   -0.4287328461   -0.8808695733
 C   -2.4610694824   -1.7745670220   -1.0325258150
 N   -3.1298425678   -2.4141689487   -1.8752222305
 C   -1.6161996319   -2.1762703275    0.1665539212
 C   -0.5192712815   -3.1858653329   -0.0875881348
 O    0.6457733386   -3.0093259080    0.1562129664
 H   -0.6127686718    1.4905293683   -0.9010844314
 H    0.4700256606   -0.5747400483   -0.9214090536
 H    0.7291753795   -0.3103757736    0.8062187500
 H   -1.7474852574   -0.1744045877    1.1570285304
 H   -3.5664883236   -1.7988597048   -2.5631818864
 H   -2.2414779376   -2.5665067759    0.9780913989
 H   -0.8907652363   -4.1380877100   -0.5210943461