17

 O   -0.0354232234    1.5348062431   -0.0871143468
 C    0.0196616040    0.1357820622   -0.0995407809
 C    0.7438022468   -0.3759186538   -1.3364997751
 O    2.0512334303    0.2154460456   -1.3741835974
 C    3.1343420735   -0.5919009372   -1.3364511921
 O    4.2486868272   -0.1698221546   -1.3243763062
 C    0.4175295300   -0.5934368852    1.2131925035
 O   -0.7737448300   -1.4050927493    1.1415555026
 C   -1.3401236431   -0.5496639616    0.1278704070
 H    0.8410283713    1.8649227871   -0.3216613742
 H    0.8111083898   -1.4701093050   -1.3267752143
 H    0.2175821212   -0.0546140694   -2.2408023017
 H    2.8635266288   -1.6651828745   -1.3248796327
 H    1.3316492717   -1.1983508412    1.2212992043
 H    0.4109554404    0.0823204091    2.0772932312
 H   -2.0849963354    0.1471051031    0.5317464499
 H   -1.7755516032   -1.1171845685   -0.7029117970