21

 C   -0.0539633669    1.5456042520    0.0029024511
 C    0.0473208817    0.0203363797   -0.0219509826
 C    0.8773553053   -0.5482878381   -1.2150026058
 O    1.9889880579    0.2649651624   -1.5444706564
 C    1.3229184083   -1.9554297511   -0.7392391558
 C    1.4698118681   -1.7871210577    0.7574687855
 O    2.1565152735   -0.5682793330    1.1234166195
 C    0.7057933605   -0.6131667803    1.2030005003
 C    0.1265283763   -0.4461556448    2.5799099355
 H    0.9342036490    2.0025461542    0.0899446260
 H   -0.5078341777    1.9183700728   -0.9200848148
 H   -0.6699924139    1.8875596044    0.8407381100
 H   -0.9660671498   -0.4032430936   -0.0860585046
 H    0.2716898117   -0.5984711777   -2.1236633092
 H    2.5355842579    0.2854019514   -0.7466420960
 H    0.5585778966   -2.7148184409   -0.9462374532
 H    2.2463385522   -2.2581270225   -1.2409737713
 H    1.6713012829   -2.6345986532    1.4085616065
 H    0.1328616594    0.6059956159    2.8827085712
 H   -0.9111938067   -0.7957371294    2.6062437061
 H    0.7056021038   -1.0131715503    3.3130122181