16

 C    0.1192386463    1.4031683438    0.1058599056
 N    0.2686451347   -0.0389787106    0.0875791824
 C    0.7109716606   -0.6076431282   -0.9333087964
 O    0.8899447518   -1.9538030336   -1.0260253180
 C    1.3631788383   -2.2341505200   -2.3136437058
 C    1.6259191200   -3.6432433787   -2.6751244823
 C    1.4928497687   -1.0749276065   -2.9517503333
 O    1.9851056009   -0.7667092635   -4.1577780687
 O    1.0984157782   -0.0300166202   -2.1329248904
 H    0.6750639175    1.8135472849    0.9564600203
 H    0.4635096702    1.9062493472   -0.8062914002
 H   -0.9351997892    1.6587018822    0.2633244346
 H    0.7232710165   -4.2551380117   -2.5675899634
 H    1.9617155567   -3.6952950732   -3.7131112356
 H    2.4013358273   -4.0828801827   -2.0373452409
 H    1.4244855014   -0.0955096390   -4.5681879378