19

 N   -0.1252819863    1.3075445145    0.1803402498
 C   -0.0300825345    0.0661819153   -0.0474065172
 C   -1.2540612706   -0.8274241911   -0.0162216372
 C   -1.1681703941   -1.9702843120   -1.0083707778
 C   -2.3993968731   -2.6406811027   -1.4787411860
 N   -1.6316470849   -1.7681717682   -2.3935164516
 C    0.1555705859   -2.6956017059   -0.8876167076
 C    1.2737970197   -1.6812994239   -1.0979273664
 O    1.1794526933   -0.5464071743   -0.2163911008
 H    0.8036496615    1.7348637309    0.1559947222
 H   -1.3233559609   -1.2437373159    0.9987153505
 H   -2.1382196414   -0.2052391918   -0.1701490299
 H   -2.3817727637   -3.6971155025   -1.7339056297
 H   -3.3538634407   -2.2842206026   -1.0987439264
 H   -2.0978126176   -0.8678955028   -2.4806981247
 H    0.2442908386   -3.1591685901    0.1024543905
 H    0.2358318130   -3.4812355387   -1.6441674274
 H    2.2585464160   -2.1106809027   -0.9016259469
 H    1.2498711199   -1.3217747657   -2.1345629234