19

 C   -0.1088009675    1.4739513546   -0.0051124804
 C   -0.0359415335   -0.0168688715   -0.0804680898
 C    0.6958235896   -0.9370301239   -1.0959748872
 C    0.2025999191   -1.8119443427    0.0752550667
 O    0.6354242085   -0.7614285137    1.0245768596
 C   -1.1598939987   -1.0865854422    0.0221196824
 C   -2.2465593169   -1.1426284938    1.0970161746
 C   -3.1952283301   -1.3831721458   -0.0961201816
 O   -2.0965455738   -1.2964177259   -1.0362170921
 H    0.8928060948    1.9141679253   -0.0102057482
 H   -0.6629174717    1.8615446622   -0.8658016465
 H   -0.6204570299    1.7908430867    0.9092782094
 H    0.2327658297   -1.0834887106   -2.0737636408
 H    1.7773569940   -0.7980706784   -1.1402108037
 H    0.4408316371   -2.8455117630    0.3263942282
 H   -2.1561064256   -1.9646748463    1.8078601787
 H   -2.4058903646   -0.2123122704    1.6443976001
 H   -3.6785906464   -2.3657762255   -0.1320024446
 H   -3.9452452242   -0.6061782152   -0.2802007348