20

 C    0.0276159694    1.4839191089   -0.0667777934
 C   -0.0734007090   -0.0199013647    0.0509242729
 C   -0.2029741371   -0.6907776016    1.3700677574
 N    1.0844525483   -0.7165173730    0.6562693461
 C    1.4738603974   -1.9905112912    0.0128669532
 C    0.6460536831   -2.2911643547   -1.2350428516
 C    0.5162659751   -1.0506232538   -2.1439148818
 C   -0.6389263409   -0.7406532231   -1.1646896005
 O   -0.7643392879   -2.1597407940   -0.8778602106
 H    0.5726195106    1.8952482940    0.7858333032
 H    0.5582344859    1.7801969581   -0.9789627542
 H   -0.9689708247    1.9394694846   -0.0957817393
 H   -0.2064140271   -0.0929398012    2.2787404725
 H   -0.7806272879   -1.6091306041    1.4069051449
 H    2.5347094894   -1.9208129423   -0.2616887863
 H    1.3743327771   -2.8098100973    0.7337967697
 H    0.8802790696   -3.2608711045   -1.6828861460
 H    1.3546507971   -0.3530365122   -2.1977657591
 H    0.1595351937   -1.3091728552   -3.1414981234
 H   -1.5694499121   -0.3025627429   -1.5364265237