19

 O   -0.2963333518    0.2631898688    0.5913577143
 C   -0.1012483626    1.3363651581    0.1158572713
 O   -1.0102364929    2.1678502989   -0.4795640960
 C    0.0110250698    3.2082941305   -0.7111172224
 C   -0.3483007865    4.5160750861   -0.0267115810
 C   -0.0510698012    4.5010377678    1.4777800163
 C    1.4255148541    4.1600837239    1.7117992379
 C    1.7672908803    2.7258463424    1.2695717683
 C    1.0809584057    2.2944545833   -0.0492650993
 H    0.1325271396    3.3366579968   -1.7895701248
 H    0.2359709789    5.3171246554   -0.4981000775
 H   -1.4028570849    4.7326368525   -0.2290275442
 H   -0.2906234101    5.4788258809    1.9073272652
 H   -0.6939371131    3.7697655523    1.9839468388
 H    2.0416859789    4.8782790383    1.1540525384
 H    1.6911381673    4.2802260217    2.7669200431
 H    2.8512700484    2.6182253093    1.1742667569
 H    1.4613435677    2.0210255083    2.0509568492
 H    1.8046209225    1.9016041248   -0.7664992246