15

 C   -0.0058875965    1.4798048156   -0.0032528305
 C    0.0194095059    0.0251757124   -0.0276911249
 C    0.0554915651   -1.1768489261   -0.0531535959
 C    0.0402973795   -2.6367930308   -0.0635195260
 C   -1.3973701266   -3.2032420386    0.1685295335
 O   -1.4078599141   -4.6057307824    0.2243314482
 C    0.5632620211   -3.1864520230   -1.3250092422
 N    0.9212458249   -3.6666419915   -2.3133653908
 H    0.6264680937    1.8732570821    0.7995649692
 H    0.3583527539    1.8932575206   -0.9496246553
 H   -1.0222478519    1.8551973343    0.1562097365
 H    0.6705590792   -3.0305338857    0.7447590272
 H   -1.7435699252   -2.8388738750    1.1386711609
 H   -2.0619179203   -2.8015284654   -0.6077996036
 H   -1.2159224288   -4.9473072465   -0.6568081463