17

 C    0.0255981690    1.5441498478    0.4805723012
 C   -0.0733034845    0.1189266333   -0.0487962547
 O    0.7759597640   -0.7978570472    0.6401635262
 C   -1.4959917194   -0.3973037233   -0.0547488222
 N   -2.5571610450    0.3163390269   -0.1101048019
 C   -3.6769703301   -0.6278126190   -0.1381837664
 C   -3.0688079481   -2.0371883522   -0.0619223009
 O   -3.6005463557   -3.1182395930   -0.0323435830
 N   -1.7034717247   -1.7734399658   -0.0302118568
 H    1.0560964147    1.8986664330    0.4034817411
 H   -0.6338506309    2.2048779028   -0.0854684834
 H   -0.2895814476    1.5885542836    1.5290180718
 H    0.2851948719    0.0903053439   -1.0862494872
 H    0.6414488210   -0.6685065771    1.5861246876
 H   -4.3617616624   -0.4569568009    0.6996116596
 H   -4.2640719744   -0.5150514819   -1.0566712450
 H   -0.9715753179   -2.4577001710    0.0742960039