18

 C   -0.0821781014    1.5613993836   -0.0159092905
 C    0.0094862587    0.0300719268    0.0535398806
 C    0.6305792896   -0.5507491893   -1.2361922577
 C    0.9373618102   -2.0311225905   -1.1026083860
 O    0.5425996469   -2.8597915043   -1.8884917600
 C    1.7970180952   -2.4015056370    0.1018626875
 C    1.5869029069   -1.4909193323    1.2837327782
 C    0.7831336870   -0.4289120553    1.2667816903
 H    0.9150596352    2.0094105061   -0.0888050960
 H   -0.6617852159    1.8805582878   -0.8877820382
 H   -0.5677492447    1.9662965749    0.8780037537
 H   -1.0182874676   -0.3562120956    0.1373076436
 H   -0.0159318377   -0.3989213786   -2.1038943540
 H    1.5815098215   -0.0299290137   -1.4208100913
 H    1.5952126806   -3.4483101874    0.3555318488
 H    2.8505722773   -2.3740351545   -0.2182574027
 H    2.1129316747   -1.7567018863    2.1974689384
 H    0.6576505035    0.1611533258    2.1722277453