20

 C    0.0332319637    1.5486382171   -0.0535771705
 C   -0.0456912263    0.0326027640    0.1417485063
 C   -1.4072822812   -0.5487711594   -0.2560806095
 C   -1.4882869475   -2.0494751944   -0.0218721317
 O   -1.3944860984   -2.4170326107    1.3883545735
 C   -2.6822408893   -3.0765969173    1.3791391658
 C   -2.8472058619   -2.7093144076   -0.0730453925
 N   -3.7006144243   -2.8293971651   -0.9947208897
 O   -4.8377966608   -3.5193766380   -0.5385052136
 H    1.0140488184    1.9360576300    0.2388684200
 H   -0.1357074547    1.8244448763   -1.1005773600
 H   -0.7217617744    2.0651164408    0.5494614164
 H    0.7420322625   -0.4570109351   -0.4461540317
 H    0.1500552337   -0.2205293175    1.1898219033
 H   -2.2069414659   -0.0579895126    0.3121786387
 H   -1.6105606613   -0.3602572379   -1.3184824528
 H   -0.7157477264   -2.5724530952   -0.6046040231
 H   -2.6107389045   -4.1515698524    1.5886660500
 H   -3.4000338690   -2.6229593318    2.0740280737
 H   -5.3939567924   -3.5398947930   -1.3248548626