22

 C    0.0328052224    1.6038270788    0.0247702788
 C   -0.0948628909    0.0765618117   -0.0144854434
 C    0.6616237530   -0.5464739199   -1.1802857130
 C    2.2165736580   -0.5495400834   -1.1970099133
 C    2.1699237132   -1.9446355731   -1.8744352771
 C    0.6927456616   -2.0891604552   -1.3917182677
 C    0.5561116860   -2.9292367489   -0.1250885874
 O   -0.2619925938   -2.4858907121   -2.3615447779
 H    1.0796311850    1.9128650820    0.1179228560
 H   -0.3642909645    2.0565812835   -0.8905160862
 H   -0.5153324115    2.0280390441    0.8718322765
 H    0.2706386846   -0.3411316502    0.9323578043
 H   -1.1551521229   -0.1992390995   -0.0851289865
 H    0.2967422514   -0.1182231279   -2.1214910134
 H    2.7176882814    0.2550340243   -1.7385916887
 H    2.6342346220   -0.5963360008   -0.1858280573
 H    2.1997403619   -1.8702853871   -2.9643181539
 H    2.8886630936   -2.7001871213   -1.5441813304
 H    1.2685106778   -2.6231022933    0.6470539179
 H   -0.4547241967   -2.8542312764    0.2864245226
 H    0.7574323811   -3.9845444552   -0.3507679165
 H   -0.2439439926   -3.4468413000   -2.4289105233