18

 C   -0.1156379362    1.5036423868   -0.0429118336
 C   -0.0284719022    0.0021425767    0.0745772876
 N    1.3205809303   -0.5983019029   -0.0918699498
 C    0.6442507365   -0.6715671307    1.2018665123
 C    1.2967684675   -0.1303252481    2.4995228199
 C    0.8753039792   -1.4433588319    3.1802718058
 N   -0.6021061529   -1.5174609537    3.0675841894
 C    0.2529119598   -1.9471324560    1.9247717063
 H    0.7545336478    1.9763083710    0.4201260441
 H   -0.1481757117    1.8137537441   -1.0930214711
 H   -1.0185211770    1.8784096949    0.4510061046
 H   -0.8621845726   -0.5418041726   -0.3690369235
 H    1.2538469581   -1.4909784005   -0.5767793496
 H    2.3777836724   -0.0291304129    2.3810983119
 H    0.8742002333    0.7787670464    2.9342611456
 H    1.4021582024   -1.9834310107    3.9566889208
 H   -0.8933958477   -2.3692096615    3.5491602621
 H    0.1863443531   -2.9508546785    1.5197467472