15

 O    0.0459182434    1.3237279438   -0.6481841931
 C   -0.0357075406    0.0885063564    0.0661436078
 C   -1.4088552492   -0.5086887342    0.0066189790
 N   -2.0763630786   -0.8321114113    1.0800292470
 O   -3.2670665159   -1.3335061238    0.6438568033
 N   -3.3457118128   -1.3038787558   -0.7245023800
 C   -2.2162614136   -0.8033048635   -1.1418758123
 C   -1.9001964832   -0.5760191468   -2.5955394781
 O   -1.6842902623    0.7860929369   -2.8939672204
 H   -0.5105971556    1.9679167732   -0.1949343361
 H    0.6881945317   -0.5728357337   -0.4200485634
 H    0.2639539740    0.2058178244    1.1131417434
 H   -1.0341123175   -1.1991238761   -2.8735527235
 H   -2.7509006223   -0.9121280096   -3.1929128714
 H   -0.9465344073    1.0936908301   -2.3450177221