14

 O   -0.0143674893    0.0144206400    0.3064641237
 C   -0.0185819361    1.1725617035   -0.0162425896
 O   -1.1916218161    1.8255397999   -0.2077051310
 C   -1.1614266967    3.1075231698   -0.8539310808
 C   -0.1134485499    4.0354717662   -0.2530940775
 C    1.2102013509    3.3066097637   -0.2101352269
 C    1.2295592925    1.9653422395   -0.1522394879
 C    2.4140336668    4.0733624201   -0.2120628870
 N    3.3698143124    4.7271775416   -0.2191083663
 H   -0.9635989022    2.9601024429   -1.9230190733
 H   -2.1682686587    3.5126351085   -0.7412211569
 H   -0.0356805708    4.9444258185   -0.8570282203
 H   -0.3957564252    4.3477036392    0.7602763415
 H    2.1486565726    1.3950228468   -0.1090854777