23

 O   -0.0806193596    1.4717229415    0.0648783074
 C    0.0173291246    0.0557982158    0.0953097607
 C   -1.3892464790   -0.5156432951   -0.0241118148
 C   -1.4185061851   -2.0464380541   -0.0018754693
 C   -2.8338822987   -2.6235493113   -0.1261530090
 C   -2.8682320424   -4.1463202648   -0.0947924489
 C   -2.6342477670   -4.8442156005    1.2669296341
 O   -3.9223482765   -5.4886553249    1.2138564863
 C   -4.2525145972   -4.8310431055   -0.0261345505
 H    0.8059928037    1.8366502394    0.1369610885
 H    0.6422449070   -0.3185606997   -0.7325906814
 H    0.4812287240   -0.2917728093    1.0334359066
 H   -1.9970049114   -0.1141487092    0.7961178843
 H   -1.8371155225   -0.1431751067   -0.9537185649
 H   -0.7967070108   -2.4388316761   -0.8187011686
 H   -0.9593355381   -2.4082248371    0.9287903710
 H   -3.4622801992   -2.2321437128    0.6859244723
 H   -3.2893454912   -2.2709630504   -1.0616948895
 H   -2.2358890421   -4.5532184937   -0.8897946795
 H   -1.8138097799   -5.5707042234    1.3134928042
 H   -2.5517125476   -4.1626009433    2.1255295445
 H   -5.1021308952   -4.1432811048    0.0870473176
 H   -4.4827973859   -5.5489383538   -0.8229066910