13

 N    0.1023987943    1.3551405665   -0.1397786035
 C   -0.0550502117   -0.0232669887   -0.0602708349
 C   -1.1433578991   -0.8435102110   -0.0797958661
 C   -0.6117690092   -2.1844574307   -0.0828578729
 O   -1.3021253657   -3.3592655635   -0.1109038218
 C    0.7394397313   -2.0797694034   -0.0604356770
 O    1.7401835950   -2.9739712648    0.0483265024
 O    1.0921058331   -0.7348815708   -0.0455957730
 H    0.9115714296    1.6790787948    0.3763349886
 H   -0.7256736405    1.8554920730    0.1532107421
 H   -2.1812057130   -0.5490509547   -0.0965795675
 H   -2.2394232965   -3.1616446593   -0.0345941526
 H    2.1294794525   -3.1410812875   -0.8195369538