17

 O    0.0339999039    0.0929640026    0.7659671075
 C   -0.0125288234    1.0727463763    0.0730908435
 O   -1.2305835672    1.6274036290   -0.2074198777
 C   -1.5291377222    2.1320262054   -1.5115965798
 C   -0.8886677172    3.4666426061   -1.8622102516
 O    0.4499091860    3.3468442117   -2.2954215317
 C    1.3949902104    2.9020173859   -1.3797773721
 C    1.4234488157    3.2347890458    0.0717546308
 C    1.2285872972    1.7703968802   -0.3759107282
 H   -1.2634647431    1.3904318401   -2.2745253430
 H   -2.6163463008    2.2493248863   -1.5109474822
 H   -1.4245531076    3.8955191460   -2.7149788780
 H   -0.9866259058    4.1658425909   -1.0195495724
 H    2.3552060619    2.8819508106   -1.8846804026
 H    2.3636965129    3.5055608466    0.5377183760
 H    0.5523339607    3.6988416982    0.5182522437
 H    2.0872327887    1.1199407884   -0.2572988122