20

 C   -0.0816780166    1.3116822610    0.5179585752
 C    0.0193096635    0.0717332033   -0.3731135573
 N   -1.2552466031   -0.6101963148   -0.5470197396
 C   -1.5576696532   -1.7848049003    0.0724209245
 O   -0.7691857703   -2.3943251365    0.7742931974
 C   -2.9858171787   -2.2870581517   -0.1595117294
 C   -3.0358837122   -3.8199410862   -0.2043144105
 C   -4.4308716429   -4.3494988244    0.0164258861
 O   -5.0008102844   -5.1319780869   -0.6987625930
 H    0.8958806102    1.7954343237    0.6093444324
 H   -0.7808686276    2.0462078804    0.1033245040
 H   -0.4259812042    1.0403739319    1.5200023088
 H    0.4132865998    0.3432116623   -1.3596350046
 H    0.6963126834   -0.6632102386    0.0667089222
 H   -1.9724260091   -0.1528241935   -1.0863106346
 H   -3.5897374430   -1.9242208314    0.6841888551
 H   -3.4194564490   -1.8518451148   -1.0663638776
 H   -2.6470974310   -4.2145631673   -1.1465763220
 H   -2.3941371330   -4.1847110816    0.6093696280
 H   -4.9244960685   -3.9513067849    0.9364155548