20

 C    0.0526850654    1.5722763836    0.0657230744
 C    0.0097385020    0.0460388610   -0.0355007583
 O    0.7949428531   -0.5515903233    0.9956970574
 C   -1.4211798038   -0.5269434096   -0.0211687080
 C   -2.3387993737    0.0730923922   -1.0844595612
 C   -1.4870758539   -2.0885137944    0.0896492849
 N   -2.1716175049   -1.9043509236    1.3767091111
 C   -2.0260601637   -0.5442052435    1.4133165355
 O   -2.2367258375    0.2852371172    2.2640480366
 H    1.0927740048    1.8971666602    0.1557517305
 H   -0.3789075961    2.0524977421   -0.8164416339
 H   -0.5039847423    1.9120500234    0.9455939027
 H    0.4926381318   -0.2712289529   -0.9690995674
 H    0.5276630931   -0.1480125791    1.8304328651
 H   -1.8910889017   -0.0088535085   -2.0817259069
 H   -3.3018531892   -0.4459959209   -1.1041862442
 H   -2.5360854574    1.1295032160   -0.8857434471
 H   -2.0931342308   -2.5926089816   -0.6688649322
 H   -0.5070580543   -2.5625324006    0.1814480000
 H   -2.3532011707   -2.5559559079    2.1267071510