17

 C   -0.0755422613    1.4700352401    0.1017248392
 C    1.3193957662    0.8656225491    0.0104455228
 C    2.1900432567    0.3370301227    1.1405905655
 O    2.2282989726   -1.1105507340    1.1016049769
 C    0.9289152926   -1.7021150866    0.9629197521
 O   -0.0461788621   -0.7077567972    1.1778933374
 C    0.0596128284    0.0030792213   -0.0508446292
 C    0.0751393781   -1.0729556832   -1.0960094424
 C    0.6420797442   -2.1209906411   -0.4960182969
 H   -0.4603026929    1.8091220276    1.0584497988
 H   -0.3864553203    2.0658195282   -0.7494383971
 H    1.8222766668    1.0253740913   -0.9379124660
 H    3.2325786254    0.6436108711    1.0312051863
 H    1.8321390189    0.6775765088    2.1183332724
 H    0.8307665932   -2.4877752046    1.7156786233
 H   -0.1933958233   -0.9485679905   -2.1357176625
 H    0.9280423367   -3.0691979629   -0.9281145506