17

 C    0.0148665959    1.5216609820    0.1896644800
 O    1.4328330211    1.5335692323   -0.2151107260
 C    1.2274628041    0.2372245932   -0.7729280164
 C    0.4036393368    0.1461497083   -2.1020404152
 C   -0.3670543301   -0.9053560553   -1.2755481910
 C    0.7833358262   -1.9581824782   -1.0355853575
 O    1.9259566151   -1.8784145320   -1.9088539837
 C    1.9493256113   -1.1178520833   -0.6966159634
 C   -0.0662089499   -0.0302605256    0.0011364321
 H   -0.0887949715    1.8525645033    1.2256685332
 H   -0.5933328546    2.1526084114   -0.4641860435
 H   -0.1696730332    1.0534058005   -2.2803349048
 H    0.9098417949   -0.1850118597   -3.0041182763
 H   -1.3438944672   -1.2997474330   -1.5541312617
 H    0.5805320130   -2.9364885217   -0.6126126459
 H    2.7089428298   -1.3583048650    0.0386268398
 H   -0.0053978118   -0.5607324670    0.9540417603