19

 O   -0.1148700452    1.5141379848    0.4639386138
 C    0.0586354187    0.1560561502    0.1287862376
 C    0.3228964119   -0.8749701527    1.2730112034
 C   -0.8745675939   -1.7272757307    0.7645008511
 C   -2.1974739714   -1.4848743928    1.5593080521
 C   -2.4672600192   -0.2212414351    0.6615478780
 C   -1.2487657521   -0.5729979186   -0.2334108695
 C   -3.1849014293   -2.5384063091    1.4293453255
 C   -3.9990491232   -3.4144350637    1.2967637984
 H    0.7405090804    1.8777765017    0.7133756684
 H    0.7996216303    0.0419437308   -0.6754494671
 H    1.2985694901   -1.3653982097    1.2420198685
 H    0.1721923350   -0.4560635625    2.2727569570
 H   -0.6624655596   -2.7493603509    0.4551372564
 H   -2.0354292177   -1.2619431532    2.6198068749
 H   -3.4282565229   -0.2536133573    0.1482085491
 H   -2.3726633191    0.7316928200    1.1840386652
 H   -1.4583027371   -0.7283007607   -1.2916470710
 H   -4.7202391359   -4.1864500604    1.1928321982