17

 C   -0.0467515481    1.5056412609    0.0630238770
 C   -0.1481139050    0.0159023414    0.3414480001
 O    0.4436646900   -0.5337567071    1.2525769522
 N   -0.9531005033   -0.6894266874   -0.5119855285
 C   -0.9995133546   -2.1246566451   -0.4577285429
 C   -1.8633430854   -2.8080820727    0.6472610146
 N   -2.6465988256   -3.4052278414   -0.4453400129
 C   -2.0121382289   -2.7417924416   -1.4596472822
 O   -2.2047156137   -2.6397062718   -2.6425017126
 H    0.0073048757    2.0384854059    1.0136131452
 H    0.8808923902    1.7043634094   -0.4837098806
 H   -0.8837807233    1.8902132632   -0.5255815520
 H   -1.3484962168   -0.2456178782   -1.3263149700
 H    0.0023100259   -2.5600249082   -0.5183798893
 H   -1.3377868417   -3.5296274098    1.2766663251
 H   -2.4234599974   -2.1010954586    1.2644312043
 H   -3.4810133179   -3.9729124788   -0.4491142777