21

 C    0.0090410075    1.6070567466   -0.0625172658
 C   -0.0296152838    0.0778506857   -0.1617462546
 C   -1.4200892443   -0.5561238570    0.0272022381
 C   -2.4228083975   -0.1089358994   -1.0300611834
 C   -1.3180183215   -2.0948580246    0.2585579119
 C   -1.4801836027   -1.7827199610    1.7732941559
 N   -1.9635091906   -0.4327949702    1.4190683753
 C   -2.4237494086   -2.5976004834    2.5414207283
 N   -3.1572676371   -3.2564499846    3.1445279235
 H    1.0381605265    1.9701673604   -0.1380472177
 H   -0.5682901156    2.0827587302   -0.8601457381
 H   -0.3902626811    1.9647418219    0.8937428292
 H    0.3595230028   -0.2337393778   -1.1399608855
 H    0.6544838741   -0.3477976757    0.5843377417
 H   -2.0600120065   -0.3437102628   -2.0372989949
 H   -3.3810945944   -0.6109603742   -0.8761997676
 H   -2.6029300550    0.9691942178   -0.9780545811
 H   -2.1653900702   -2.6480059082   -0.1473558188
 H   -0.3859830067   -2.5803605542   -0.0323198063
 H   -0.5152275603   -1.8044224631    2.2971157500
 H   -1.5863672452    0.3211642436    1.9843849100