17

 C    0.1564643509    1.5616495956    0.1184744742
 N   -0.2202877796    0.1764774474   -0.1461373564
 C    0.5227516409   -0.4675274208   -1.1724554206
 C    1.8535361515   -1.3082179508   -0.9979089325
 C    1.0596351954   -2.4333823533   -0.2954609943
 C    0.2665952886   -1.9656707662   -1.5471152904
 O    1.5349696565   -1.9444227523   -2.2992622619
 C   -0.8989844396   -2.5616557266   -2.1533729971
 N   -1.8560603858   -3.0224554168   -2.6085969442
 H    1.1940188644    1.6942203022    0.4666349801
 H    0.0321075870    2.1506119604   -0.7960499073
 H   -0.5140884049    1.9776686621    0.8749296090
 H   -0.2552432570   -0.3604442726    0.7111713667
 H    0.5679383825    0.1615700967   -2.0642499609
 H    2.8834761008   -0.9924044227   -0.8426833059
 H    1.4918632863   -3.4296964918   -0.3868068895
 H    0.6316058322   -2.2530930506    0.6931339510