12

 N    0.1088086570    1.0229073404    0.0156441183
 C   -0.2306871429   -0.2783017573    0.0822639261
 O    0.5442474278   -1.2174978564    0.0771066494
 C   -1.7410983466   -0.4954579320    0.1701307931
 N   -2.5260607510    0.4934510409    0.2064640631
 O   -2.1570708419   -1.7836658100    0.3151561913
 C   -1.5457992773   -2.8367862281   -0.3558803679
 O   -1.7459263876   -3.9538327637   -0.0117636299
 H    1.0821896584    1.2752540627   -0.0124464063
 H   -0.6132689666    1.7242777752    0.0581815045
 H   -3.5001167764    0.1971077736    0.2878103358
 H   -0.9626249330   -2.5134662252   -1.2236052976