21

 O   -0.3808766273    1.4072956920   -0.1394743012
 C   -0.1182030751    0.0541604703   -0.0071581031
 C   -0.3588895739   -0.9290589461   -1.1168948898
 C   -1.1312829315   -1.0607473747    0.1817741825
 C   -0.2405880427   -1.7070939690    1.2530737611
 C   -0.9013744744   -1.9787458984    2.6301956788
 C   -0.9689143501   -3.4850726688    2.2608214446
 C    0.0894830987   -3.2208695390    1.1551850427
 C    0.7904058672   -0.5493769153    1.0704583007
 H    0.2538555688    1.7784096122   -0.7622255998
 H   -0.9405966882   -0.5319221627   -1.9430009938
 H    0.3885164932   -1.6688520151   -1.3976558410
 H   -2.2140155607   -1.0133361401    0.2042214414
 H   -0.2020098278   -1.7920124947    3.4516901496
 H   -1.8381268349   -1.4573271891    2.8466539347
 H   -0.7151828184   -4.2066597625    3.0406212926
 H   -1.9394104153   -3.7597881286    1.8385280795
 H   -0.0539040346   -3.7025514160    0.1839549390
 H    1.1041932660   -3.4361346164    1.5054717575
 H    1.8079083333   -0.8232943103    0.7669948617
 H    0.8394051176    0.0829087423    1.9614758722