14

 C   -0.1843188966    1.4136634376   -0.1039968322
 N   -0.0060825924   -0.0172641778    0.0449303601
 N    0.2941629407   -0.8103651622   -0.9729149214
 N    0.3869969358   -2.0174853366   -0.4733164540
 C    0.1402457843   -1.9040962192    0.8534731127
 C    0.1412411797   -3.0969022726    1.7620858892
 O    1.1061296410   -4.0491478761    1.3716589210
 N   -0.1097601969   -0.6495577047    1.2101329980
 H    0.5505694556    1.9424255601    0.5063702234
 H   -0.0407953817    1.6503189240   -1.1573110259
 H   -1.1902655839    1.6948108687    0.2139786551
 H    0.3750762169   -2.7790572205    2.7819179315
 H   -0.8721385756   -3.5318770016    1.7811784294
 H    1.0702607032   -4.1121300390    0.4096451532