19

 O   -0.0472071253    1.5277852487    0.1321665843
 C   -0.0757952079    0.1314904794    0.3760001721
 C   -1.3979156664   -0.5090227100   -0.0286528972
 C   -1.6323124030   -0.6472245186   -1.5745536319
 C   -1.7057886478   -2.1771337790   -1.3830839443
 O   -1.8815910311   -3.1075236125   -2.1192586661
 C   -1.4816551292   -2.0460486428    0.0933028729
 C   -0.6772004608   -3.0143409496    0.9399759205
 C   -2.1529090494   -2.9075385288    1.1412524525
 H   -0.1532915933    1.6638457137   -0.8151270361
 H    0.7570738787   -0.3854401039   -0.1290695659
 H    0.0828169149    0.0190920968    1.4542668085
 H   -2.2166668948    0.0128713906    0.4746880331
 H   -2.5501200890   -0.2015331926   -1.9667336214
 H   -0.7948960203   -0.3320911693   -2.2078450707
 H   -0.2866132067   -3.8879931699    0.4291340622
 H   -0.0215818656   -2.5905476154    1.6928340494
 H   -2.5177974024   -2.4018265949    2.0291215854
 H   -2.7845125203   -3.7089767218    0.7727544927