25

 C   -0.2315034249    1.7532129431    0.4095883300
 C   -0.1050317765    0.2269786031    0.4545721624
 C   -1.2756956307   -0.5279563027   -0.1956815994
 C   -1.4246662293   -0.1818121484   -1.7007104946
 C   -2.1219340524   -1.2908821254   -2.5250844718
 C   -1.8337522840   -2.6813853087   -1.9363902457
 C   -2.4333443953   -2.7595192156   -0.5063602092
 C   -1.1358997011   -2.0564114116   -0.0258480074
 C   -0.4328743636   -2.7085919186   -1.2547936989
 H    0.6022614692    2.2326585894    0.9321629846
 H   -0.2366368956    2.1312657598   -0.6174393636
 H   -1.1592380864    2.0858950846    0.8894535560
 H    0.8325356215   -0.0778863487   -0.0312965719
 H   -0.0222340927   -0.0939593824    1.5011416677
 H   -2.1941005872   -0.2280722418    0.3313846560
 H   -1.9431544290    0.7728437585   -1.8309050430
 H   -0.4184746460   -0.0298370319   -2.1103234671
 H   -3.2080222659   -1.1357412847   -2.5486048921
 H   -1.7796557299   -1.2338660795   -3.5651209628
 H   -2.0830511848   -3.4787951852   -2.6412285772
 H   -3.3869434869   -2.2520035877   -0.3239087196
 H   -2.4978404882   -3.7895835955   -0.1439202572
 H   -0.7608176219   -2.3078292545    0.9706116173
 H   -0.1187513616   -3.7318063558   -1.0318463443
 H    0.3972473031   -2.1818470399   -1.7340240283