17

 C    0.1550424612    1.6058690921   -0.0482286385
 C   -0.0628197194    0.0856943424    0.0488495722
 O   -1.4414791284   -0.2233875173    0.0959644290
 C    0.6465379203   -0.6325924081   -1.1099204254
 O    0.1414517751   -0.8264367635   -2.1854020833
 C    1.9805425161   -1.1209110573   -0.5499265879
 N    1.8016283115   -1.1354275307    0.9029835492
 C    0.7069732269   -0.5325653373    1.2023832209
 N    0.2416488976   -0.3604527748    2.4751054829
 H    1.2185515918    1.8640915802   -0.0519197284
 H   -0.3027191287    1.9798187628   -0.9690510143
 H   -0.3167512768    2.0958857809    0.8071577038
 H   -1.7033700788   -0.4274855337   -0.8135768423
 H    2.2295460444   -2.1150952372   -0.9373421402
 H    2.7960538810   -0.4497350893   -0.8577537136
 H    0.6740320967   -0.9476686075    3.1742183280
 H   -0.7604160504   -0.2697268417    2.5568132178