18

 C   -0.0640308222    1.5298816592    0.0607838705
 C    0.0628313506    0.0080082704    0.0189162998
 C    0.7927281947   -0.5168137414   -1.2890032541
 C    1.9189321882   -1.3094993549   -0.7067118204
 C    2.9825926194   -2.0737783962   -0.9491103444
 C    3.5858099390   -2.4604805295    0.3875472555
 O    2.7536883819   -1.8370987132    1.3912291990
 C    1.7807209877   -1.1691274974    0.7385714045
 N    0.8169922197   -0.4819094533    1.1992902155
 H    0.9240901113    1.9998758862    0.0058973083
 H   -0.6669436145    1.8945486812   -0.7779071421
 H   -0.5369703845    1.8472035684    0.9937154040
 H   -0.9448276760   -0.4235311153    0.0704332878
 H    0.1291478797   -1.1192283844   -1.9164767666
 H    1.1488886883    0.3157718766   -1.9048663062
 H    3.4031202565   -2.3996097777   -1.8912114104
 H    3.5872908742   -3.5442062236    0.5629498810
 H    4.6142854259   -2.0982721651    0.5150835384