25

 C   -0.0143876063    1.5113953916   -0.0903899197
 C   -0.0192475516    0.0553777533   -0.0501771022
 C   -0.0204006379   -1.1485474088   -0.0069773172
 C   -0.0312933457   -2.6126626493    0.0146660376
 C   -1.4792757989   -3.1423802911    0.0645109092
 C    0.7685661500   -3.1631610091   -1.1935884522
 C    0.9539976626   -4.6908242237   -1.2564405342
 C    1.6714864310   -5.0724835501   -2.5594705504
 C    1.7139515975   -5.2434769307   -0.0422264507
 H    0.3685231265    1.8836656980   -1.0473074296
 H   -1.0234405523    1.9182061053    0.0408332699
 H    0.6154568482    1.9312984107    0.7019955684
 H    0.4747358326   -2.9344344882    0.9350478270
 H   -2.0142400934   -2.8861541181   -0.8556364177
 H   -1.4996380073   -4.2294969032    0.1830177935
 H   -2.0215451541   -2.6990800580    0.9037406790
 H    0.2694228657   -2.8245169355   -2.1104123570
 H    1.7577567521   -2.6877289334   -1.1926867745
 H   -0.0380827734   -5.1612564903   -1.2786438225
 H    2.6769154129   -4.6359505451   -2.5953794147
 H    1.7784300328   -6.1586465672   -2.6491437733
 H    1.1230591348   -4.7148162634   -3.4372710060
 H    1.1796561475   -5.0683153826    0.8964272448
 H    1.8654676008   -6.3239187112   -0.1360242916
 H    2.7025126760   -4.7762930199    0.0450455542