15

 O   -0.0125667266    0.0093556421    0.1429564273
 C   -0.0634786944    1.2018541153    0.0580014163
 C   -1.3161479725    2.0903867526    0.0197703090
 C   -0.7423823364    3.4276781950    0.4797828890
 C   -0.0405486032    3.2603272282    1.8716449297
 C    1.2748070183    2.9981561697    1.1255169552
 C    0.6800793189    3.4430905315   -0.1601355734
 N    1.1040935130    2.0486411036   -0.0168656934
 H   -1.7044294378    2.1402149073   -1.0051837876
 H   -2.0949187731    1.6717299910    0.6611380956
 H   -1.3862642041    4.2962418966    0.3566571087
 H    0.0168867539    4.2097588836    2.4092888313
 H   -0.4232542920    2.4861532019    2.5446687150
 H    2.2812185419    3.0955465396    1.5140836579
 H    1.0698768640    4.0402337719   -0.9748306005