14

 O   -0.0951477047    1.4138935461    0.0121866160
 C   -0.0043239870    0.0047219239    0.0245180465
 C    0.4897567597   -0.6125702130    1.3840555965
 C   -0.8131761507   -1.3146181717    1.7937686833
 O   -1.2325267189   -1.9285207123    0.5255034437
 C   -1.4343274446   -0.5701433338    0.0255131382
 C   -1.9071804425   -0.2662483149    1.4688187694
 O   -2.8068599657    0.2784635055    2.0203149669
 H    0.7937146207    1.7800360799   -0.0221952019
 H    0.5709720317   -0.3728107205   -0.8290752185
 H    1.2985474793   -1.3348560800    1.2534753486
 H    0.8040322404    0.1668918099    2.0836511136
 H   -0.8406350634   -1.9817067723    2.6526033865
 H   -2.0516195044   -0.4901681968   -0.8656158188