18

 C    0.0556881835    1.4877073510   -0.2581303343
 C   -0.1173155620    0.0073240463   -0.0969318153
 C   -1.0208016387   -0.6301697946    0.8873995058
 N    0.4405834481   -0.7350151890    1.0913741777
 C    1.0315934147   -1.7489542532    0.1391183927
 C    0.1323191167   -2.4002679934   -0.8884049070
 C    0.5180676300   -0.9809767523   -1.0967565213
 C    2.4017697955   -2.2185141850    0.3841659762
 O    3.0242655904   -2.9330857959   -0.3700448646
 H    1.0902867070    1.7339060537   -0.5213431099
 H   -0.5956279813    1.8701326546   -1.0527272262
 H   -0.1915919868    2.0090832582    0.6703417514
 H   -1.4785789375    0.0315668278    1.6172752215
 H   -1.6156773172   -1.5078619411    0.6637636316
 H    0.6923430200   -3.1030162568   -1.4972494221
 H   -0.8789208620   -2.7123849206   -0.6576077513
 H    1.1270917197   -0.6544822368   -1.9298503670
 H    2.8379361900   -1.8375644830    1.3323207721