18

 C    0.0268220466    1.5515253878    0.0389609468
 C   -0.0774354213    0.0504480838   -0.0499375754
 C   -1.2156357221   -0.5953473561    0.2279070139
 C   -1.4730111124   -2.0691627472    0.1301963247
 C   -0.4544850084   -2.7964089116   -0.7321901764
 O    0.8480668560   -2.8295281360   -0.1297472953
 C    1.6942590681   -1.7907032107   -0.2648470569
 O    2.8876228780   -1.9534286331   -0.2284303699
 N    1.1461074628   -0.5257405999   -0.4541666162
 H    0.7755491802    1.8518183646    0.7824674516
 H    0.3332048975    1.9810962408   -0.9231214797
 H   -0.9303534090    1.9935413009    0.3172623724
 H   -2.0502664074    0.0204131989    0.5457288296
 H   -1.4939560238   -2.5402955379    1.1229389679
 H   -2.4686381406   -2.2381120367   -0.3024490471
 H   -0.7254751328   -3.8480149159   -0.8488802505
 H   -0.3882388365   -2.3434869247   -1.7275344785
 H    1.8982577952    0.1363492629   -0.5764622710