22

 C   -1.2364709542   -1.0649132937    0.1453081225
 C    0.1424465871   -0.4022201949    0.2049130990
 C    1.0449455317   -0.5773514539   -1.0152179356
 C    2.2856482084    0.3229311825   -0.9943745968
 C    1.8996391168    1.7789013960   -1.2586828988
 C    1.9834763480    2.2372965765   -2.6982973837
 O    1.5104601026    2.4991548940   -0.3653686476
 C    1.1483249441   -1.8920147384   -1.7002233993
 N    0.4827126685   -0.7575277759   -2.3690525706
 H   -1.8657578862   -0.6372554655   -0.6428628083
 H   -1.1787004369   -2.1468078215   -0.0133948966
 H   -1.7640479449   -0.9059808439    1.0901407155
 H    0.0187869516    0.6706860253    0.3861374822
 H    0.6911360388   -0.7866387627    1.0748398503
 H    2.7613291321    0.2629643824   -0.0103713975
 H    2.9934360955   -0.0229455816   -1.7526335425
 H    1.4329335254    1.5302182421   -3.3287917674
 H    1.5848757513    3.2474588429   -2.8006321226
 H    3.0271409848    2.2177654419   -3.0349687363
 H    2.0912683675   -2.1994305296   -2.1450923512
 H    0.5326397673   -2.7139119456   -1.3458882092
 H   -0.5252166092   -0.8783241364   -2.3214640857