17

 O    0.2247352412    1.5132287222    0.0408843463
 C    0.0781457105    0.1216847788    0.0268885262
 C    0.6874827333   -0.4556443706   -1.2376685268
 O    1.1408393544    0.2554399796   -2.0995814459
 C    0.7465226612   -0.5045834533    1.2701629843
 O    2.1280540443   -0.2281620891    1.2706749022
 C    0.0936575855   -0.0187855314    2.5583966188
 C    0.8265061530   -0.0593809924    3.8277948727
 O    0.6569199636    1.1700926536    3.1075425954
 H    0.6176283315    1.7409426282   -0.8175364232
 H   -0.9903858898   -0.1698993642    0.0233415896
 H    0.6807950929   -1.5604638070   -1.3310877821
 H    0.6351732826   -1.5958452303    1.2093733331
 H    2.1940093481    0.7201137119    1.4530962953
 H   -0.9962241785   -0.0586337755    2.5787527146
 H    0.2761628861   -0.1264492670    4.7642233880
 H    1.8416506000   -0.4479842534    3.8362654615