18

 C   -0.1092861917    1.4360800843    0.0617611035
 N    0.0077762072   -0.0028977357    0.0109990102
 C    0.0228050581   -0.7815539997   -1.1226990664
 N   -0.1055717949   -0.1698679319   -2.3901995969
 C    0.0892660943   -2.1064461346   -0.7422623070
 C    0.1103314584   -2.1465772277    0.6842584590
 N    0.2396614269   -3.2884115572    1.5070419784
 C    0.0747601207   -0.8439531045    1.1146579867
 O    0.0277799888   -0.3404720536    2.3881722223
 H    0.8687480803    1.9303290417    0.1359381905
 H   -0.6010788203    1.7753938054   -0.8515322177
 H   -0.7028246129    1.7218564910    0.9326813158
 H    0.7859489115    0.1445874847   -2.7644307650
 H   -0.5001647641   -0.8226726077   -3.0564234017
 H    0.1325049816   -2.9535613195   -1.4106861803
 H   -0.3094567416   -4.0632513993    1.1529182279
 H   -0.0810286246   -3.0829501345    2.4471647338
 H    0.9255628522   -0.2389694012    2.7274539367