19

 C   -0.1251492560    1.4808039527    0.0313374113
 C   -0.0112944863   -0.0063792485   -0.0513415025
 C    0.0507033367   -0.7807057156   -1.1340635213
 C    0.1322911363   -2.2506352087   -0.8085149120
 C    0.4521390782   -2.2510370521    0.7020368632
 C    0.0254385147   -0.8536955785    1.2257499829
 O    1.0182788816   -0.4053454011    2.1577715923
 C   -1.2945307217   -0.8570684161    1.8702543898
 C   -2.3712278120   -0.8190958770    2.4060883957
 H    0.7155305258    1.9020978701    0.5950684140
 H   -0.1355520304    1.9388676692   -0.9607869067
 H   -1.0436209196    1.7755211770    0.5546682173
 H    0.0188485405   -0.4095199083   -2.1536805958
 H   -0.8211974683   -2.7530554650   -1.0208211244
 H    0.8938983522   -2.7755003302   -1.3959963389
 H   -0.0209287161   -3.0638946472    1.2550230038
 H    1.5318369261   -2.3136122844    0.8623033331
 H    0.6102888497    0.2505882904    2.7325095447
 H   -3.3236473312   -0.8012489766    2.8759978835