16

 O    0.0034110551    0.0032619317   -0.3301253168
 C   -0.0039938963    1.1493777644    0.0268193922
 O   -1.1518785416    1.7363772527    0.4291110999
 C   -1.0921734604    3.0967412737    0.8792435012
 C    0.2563301090    3.7412662510    0.6855811375
 C    1.0976024402    3.4580762259   -0.5816296431
 C    2.3039964702    3.7801705554    0.3168402812
 N    1.4351840222    2.9289603356    1.2604267784
 C    1.2199435511    2.0304456016    0.0130131496
 H   -1.8634565210    3.6501631514    0.3322392398
 H   -1.3544494199    3.1055219435    1.9435150818
 H    0.2374413471    4.7731318501    1.0503988350
 H    0.9024212682    3.7428340847   -1.6200266895
 H    3.2618738146    3.3133127376    0.0755327559
 H    2.4319516284    4.8103218494    0.6602753118
 H    2.0926658529    1.4327484714   -0.2502454050