20

 O    0.0074848776    1.4769929211    0.2832365547
 C   -0.0173287000    0.0610017086    0.3904048921
 C   -1.3850931882   -0.4904684645    0.0377031074
 C   -2.5712396582    0.3973640187   -0.1109198230
 N   -2.0265411438   -0.3196034108   -1.2641291553
 C   -1.3591124958    0.4531583565   -2.3069865781
 C   -2.3891041739    0.8295873476   -3.3879882291
 C   -1.7902405967    1.5493513809   -4.5041479649
 C   -1.2687665147    2.1380747865   -5.4134428338
 H    0.9223904711    1.7671350414    0.3443683384
 H    0.7409109308   -0.3973200905   -0.2648191617
 H    0.2130405107   -0.2570608573    1.4198971989
 H   -1.5334683447   -1.4874101799    0.4521576366
 H   -3.5504938795    0.0744488003    0.2329552448
 H   -2.3815136543    1.4656207714   -0.0405829636
 H   -0.8661372185    1.3580832116   -1.9299914068
 H   -0.5876966936   -0.1810437536   -2.7587098846
 H   -2.8771046195   -0.0857671061   -3.7426670517
 H   -3.1776272003    1.4417819577   -2.9319848167
 H   -0.8224805085    2.6591381803   -6.2234405239