20

 C    0.2742209937    1.5423732252    0.1805320759
 C   -0.1439158435    0.0965441109   -0.1085154917
 C    0.6076601853   -0.5178230236   -1.2886517416
 C    2.0026911846   -1.1189453053   -1.0714973378
 C    0.8470633228   -2.0199911734   -1.4101195815
 C    0.2834127019   -2.9968044605   -0.4020621013
 O    0.7698768445   -2.4786451693   -2.7304074359
 C    0.4066959026    0.1928727972   -2.5297674514
 N    0.2175359059    0.8134310571   -3.4874868088
 H    1.3411617531    1.6041256682    0.4186292740
 H    0.0852967999    2.1877268793   -0.6820342211
 H   -0.2857697040    1.9407458328    1.0314243835
 H    0.0310570655   -0.5174672071    0.7795937829
 H   -1.2201146544    0.0538046224   -0.3120073741
 H    2.7437096723   -0.9444486155   -1.8425299603
 H    2.3776326618   -1.1056136403   -0.0530938553
 H    0.3600494916   -2.6344245600    0.6247714523
 H   -0.7656587225   -3.2130599278   -0.6240195318
 H    0.8407145322   -3.9393755856   -0.4585231244
 H    1.4286180667   -3.1724786647   -2.8469610815