23

 C   -0.1799629831    1.5078133011    0.1234110181
 C   -0.0577578194    0.0002742391    0.1033200052
 C    1.2511493375   -0.6634331480   -0.2680919227
 C    0.7414560942   -0.7258761598    1.1459309222
 C    1.4601260928   -0.1530320694    2.3781863868
 C    1.3711292625   -1.5663325028    3.0295163987
 C    0.8910171190   -1.6366239926    4.4632186751
 O    0.7437318499   -3.0062464627    4.8113113448
 C    0.3791748005   -2.0053706228    1.9117663966
 H    0.7442136806    1.9751448475    0.4794287311
 H   -0.3861809239    1.9042999475   -0.8771040229
 H   -0.9909257602    1.8358109947    0.7840827987
 H   -0.9536391558   -0.5185942710   -0.2330422026
 H    1.2238435808   -1.5687852957   -0.8671068767
 H    2.1021034908   -0.0191121214   -0.4731650749
 H    2.4631366394    0.2556270685    2.2286536827
 H    0.8602954162    0.5921699324    2.9146001789
 H    2.3194941011   -2.1048954723    2.9460175416
 H    1.6150506289   -1.1306754715    5.1241748078
 H   -0.0670543085   -1.0970034147    4.5552633156
 H    0.4043864019   -3.0545074512    5.7096718838
 H   -0.6591038104   -2.0180603787    2.2623129775
 H    0.5873233152   -2.9575211662    1.4172251448