16

 O   -1.0829306896    0.8597539484    0.3522574553
 C   -0.3700288945   -0.2801301257    0.1845985507
 N    0.0112055161   -0.6936123715   -1.0109295122
 N    0.6728697432   -1.8488692540   -0.7523759596
 C    0.6996896272   -2.1524557542    0.5655760226
 C    0.0298350348   -1.1457819042    1.2363796702
 C   -0.2153861639   -1.0304227830    2.6870591569
 C   -0.2370561869    0.2896742967    3.3783115978
 N   -1.4831536640   -0.4730745909    3.2090186922
 H   -1.2350721381    1.2351793675   -0.5242726818
 H    1.0625717752   -2.3682394902   -1.5183442238
 H    1.1840812129   -3.0427038882    0.9357958503
 H    0.1343160567   -1.8870494552    3.2589060888
 H    0.1224391272    0.3645765768    4.4012271795
 H   -0.0890083158    1.1768818665    2.7704184541
 H   -2.0080335505   -0.0713295289    2.4350753889