21

 C   -0.9535528974    1.3843141473    0.2259367283
 N   -1.1969614151   -0.0403149492    0.2966109875
 C   -0.4976376030   -0.9426714512   -0.4367214117
 O    0.3848853567   -0.6569259960   -1.2290204685
 C   -0.8633025863   -2.4115022850   -0.1625961892
 C    0.2108304212   -3.0339942962    0.7366114186
 N   -2.1814206023   -2.5236435835    0.4649272592
 C   -3.3251914197   -2.6638887817   -0.4359068193
 C   -2.8428493915   -3.8208254215    0.3653600786
 H   -0.6016995426    1.7801907188    1.1858122448
 H   -0.1824534858    1.5473693127   -0.5284655206
 H   -1.8590550256    1.9297919938   -0.0629281185
 H   -1.8916362848   -0.4176541871    0.9240608780
 H   -0.8363396003   -2.9111737477   -1.1446523889
 H    0.0346970168   -4.1058006094    0.8672787550
 H    1.1944290633   -2.8918574946    0.2837729060
 H    0.2031118235   -2.5615941752    1.7234613505
 H   -4.2250043750   -2.1295752957   -0.1457497676
 H   -3.1283268928   -2.6793361346   -1.5061138756
 H   -2.3233806905   -4.6128751174   -0.1708421535
 H   -3.3842034687   -4.1474411068    1.2483150669