16

 C   -0.0146503793    1.5212517939   -0.0102825427
 N    1.3249749408    2.1539537459   -0.0856857259
 C    2.2154841887    1.3832081978   -0.8335705929
 C    2.0866295596    0.0315432039   -1.1194859027
 C    3.2368533694   -0.2655712105   -1.8887202527
 N    4.0137568985    0.7992138911   -2.0604284244
 N    3.3653051027    1.8005861755   -1.4049491578
 C    0.9865222354   -0.6958756475   -0.5168166755
 C    0.0038957402    0.0049145411    0.0693540123
 H   -0.5354166138    1.9547210867    0.8475426986
 H   -0.5776664426    1.8332191440   -0.9038688163
 H    1.6911780926    2.3781228055    0.8344324127
 H    3.5318739746   -1.2110879565   -2.3213965555
 H    3.7497642170    2.7301153510   -1.4165292093
 H    0.9956337397   -1.7810554736   -0.5028720621
 H   -0.8213720535   -0.4861879382    0.5741514843