25

 C    0.4327035616    2.1929645970   -0.8079162899
 C    0.2169927583    0.6842065088   -0.6705950909
 C    0.9215610223   -0.1301396213   -1.7660479634
 O    2.3191440943    0.1691650312   -1.8042869973
 C    0.6497638399   -1.6367986101   -1.6240304594
 C    1.0910126438   -2.5073841139   -2.7945838090
 C    2.5884988119   -2.6668512784   -2.9952713080
 C    0.2288156622   -3.7069263097   -3.1165447110
 C    0.2156420584   -2.5010011726   -4.0268352711
 H    1.4996581610    2.4294429865   -0.8173765219
 H    0.0033461905    2.5674041283   -1.7438978723
 H   -0.0368263398    2.7378175228    0.0166144938
 H    0.5810229269    0.3413912998    0.3096081754
 H   -0.8554560432    0.4535282933   -0.6927586697
 H    0.5520957331    0.2019456842   -2.7450542050
 H    2.7052551919   -0.1481106001   -0.9797334636
 H    1.1271758388   -1.9933108867   -0.6972888624
 H   -0.4292254733   -1.7681756525   -1.4743943009
 H    3.0566993256   -3.1033836394   -2.1035566220
 H    2.7986316081   -3.3365721442   -3.8355797551
 H    3.0688779935   -1.7049610616   -3.1863906404
 H    0.7212159993   -4.6075355072   -3.4686326544
 H   -0.6490728863   -3.8940378395   -2.5063621771
 H   -0.6720788254   -1.8762189221   -4.0277948305
 H    0.6950217667   -2.5839461425   -4.9964459640