14

 N   -0.0577060469    1.3587934738    0.0894914426
 C    0.0259885830    0.0985512227   -0.0150844370
 N   -1.0607271230   -0.7469082342   -0.1702334326
 C   -0.7060904827   -2.1426564168   -0.0402076516
 C   -1.2000177275   -2.9827587133   -1.2207552700
 O   -1.6128983351   -4.1028888679   -1.1144634819
 C    0.8423086890   -2.0877978766   -0.0242332380
 O    1.6067780156   -3.0152182091   -0.0266602075
 N    1.1502878655   -0.7452956232   -0.0118496062
 H    0.8539133777    1.7979224199    0.1861140018
 H   -1.9585916688   -0.3968608741    0.1218997335
 H   -1.0482285956   -2.6190378037    0.8871825023
 H   -1.1489254994   -2.4449831293   -2.1926344259
 H    2.0999483382   -0.4096357982    0.0100956307