17

 C    0.1595076920    1.5248928420   -0.3885161647
 C   -0.0155158669    0.0865364350    0.0211079533
 O    1.1465452344   -0.7457453161    0.0713830540
 C    0.4457225265   -0.5004051009    1.2994766387
 C    1.1450654820    0.1947579120    2.3886814890
 C    1.0948717345    0.0022563720    3.7379050534
 C    1.9752576705    0.9684433691    4.3212261460
 C    2.4987902854    1.6694313470    3.2832396455
 O    2.0043097819    1.2136201633    2.1014415377
 H    1.0207256081    1.9772113500    0.1019819548
 H    0.2980882188    1.5880013239   -1.4731110672
 H   -0.7377666562    2.0992727806   -0.1332863857
 H   -0.8777274831   -0.4098184074   -0.4326244621
 H   -0.1136269497   -1.3592301227    1.6740282451
 H    0.5046952005   -0.7404574969    4.2518013918
 H    2.1921617739    1.1116012534    5.3679517145
 H    3.2079542274    2.4771897556    3.2100596258