15

 N   -0.0564793083    1.2484067121   -0.4473149020
 C   -0.0186856977    0.0497531941   -0.0924641864
 O    1.0380734505   -0.7311338183    0.3525984295
 C    0.1507686278   -1.8839684859    0.5669053380
 C   -1.0548785072   -1.0619917442    0.0757933204
 N   -1.9766336448   -0.9675928800    1.2056396546
 C   -1.2143735635   -1.1038269760    2.4511687083
 C   -0.0825520949   -2.0620281626    2.0728346497
 O    0.5114336798   -2.8096018605    2.7990094225
 H    0.8587119297    1.6982916889   -0.3846043333
 H    0.5007179402   -2.7715270506    0.0429966731
 H   -1.5655160263   -1.3624553409   -0.8400908967
 H   -2.5262333174   -0.1170114462    1.1685461862
 H   -0.7592387408   -0.1678380316    2.8192855626
 H   -1.8228905971   -1.5214932483    3.2568663733