19

 C    0.0919226369    1.6123554673   -0.0806742668
 C   -0.0372241460    0.1201949889    0.0727571159
 O    1.1644735448   -0.6648668887   -0.1082438804
 C    0.5671757735   -0.6266601898    1.1742739766
 C    1.3048869430   -0.1427537187    2.4148216438
 O    0.3110617319   -0.0852044619    3.4533213118
 C    0.8988806812   -1.3549557171    3.1459267270
 C    0.1491807711   -1.9268409107    1.9217657989
 C   -1.3247293003   -2.2658556494    2.0850845759
 H    0.9763605204    1.9850616188    0.4418572751
 H    0.1761459237    1.8859242667   -1.1374882289
 H   -0.7916730468    2.1130819350    0.3290605508
 H   -0.9105360060   -0.3252717154   -0.4069927386
 H    2.1797187692    0.4897190859    2.5054950476
 H    1.3930823028   -1.8834163038    3.9528965242
 H    0.7116981529   -2.7592837386    1.4842229522
 H   -1.8539547999   -1.4383989854    2.5650935863
 H   -1.7942482765   -2.4599090052    1.1151726909
 H   -1.4564844957   -3.1620738277    2.7008425177