18

 C   -0.2226152580    1.5270016343   -0.1002589442
 C   -0.0636909940    0.0441457798   -0.0545340049
 N   -0.0515485423   -0.7645693034   -1.1042729480
 C    0.1116811335   -1.9922750197   -0.5440841222
 N    0.1997113601   -2.0035050184    0.7739736656
 N    0.0818190353   -0.6828944119    1.0809715170
 C    0.1709519412   -0.2556953315    2.4630322421
 C    1.6093165194   -0.3287895912    2.9986918184
 O    1.6752050459    0.0990305433    4.3451793870
 H    0.6423739278    2.0459494829    0.3261780763
 H   -0.3273382632    1.8287685176   -1.1427177505
 H   -1.1116555447    1.8578695138    0.4475992508
 H    0.1631818798   -2.9029497181   -1.1223913071
 H   -0.2004099742    0.7686156338    2.5389918434
 H   -0.4822775973   -0.8997713788    3.0604445781
 H    1.9941520641   -1.3473344681    2.8592893150
 H    2.2500348704    0.3486368384    2.4244766727
 H    1.3193625662   -0.6016363629    4.9006835904