20

 C    0.3115971264    1.4579171771   -0.4307258832
 C    0.0451607424    0.0048480244   -0.0655554207
 O   -1.3479713922   -0.2127289201    0.1153052224
 C    0.7343744816   -1.0891586675   -0.9448045344
 N    1.4227500717   -1.6888892863    0.2390231586
 C    2.7585713478   -1.0676043118    0.5129626046
 C    2.1466810865   -0.1981707206    1.6472924210
 O    2.3815170012    1.1906232279    1.6631368548
 C    0.7638205968   -0.6593126724    1.1458371049
 H    1.3767143882    1.6735063929   -0.5149471986
 H   -0.1645588663    1.6829256458   -1.3949262496
 H   -0.1092572262    2.1244006214    0.3268981405
 H   -1.8056105652    0.1540796469   -0.6492732693
 H    0.0154266693   -1.7848353300   -1.3883502032
 H    1.4172996347   -0.7295663805   -1.7234616263
 H    3.5190058907   -1.7965994457    0.8100942376
 H    3.1491866632   -0.4660993629   -0.3174697417
 H    2.3450060968   -0.6355886496    2.6347628032
 H    3.2264479182    1.3503143557    2.0947971301
 H    0.0577437745   -1.0195392646    1.8973189793