18

 C    0.0088270921    1.5716910083    0.0079261523
 C    0.0530689138    0.0697446175    0.0501935471
 C   -1.2387729816   -0.8039126676    0.1777726707
 C   -0.3408826146   -1.8681504813    0.8082478432
 C    0.9970999990   -1.8576974908    0.0376101200
 C    0.7057169710   -0.8675885897    1.1741563419
 C    0.8933235194   -0.7379643401   -0.9284472699
 N    1.4308535697   -0.3744315421   -2.0148858691
 O    2.2647954269   -1.3988014582   -2.5336406913
 H    1.0171890762    1.9963997386    0.0062596937
 H   -0.4934943600    1.9116315244   -0.9038920542
 H   -0.5371079835    1.9751490935    0.8668397896
 H   -1.9311904400   -0.3831665322    0.9130706653
 H   -1.7720485731   -1.0404831348   -0.7495646166
 H   -0.6310304072   -2.7563483021    1.3551917719
 H    1.6726980199   -2.6993316990    0.0385123838
 H    1.2795090453   -0.6601351444    2.0649928335
 H    2.6038322069   -0.9881798899   -3.3355174720