17

 C   -0.4143457482    1.3892692107    0.2247956648
 C   -0.0296935524   -0.0601243828    0.0228008035
 C    0.6162215846   -0.5946304073   -1.2080296691
 C    1.2362500224    0.3666133312   -2.1968617501
 C    2.3083490102    1.1207692656   -1.3921795226
 O    2.9546607447    2.0599911952   -1.7719222567
 C    2.4048336810    0.4496773282   -0.0118959131
 N    1.3569154527   -0.5653538738    0.0921586446
 H    0.1886603059    2.0955229296   -0.3503609256
 H   -1.4584828567    1.5348750696   -0.0710486246
 H   -0.3310436813    1.6656768821    1.2816866844
 H   -0.7097388099   -0.7442638829    0.5284896878
 H    0.3435920597   -1.5843476866   -1.5630948472
 H    1.7273696650   -0.1649037660   -3.0199346840
 H    0.5409614216    1.0800069460   -2.6488375820
 H    3.3852349401   -0.0346174601    0.0764397085
 H    2.3475595707    1.2027187314    0.7805760414