18

 O   -0.0595878035    1.3908202468    0.0724603114
 C    0.0166644460    0.0021238714    0.0156956846
 C   -0.5926753189   -0.7977249538    1.1303833375
 C    0.8982205198   -0.8853228640    0.8590659399
 N    1.4108226545   -1.9125726672   -0.0682614124
 C    0.2731721664   -2.2373178760   -1.0514970363
 C    1.3248663218   -2.4224947026   -2.1579461718
 C    1.7093729206   -1.1582411918   -1.3816544885
 C    0.1966082941   -0.7086848102   -1.3223122637
 H    0.7707265614    1.7518679830   -0.2586515890
 H   -0.8544816122   -0.2221623762    2.0126472140
 H   -1.2556419149   -1.6321075146    0.9310303745
 H    1.6012623406   -0.5183847832    1.5973318224
 H   -0.5337546170   -2.9182341264   -0.7778596287
 H    1.9919784037   -3.2775054380   -2.0409548965
 H    0.9834945280   -2.2901644461   -3.1856994626
 H    2.5988808853   -0.5312107008   -1.4810042619
 H   -0.3225715758   -0.3145271503   -2.1987164928