17

 O   -0.2888429362    0.5441593160    1.1234999686
 C   -0.1753770837    1.4021617955    0.2934317319
 O   -1.2759389360    1.8945289226   -0.3331565823
 C   -1.0791727480    2.9883714686   -1.2414366557
 O   -0.2788910138    3.9782155933   -0.6895474961
 C    1.0501933996    3.5073960630   -0.5208045871
 C    1.7087464921    3.8811138143    0.8251959274
 C    2.0989238945    2.3862050876    1.0281076113
 C    1.1503603095    2.0029866417   -0.1408589171
 H   -0.6600765619    2.5989813736   -2.1824548887
 H   -2.0704791060    3.4073103886   -1.4163893690
 H    1.6524296891    3.7711003695   -1.3991954165
 H    2.5178830562    4.6121698871    0.7899344145
 H    0.9516751594    4.2186641463    1.5364575357
 H    3.1456072019    2.1798085970    0.7973617635
 H    1.8521492842    1.9325624396    1.9881287905
 H    1.5689352192    1.3437841359   -0.9074443408