14

 O   -0.6814128687    1.7576559320    0.4686108748
 C    0.2415530876    1.0237532215    0.2071918143
 C    1.4344555597    1.3674347801   -0.6549283474
 C    1.3773002141    2.6389716716   -1.4384677454
 C    2.1149732895    3.0840542330   -2.5088914751
 N    1.7252517357    4.3478058294   -2.8813227446
 C    0.7591862410    4.6676775980   -2.0488690208
 N    0.5149369452    3.6760293163   -1.1503306099
 H    0.2851280087    0.0009405320    0.6400017316
 H    2.2897101185    1.3529429338    0.0442763502
 H    1.6188899726    0.5113166018   -1.3173813172
 H    2.9067667809    2.5636377342   -3.0277543676
 H    0.2033552261    5.5933220553   -2.0492602894
 H   -0.2160399609    3.6103956910   -0.4581861136