22

 C    0.1686529708    1.5215774143   -0.2604102916
 C    0.1094668407    0.0147981618    0.0062902956
 C    0.7673100247   -0.4826402386    1.2869754912
 C    1.7585218534    0.3493455702    2.0216570268
 N    0.4213184339    0.1088340922    2.5955960641
 C    0.9325363423   -1.9848157021    1.3905790675
 C   -0.2678134710   -2.9285116313    1.1337659111
 C    0.6593470125   -3.5823313581    0.0918952739
 O    1.6549119420   -2.5512508674    0.2668548083
 H    1.1920676187    1.8620364843   -0.4421418624
 H   -0.4232221661    1.7694425984   -1.1462456582
 H   -0.2391961205    2.1091834062    0.5706940853
 H   -0.9432419694   -0.2986637540    0.0152452116
 H    0.5805444704   -0.5192939147   -0.8259240783
 H    2.5772310565   -0.1293143329    2.5525490032
 H    1.9885881101    1.3398584275    1.6430305259
 H   -0.1608817444    0.9320118131    2.4587666072
 H    1.4423377319   -2.2081283909    2.3367676628
 H   -0.5748852058   -3.5472584798    1.9773424057
 H   -1.1460151731   -2.4409098996    0.7085451727
 H    1.0451304041   -4.5702561025    0.3755723677
 H    0.2947009082   -3.6280038261   -0.9406146801