15

 O   -0.1213465274    0.0601173891   -0.2351187241
 C   -0.0532004726    1.2421629666   -0.0466339483
 N   -1.0018310660    2.2202888010    0.1750342272
 C   -0.0529031959    3.3421859967    0.0786670411
 C    1.0906485382    2.2965032165   -0.0008461563
 C    1.8131025212    2.5288050784   -1.3396642557
 N    0.9328109627    3.4576655404   -2.0328058281
 C   -0.0694432060    4.0253891505   -1.2965184777
 O   -0.8488590568    4.8741876920   -1.6702915403
 H   -1.9946352637    2.2095660184   -0.0179219590
 H   -0.1000446434    4.0540333714    0.9036016965
 H    1.7585200114    2.2043482178    0.8537588607
 H    2.8096948992    2.9610807201   -1.1856711355
 H    1.9327036244    1.5926062164   -1.8956567334
 H    1.0844247149    3.7482560346   -2.9862653670