20

 C    0.7375288266    1.1702873582   -1.2126585213
 C    0.0050942428   -0.0866670542   -0.7299089618
 N    0.7238526009   -1.3490989001   -0.6916440092
 C    1.9257080229   -1.4128985576   -1.0473757308
 O    2.5814148367   -2.5989296199   -0.9839047143
 C    3.9349935993   -2.5784787637   -1.4489399329
 C    4.0530460805   -2.4421350482   -2.8972348631
 C    4.1359573157   -2.3244371738   -4.0925337307
 C    4.2361200610   -2.1904341045   -5.5379145929
 H    1.5988569600    1.4098413435   -0.5796843368
 H    1.0913842422    1.0663910136   -2.2440156408
 H    0.0554842634    2.0253023646   -1.1805739076
 H   -0.3840733350    0.0893272215    0.2819517260
 H   -0.8849929853   -0.2463341056   -1.3531530332
 H    2.5425037779   -0.5850222259   -1.4164360769
 H    4.4941778099   -1.7781572809   -0.9431934355
 H    4.3578180899   -3.5303770792   -1.1152740147
 H    4.9201613655   -2.9358081911   -5.9577745242
 H    3.2589908990   -2.3340100532   -6.0116546397
 H    4.6037899361   -1.1993229035   -5.8246298796