17

 N    0.3625588964    1.2692298751    0.6637550702
 C    0.2383897222    0.0925229568    0.1832067952
 C    1.3793155560   -0.8923633797   -0.0439814538
 O    1.1251657898   -1.8502474855   -1.0556044763
 C   -0.0910745167   -2.5327274853   -0.8240879912
 C   -1.2636355066   -1.5511397632   -0.9335489386
 N   -1.0176611140   -0.4110906197   -0.0755404826
 C   -1.4759473240   -1.1621607799   -2.4069818602
 O   -1.8100383458   -1.9528314522   -3.2476913989
 H    1.3419047780    1.4848579576    0.8435630638
 H    2.2745157689   -0.3445525896   -0.3457532458
 H    1.5910610329   -1.3971368595    0.9142859442
 H   -0.1869773532   -3.3031298741   -1.5913407925
 H   -0.0924426417   -3.0047772173    0.1706034333
 H   -2.1764683150   -2.0677273039   -0.6102661144
 H   -1.7566317510    0.2686445262    0.0409079700
 H   -1.3040341161   -0.0860388460   -2.6363989125