15

 C   -0.0117924213    1.3906954209    0.0149870171
 C    1.4239370720    1.9304922294    0.0245208121
 O    2.1299677096    1.5529732679    1.2045888184
 C    1.9240508776    0.2209806073    1.4510272419
 C    0.9019405902   -0.4996838941    0.8766136263
 N    1.0023209630   -1.7656438978    1.3382565575
 N    2.0508133062   -1.9129950350    2.1894657163
 C    2.6109299536   -0.7044455369    2.2591670231
 O   -0.0374263612   -0.0496568586    0.0171834098
 H   -0.5547213422    1.7585576338    0.8943525639
 H   -0.5335270545    1.7045198297   -0.8913404866
 H    1.9564465375    1.5593167831   -0.8626498281
 H    1.4080833038    3.0228252333    0.0001200593
 H    0.4263080685   -2.5568334113    1.1095772982
 H    3.4768554774   -0.5433170118    2.8827138509