21

 C   -0.5785503716    0.7560809680   -1.7194291006
 C   -0.0041842877    0.0840301988   -0.4660686777
 C   -1.0841995827   -0.2429489829    0.5367978288
 O   -1.9659876047   -1.3348338680    0.2586951522
 C   -1.1163609239   -1.4399475016    1.4034587008
 C   -0.0327373595   -2.4938971885    1.4188527883
 O    0.7274906842   -2.5359801236    2.3604535973
 C   -0.0029559828   -3.4963168521    0.2804828503
 C    1.1940557157   -4.4407483381    0.3412333299
 H    0.2146883919    1.0005101376   -2.4314379651
 H   -1.2944913875    0.0957420170   -2.2177013158
 H   -1.0999312219    1.6856061898   -1.4665891445
 H    0.5451020837   -0.8199037761   -0.7443244284
 H    0.7173641298    0.7510572541    0.0222706087
 H   -1.6046084779    0.6341270252    0.9299734874
 H   -1.6144363328   -1.3398783442    2.3687545287
 H   -0.9531860597   -4.0484582674    0.3323211106
 H   -0.0633377434   -2.9605762357   -0.6729312620
 H    1.1458669225   -5.1774392730   -0.4652742215
 H    2.1341461689   -3.8897379275    0.2479377997
 H    1.2238034893   -4.9701458316    1.2965288528