21

 C   -0.5234240247    1.1391377327   -0.4011354177
 C    0.2832166944   -0.1231682631   -0.1079685096
 C    0.9570553178   -0.6931899018   -1.3405873118
 O    0.8727695091   -0.2331589811   -2.4531377970
 O    1.6759068850   -1.7888624074   -1.0191244540
 C    2.3751085638   -2.4598696873   -2.0931834691
 C    1.5780483360   -3.6132234726   -2.6376515252
 C    0.5287772312   -3.3738560054   -3.6953066490
 C    1.8205731532   -4.0571622369   -4.0607419559
 H    0.1159637065    1.9272056047   -0.8068895145
 H   -1.3047765779    0.9414211743   -1.1391457077
 H   -0.9953346513    1.5122756886    0.5120518768
 H    1.0615096241    0.0601146844    0.6420439779
 H   -0.3473133857   -0.9134356329    0.3168246391
 H    2.5958082657   -1.7331508572   -2.8787426956
 H    3.3107936983   -2.8029572409   -1.6426088344
 H    1.3730437983   -4.3968721024   -1.9138665689
 H   -0.3745533740   -3.9724840967   -3.6580823385
 H    0.3816144698   -2.3513692012   -4.0222704469
 H    2.5402669998   -3.4994511422   -4.6510560940
 H    1.8062173306   -5.1206230558   -4.2708359341