14

 N    0.1049244672    1.3139049055    0.1446216043
 C   -0.0493144187   -0.0491068833    0.0410033563
 N   -1.1444283716   -0.7370205606    0.0238517459
 C   -0.6880418894   -2.0667511938    0.0329621817
 C    0.6744888136   -2.0450531174    0.0451237847
 N    1.1981458578   -3.2937157697   -0.0338479498
 C    0.1015929306   -4.1612038145   -0.0602837164
 C   -1.0746164307   -3.4373058259   -0.0301015756
 O    1.1448308496   -0.7666520703    0.0438173634
 H    0.8987956163    1.6814377224   -0.3618106449
 H   -0.7529852061    1.8031460036   -0.0680868297
 H    2.1623988607   -3.5667482339    0.0248342197
 H    0.2657597906   -5.2258311979   -0.0806240056
 H   -2.0671656498   -3.8581658543   -0.0533366940