17

 C   -0.0161961326    1.5146405600    0.1761439633
 C   -0.0292407123    0.0254269969    0.0308120960
 C    1.1262050096   -0.8309531879   -0.3534245641
 C    0.5880777011   -1.0465321611    1.0471107140
 O    1.3427382299   -0.8284248668    2.1698041012
 C   -0.7498781681   -1.6831819713    1.0391127148
 O   -1.3903811362   -2.2642047221    1.8789270698
 C   -1.2992303479   -0.8301017983   -0.1432259431
 O   -2.5071315767   -0.2164023075    0.2154532667
 H    0.8876855210    1.8479211883    0.6949105356
 H   -0.0488433520    2.0050031782   -0.8034666016
 H   -0.8901712214    1.8413115060    0.7449489820
 H    1.0253955718   -1.5985842441   -1.1182187384
 H    2.0915323982   -0.3314355299   -0.3462293301
 H    2.1609282906   -1.3327084077    2.1073424204
 H   -1.3801414030   -1.3115991112   -1.1268356761
 H   -2.8697890121   -0.7322328314    0.9492819996