21

 C    0.0597520499    1.5763327125   -0.0900129897
 C    0.0697888100    0.0724917518    0.0501016980
 O    1.0039071138   -0.5797792864   -0.8506877093
 C    1.3920038538   -1.5066662834    0.1888653004
 C    2.8832438501   -1.7878163900    0.2542796760
 C    3.6507121980   -0.6285779592    0.9014512884
 C    2.9381579884   -0.2042553010    2.1830741651
 O    1.6427162787    0.3072382330    1.9004335271
 C    0.7581420869   -0.5924371872    1.2677332316
 H    1.0396637192    1.9895329600    0.1519793861
 H   -0.2023563946    1.8481037539   -1.1173238449
 H   -0.6831153696    2.0184824751    0.5819983409
 H   -0.9398374251   -0.3408521444   -0.0980388821
 H    0.8260473940   -2.4449914736    0.0861267070
 H    3.0326161022   -2.6988468892    0.8488082787
 H    3.2467933135   -2.0027116848   -0.7566586695
 H    4.6820721051   -0.9242757188    1.1220558647
 H    3.6875359652    0.2298407539    0.2224570653
 H    2.8770343612   -1.0528985019    2.8865561480
 H    3.4667829990    0.6086358300    2.6887048413
 H    0.1112590402   -1.0775391404    2.0103841969