15

 O    0.0435439266    1.3685144459    0.0468838516
 C   -0.0330437398   -0.0308907390    0.0687040295
 C   -1.4700959554   -0.5479637259   -0.1023430961
 C   -1.6016420126   -2.0942483273    0.1060759349
 N   -2.3912428608   -2.2436473588    1.3331272334
 C   -2.6882793505   -1.0764212280    1.7122843907
 O   -2.2594786153    0.0010933531    0.9949467563
 C   -2.0618890389   -0.0870444787   -1.3631265747
 N   -2.5144058203    0.2273876272   -2.3780962409
 H   -0.5297342972    1.7019335604    0.7470211097
 H    0.5827844930   -0.4035102718   -0.7558348117
 H    0.3527061722   -0.4610592177    1.0066986711
 H   -2.1048566614   -2.5840811662   -0.7309156345
 H   -0.6183948439   -2.5610108212    0.2279348341
 H   -3.2757891955   -0.8200309021    2.5860705867