17

 O    0.1083693845    1.3485630596    0.1131846906
 C    0.0745983502   -0.0331023829    0.0894203480
 C    0.8868275188   -0.7724564896    1.1248113257
 N    0.5860469396   -2.1690713011    0.7641950548
 C    0.3727883878   -2.1981856130   -0.7054356238
 C   -0.7960945433   -2.1855410132    0.2205462081
 C   -1.3177345753   -0.7565615623   -0.0407942737
 N   -1.2006286260   -0.5061671369   -1.5138710185
 C    0.2567176899   -0.7735929215   -1.2880599469
 H   -0.4617237056    1.6434128209   -0.6104705369
 H    1.9612028769   -0.5818192210    1.0421842507
 H    0.5631759435   -0.5666988797    2.1496849660
 H    0.7430130564   -3.0551911784   -1.2549266900
 H   -1.4270440386   -3.0317152280    0.4641799055
 H   -2.2211049379   -0.4159127333    0.4650997828
 H   -1.6641549560   -1.2104111917   -2.0893748349
 H    0.9603191052   -0.4503268278   -2.0551924076