22

 C   -0.0264545080    1.5650467599    0.0805731881
 C   -0.0256969205    0.0341586186    0.0550643009
 C   -1.4199012691   -0.5767620955   -0.0263480720
 C   -1.4359720954   -2.0992607856   -0.0999967199
 C   -2.8876220079   -2.5838713539   -0.0456573081
 N   -3.6764452092   -1.9361651375    0.9953775714
 C   -3.2584557412   -0.8473062267    1.4924554791
 C   -3.9848003062   -0.1523307809    2.6072234184
 O   -2.1433229420   -0.1418177372    1.1426367994
 H    0.9930606311    1.9559980312    0.1472666981
 H   -0.4823328049    1.9752274403   -0.8275461084
 H   -0.5925519327    1.9383579349    0.9375032393
 H    0.5479259058   -0.3285532334   -0.8067810454
 H    0.4697282074   -0.3576945335    0.9518925446
 H   -1.9458819472   -0.1673015585   -0.9030484192
 H   -0.9381727820   -2.4362876466   -1.0153340821
 H   -0.8722581292   -2.5023046979    0.7502452220
 H   -3.3815155261   -2.4170216903   -1.0132930965
 H   -2.9248068677   -3.6655455486    0.1267106195
 H   -4.8516564501   -0.7421838530    2.9018796874
 H   -3.3187368789   -0.0179688887    3.4656841012
 H   -4.3058168760    0.8450649828    2.2895137520