21

 C    0.0101526339    1.4940364041    0.2874275141
 C    1.3476546551    2.1977913006   -0.0697508186
 C    2.2947106865    1.3703517682   -0.9555277111
 C    2.5345121200   -0.0181113614   -0.3518974888
 C    1.2227145633   -0.7742267086   -0.3372865282
 C   -0.0370012659    0.0063584177   -0.0375589451
 C    0.2503538784   -0.4563756179   -1.4501067249
 C    0.6232269782    0.5665818836   -2.5120357702
 O    1.8582624320    1.2415898253   -2.3056964849
 H   -0.1909646716    1.6272927403    1.3557054191
 H   -0.8201726392    1.9891354167   -0.2315596726
 H    1.1565349145    3.1572449942   -0.5596284797
 H    1.8981637804    2.4238329491    0.8506340795
 H    3.2439628121    1.9088967686   -1.0396731059
 H    3.2781748076   -0.5488296682   -0.9567904285
 H    2.9411767915    0.0784630089    0.6628893902
 H    1.2669107728   -1.8027809488    0.0083302458
 H   -0.8249674895   -0.5344284695    0.4791791828
 H   -0.3628456024   -1.2689878235   -1.8280549563
 H    0.7173733660    0.0684202461   -3.4837722299
 H   -0.1892200938    1.3066783043   -2.6119773468