17

 C   -0.0534087218    1.4672210885    0.0464047238
 C   -0.0021174467    0.0145363922    0.0017835511
 C    0.0312313480   -1.1905732965   -0.0370992842
 C    0.0767566278   -2.6049706573   -0.0814309699
 C    1.1779120556   -3.4136048765    0.1122734326
 N    0.7317454125   -4.7044767951   -0.0275539495
 C    1.5230750800   -5.9125782201    0.0878856203
 C   -0.6056851140   -4.6236642081   -0.2969819332
 N   -1.0383984433   -3.3885904751   -0.3383345834
 H    0.6083768553    1.9160246163   -0.7034371631
 H   -1.0685137709    1.8298261473   -0.1496314479
 H    0.2506062248    1.8502451059    1.0274857118
 H    2.2073719808   -3.1837496963    0.3307297102
 H    1.9679677164   -5.9947420314    1.0842528592
 H    0.8757621581   -6.7759532727   -0.0767110908
 H    2.3230430977   -5.9286978511   -0.6585854389
 H   -1.2037972104   -5.5102912699   -0.4524452583