16

 C    0.0857664978    1.4440827613    0.0994383215
 N   -0.2082442926    0.0476823975   -0.1668224905
 C    0.5086265122   -0.6381220657   -1.1241411172
 C    0.6789516337   -2.0084220339   -1.1921068675
 O    1.4037422385   -2.3250359646   -2.3264292415
 C    1.6863090264   -1.1650640202   -2.9446013609
 C    1.1770696986   -0.0974692176   -2.2705208049
 C    0.2496429034   -3.0233813148   -0.3334186202
 C   -0.1377883529   -3.8598735162    0.4472854144
 H    1.1278636233    1.6266133377    0.4047698867
 H   -0.1183004133    2.0489364936   -0.7900770811
 H   -0.5752865012    1.7980130668    0.8937578055
 H   -0.4026324081   -0.5060287015    0.6550609810
 H    2.2590597156   -1.2455926543   -3.8545296006
 H    1.2626959283    0.9389495994   -2.5536725740
 H   -0.4850895000   -4.6052065676    1.1184118493