18

 C    0.0299156070    1.4506243411    0.0114271995
 C   -0.0169593859   -0.0400606683   -0.0255115457
 N   -0.1103486829   -0.7781378601   -1.1259642431
 C   -0.0372979568   -2.0597707675   -0.6662960806
 C    0.1147389930   -2.1305584254    0.6832947089
 C   -0.0274681818   -3.5340888024    1.1734918602
 C    0.1623930419   -4.2779995440   -0.1967746832
 N   -0.2474203873   -3.3174636513   -1.2617454367
 N    0.0814235371   -0.8142981117    1.1062128137
 H    1.0474197719    1.8294073809    0.1720416380
 H   -0.3235423848    1.8361207829   -0.9460567315
 H   -0.6039158592    1.8586512774    0.8065859571
 H    0.7111425038   -3.8722553172    1.9081690028
 H   -1.0231777932   -3.7340192412    1.5966311584
 H    1.2228876428   -4.5476369889   -0.3013981688
 H   -0.4310628888   -5.1937589289   -0.2558321434
 H    0.2520039076   -3.4608682737   -2.1317110509
 H    0.2079162657   -0.4662944217    2.0412431752