19

 N    0.0432769587    1.3870357820   -0.1451273256
 C   -0.0197491881    0.0132212750   -0.0116685184
 C   -1.1902942931   -0.6634629088    0.0674914912
 C   -1.2444185011   -2.1093964518    0.0611644690
 C    0.0447706071   -2.8603817869   -0.1806174546
 C    1.2225141677   -2.1304944396    0.4757523243
 C    1.3166372325   -0.6897330344   -0.0408682554
 N   -2.2956754080   -2.8353543488    0.2272514268
 O   -3.4536821131   -2.0461964841    0.4176727322
 H    0.8584746820    1.8410930784    0.2386412589
 H   -0.8129212119    1.8926497254    0.0297009045
 H   -2.1290589464   -0.1255132154    0.1242830073
 H   -0.0570178072   -3.8831473477    0.1895321564
 H    0.2237735353   -2.9249134542   -1.2634880371
 H    1.0815318065   -2.1176176992    1.5629620759
 H    2.1608176289   -2.6590372659    0.2792994364
 H    1.6970716409   -0.6784866467   -1.0721123477
 H    2.0432126130   -0.1168834967    0.5514318873
 H   -4.1335753637   -2.7204543506    0.5080001086