16

 C   -0.0100581412    1.4305151881    0.0125552460
 C    1.4342757854    1.9565514229    0.0071193865
 O    2.1341751169    1.5803969037    1.1968133002
 C    1.9878115391    0.2449241128    1.4316035844
 C    2.7759884175   -0.6160942486    2.1617190361
 N    2.1920442262   -1.8377299375    2.0222998284
 N    1.0704861485   -1.8265202342    1.2634195204
 C    0.9468958379   -0.5537980467    0.9025329891
 N   -0.0901345615   -0.0264606028    0.1310594222
 H   -0.5385046323    1.8890115089    0.8585403439
 H   -0.5185687422    1.7478996555   -0.9018430985
 H    1.9718974827    1.5699826465   -0.8711543753
 H    1.4488422931    3.0487803396   -0.0200141446
 H    3.6734911924   -0.4609963067    2.7368700517
 H    2.4836609018   -2.7043602773    2.4362588453
 H   -0.2501617343   -0.5173250843   -0.7371975758