22

 C   -0.0162423041    1.5985300952   -0.0959155577
 C   -0.0309859344    0.0687353693   -0.1446392753
 C   -1.4112220296   -0.5313587552    0.1669752586
 C   -1.4246067615   -2.0350488377    0.1356597882
 C   -1.5829665443   -2.8276391468   -1.1353774293
 C   -2.5866710711   -3.0225325249   -0.0298389053
 C   -1.9989075156   -3.9378620136    1.0488688428
 C   -0.8046264895   -2.9414085990    1.2150626009
 H    0.9785174560    1.9969737022   -0.3191390673
 H   -0.7163260218    2.0247802283   -0.8234324188
 H   -0.3073835159    1.9666881417    0.8943877442
 H    0.2916375306   -0.2752610592   -1.1353008851
 H    0.7035354619   -0.3281421445    0.5681076160
 H   -1.7406328472   -0.1799598821    1.1555827033
 H   -2.1451998832   -0.1457035400   -0.5537998630
 H   -1.9396145074   -2.2606635701   -1.9903862084
 H   -0.8862333630   -3.6242963222   -1.3913365996
 H   -3.6406072366   -2.8159075163   -0.1790577803
 H   -2.6143771988   -3.9976059511    1.9493488441
 H   -1.7521471058   -4.9565511893    0.7301391860
 H    0.1984140553   -3.3282873594    1.0053619240
 H   -0.7944231239   -2.4732935754    2.2033296320