20

 C   -0.0643342687    1.5094864839    0.0848384069
 C    1.3164406528    2.2190948552    0.0677578076
 C    2.2525478369    1.5735224943    1.0727723809
 C    2.2260172406    0.2504848599    1.0923661911
 C    2.6096025456   -0.9584391798    1.8878769669
 N    1.2924962264   -1.4817877724    2.4007351890
 C    1.7227648785   -1.8085541411    1.0277565523
 C    1.3947927471   -0.5887476266    0.1338384259
 C   -0.0159800047   -0.0365356121   -0.1274071516
 H   -0.5158725452    1.7141992402    1.0609528859
 H   -0.7182368415    1.9666771533   -0.6654875277
 H    1.7451265279    2.1804402667   -0.9445728136
 H    1.1780322169    3.2806315598    0.2965962861
 H    2.8398118830    2.1807565478    1.7548287286
 H    3.5280736616   -1.1981128043    2.4082701906
 H    1.5163112047   -2.2921398370    2.9807718525
 H    1.8510404890   -2.8372052476    0.7135810975
 H    1.9471744273   -0.6938700607   -0.8090563611
 H   -0.7248880806   -0.5112776833    0.5566384157
 H   -0.3345792673   -0.2886034263   -1.1442734134