19

 C    0.2430519129    1.3224984817    0.0061693791
 O    0.0842336961   -0.0762528509    0.0009367962
 C   -1.2711706040   -0.4696705568    0.0115442067
 C   -1.3060276233   -1.9908662513    0.0044382949
 C   -2.7343709982   -2.5275021456    0.0148361174
 O   -3.7091983437   -1.8175748886    0.0284674322
 N   -2.7803519750   -3.9232815209    0.0068384461
 C   -3.8869830000   -4.7704737912    0.0127889606
 N   -5.0921173441   -4.3817879334    0.0299374073
 H    1.3158385416    1.5302716666   -0.0028259376
 H   -0.2176070833    1.7895460669   -0.8786456154
 H   -0.2010013653    1.7810005320    0.9038496997
 H   -1.7895703004   -0.0817329531    0.9014845930
 H   -1.8058769802   -0.0731136421   -0.8648582453
 H   -0.7760677122   -2.3662875814   -0.8800729140
 H   -0.7603427254   -2.3749201322    0.8755825228
 H   -1.8874020813   -4.3904637155   -0.0054920032
 H   -3.5576337418   -5.8180682852    0.0008566533
 H   -5.7101602024   -5.1919610288    0.0306606861