18

 C    0.2054113816    1.6263078010    0.0611608350
 C    0.1053976183    0.1079850136    0.0297186685
 C    0.5776140389   -0.7072681655   -1.2238904165
 C    1.3154232947   -1.7279673286   -0.2995027300
 C    2.7747479150   -2.1136844048   -0.5454586145
 O    3.3173174468   -2.7659187180    0.5839049616
 C    1.1286355121   -0.7089024865    0.8280453517
 O    1.7354997651   -0.5188364013    1.8502169560
 H    1.2061403803    1.9601947678   -0.2313357708
 H   -0.5178962820    2.0837334704   -0.6209372125
 H    0.0100820005    2.0041267655    1.0690727651
 H   -0.9020090457   -0.2171440601    0.3208976393
 H   -0.2066055395   -1.1089915935   -1.8659508724
 H    1.2796088117   -0.1322708782   -1.8352406808
 H    0.7208762871   -2.6298108949   -0.1166909380
 H    2.8588540051   -2.8080754646   -1.3882853914
 H    3.3490487476   -1.2094241415   -0.8089953097
 H    3.1900920424   -2.1693284207    1.3339803193