19

 O    0.1145641068    1.5358312576   -0.2501319223
 C   -0.0003346860    0.1637501748    0.0815759545
 C    0.7679433158   -0.6949716032   -0.9608333197
 C    2.1749925815   -0.3229991680   -1.0475253712
 C    3.3192955720    0.0468125339   -1.0932268865
 C    0.4812465554   -0.1705754363    1.5277073113
 C   -0.5632374851   -1.1311144500    2.0364621066
 C   -1.6380167594   -1.1593878737    1.2490364384
 C   -1.5017285131   -0.2237868736    0.0751126368
 H    1.0538864686    1.7273455430   -0.3659822822
 H    0.6681171210   -1.7550764106   -0.6987346114
 H    0.2942794233   -0.5553588381   -1.9396582200
 H    4.3380209009    0.3417938771   -1.1494780945
 H    1.4994504744   -0.5754316025    1.5455777003
 H    0.4964997101    0.7525318671    2.1217907996
 H   -0.4429884829   -1.6963077841    2.9542078398
 H   -2.5306330108   -1.7493657934    1.4246586330
 H   -2.1042201229    0.6836797715    0.2081210534
 H   -1.8126070095   -0.6689370316   -0.8774881459