18

 C   -0.3419929660    1.5944263824    0.1315272430
 C   -0.0394723807    0.1172595484    0.0185165140
 C    1.3363863809   -0.3781405723   -0.3724715988
 C    0.8771186489   -0.6176420262    1.0294484371
 C    1.5143126772    0.1690297674    2.1396220592
 N    1.3169335022   -0.3530160942    3.3855777815
 O    2.1709461033    1.1775899256    1.9517010356
 C   -1.1651891256   -0.7400663867   -0.4472070917
 O   -2.2716650322   -0.3400872207   -0.7070038605
 H    0.5129925715    2.1381895758    0.5327238043
 H   -0.5931884562    1.9956585011   -0.8546565112
 H   -1.2079603028    1.7602292598    0.7788719866
 H    1.4151890590   -1.2312455979   -1.0380465561
 H    2.0955731397    0.3864422929   -0.4907206286
 H    0.5662177666   -1.6264209608    1.2870672731
 H    0.6650848807   -1.0988338440    3.5548293458
 H    1.6515645562    0.1784104807    4.1729539252
 H   -0.9053704828   -1.8220134914   -0.5455579687