16

 O    0.0215088133    1.3945884080    0.0960870879
 C   -0.0146668806   -0.0115197306   -0.0397855366
 C   -1.4173379702   -0.5295682077    0.0594150419
 O   -2.3319281160    0.1021587027   -0.8861555737
 C   -3.3845771818   -0.3435317974    0.0009672141
 C   -3.2882014998   -1.8879922780    0.0928421453
 C   -1.8075448233   -2.0274272495    0.1354009192
 N   -2.5807407041   -1.9005138705    1.4180346615
 C   -2.4366357001   -0.3830177301    1.2239733906
 H   -0.6681733509    1.7370963749   -0.4854077971
 H    0.4199551000   -0.3426199660   -0.9983232627
 H    0.5949210827   -0.4359496739    0.7647064739
 H   -4.3324590600    0.1760573138   -0.1156871591
 H   -3.9824798518   -2.6635513568   -0.2030656887
 H   -1.2513720873   -2.9187953234   -0.1255140625
 H   -2.3869770203    0.3021824045    2.0658506860