20

 C    0.2643396576    1.3915288419    0.1928175239
 C   -0.0946659686   -0.0828617110   -0.0415351231
 C   -1.6067179399   -0.3107618639   -0.1214229172
 N    0.5961558942   -0.6179507154   -1.2309116909
 C    0.0622835867   -0.3145076313   -2.5482037973
 C    1.8393072479   -1.1550086276   -1.0503277345
 N    2.4145086122   -1.2261999561    0.0981855083
 C    2.4950789774   -1.6837574755   -2.2397937865
 N    3.0880430109   -2.1276333271   -3.1285626832
 H    1.3448675701    1.5070635716    0.3058705247
 H   -0.0738920297    2.0253940390   -0.6342830402
 H   -0.2155443065    1.7546227210    1.1068768206
 H    0.3006865035   -0.6614143868    0.7958426431
 H   -2.0825067005    0.3031130638   -0.8928711953
 H   -1.8406846517   -1.3608802379   -0.3202900687
 H   -2.0598500299   -0.0392387225    0.8361919776
 H   -0.0516010964    0.7673728544   -2.6913011470
 H    0.7355370835   -0.6860230667   -3.3205257253
 H   -0.9148558499   -0.7844338383   -2.6954530202
 H    3.3053138092   -1.7099001118    0.0289415013