14

 O    0.0047181678    1.4277846123    0.0086077241
 C   -0.0007301689    0.0135613598    0.0034009968
 C   -1.4247387744   -0.4839930465    0.0140105563
 N   -1.5816222388   -1.8111081742    0.0119996014
 C   -2.8350353925   -2.2621812734    0.0211490120
 C   -3.9293136725   -1.4006130184    0.0322761483
 N   -3.7798159882   -0.0755506637    0.0343629584
 C   -2.5243244605    0.3783082800    0.0251898934
 H    0.9178046899    1.7265091991    0.0018168213
 H    0.5019478775   -0.3973347775   -0.8862258245
 H    0.5174307557   -0.4040074419    0.8809281257
 H   -2.9726456000   -3.3407114458    0.0196042861
 H   -4.9452704364   -1.7869708001    0.0396465634
 H   -2.3778217187    1.4520582602    0.0267050474