19

 C   -0.0562472306    1.5842914243    0.0619251725
 C   -0.0094364616    0.0520355153    0.0244321994
 C   -1.4228406178   -0.5495106078   -0.0261836692
 N    0.7936201569   -0.4263045842   -1.1069577591
 C    1.8021257484   -1.3109588257   -0.8273754571
 O    2.4932066640   -1.8992919978   -1.6296742084
 C    1.8545071268   -1.4012037689    0.6821136581
 N    2.1607056460   -0.0736755227    1.2845983401
 C    0.7700099482   -0.5408963469    1.2085861649
 H    0.9549714375    1.9863417406    0.1451273073
 H   -0.5244603616    1.9811111133   -0.8454895692
 H   -0.6457909461    1.9299480813    0.9171569426
 H   -1.9473509892   -0.2278999227   -0.9316439163
 H   -1.3794528705   -1.6426387897   -0.0289040512
 H   -2.0147191767   -0.2256465698    0.8366839578
 H    0.6192727928   -0.1362461860   -2.0564779598
 H    2.2127085910   -2.3090790067    1.1502108581
 H    2.5103865923   -0.2250319746    2.2288918554
 H    0.2269171403   -0.7751249212    2.1178385543