19

 C    0.0623649548    1.5569691506    0.0427106438
 C   -0.0159253939    0.0219953991   -0.0188220829
 C    0.5615742257   -0.5044660058   -1.3150893977
 C    1.3997692761   -1.5404759006   -1.3800581534
 C    1.8034559466   -2.3052580914   -0.1773495951
 C    2.4617974281   -1.6507194041    1.0391725659
 O    2.1474664150   -0.2699919461    1.1248910604
 C    0.7172589005   -0.5957240849    1.1681297217
 C    1.0349802619   -2.0991795653    1.1111304206
 H    1.1063038840    1.8815140633    0.0286974053
 H   -0.4503844202    2.0086229585   -0.8124047251
 H   -0.4058707184    1.9388639268    0.9565051472
 H   -1.0776433907   -0.2666525019    0.0533642151
 H    0.2758327734    0.0217868944   -2.2227371650
 H    1.8086912018   -1.8554931626   -2.3358571433
 H    2.1419663041   -3.3253743130   -0.3352234368
 H    3.3750965410   -2.0008804534    1.5063760642
 H    0.2961675154   -0.2707609369    2.1259115265
 H    0.5476055447   -2.8836560567    1.6734648486