20

 O   -0.0222162952    1.4661357167    0.4772509847
 C   -0.0012979238    0.0968081830    0.1903664618
 C   -0.5662677774   -0.8855747764    1.1828875508
 C   -1.3210053861   -0.5618025125   -0.0968737765
 C   -2.6070550634    0.2002239837   -0.0479445045
 C   -3.2428437264    1.1162419021   -1.1254334212
 N   -4.3052538557    1.1583813032   -0.0142732844
 C   -4.0480741595   -0.3533356552    0.0966781752
 C   -3.1012792935    1.2897351431    0.9344909614
 H    0.6370342238    1.6370007803    1.1578663175
 H    0.8521983278   -0.2261488034   -0.4060433823
 H   -0.0993510697   -1.8583639067    1.2915354585
 H   -0.9704716015   -0.4666154906    2.0989139527
 H   -1.2974276386   -1.3250285537   -0.8712133982
 H   -2.7688498167    2.0823205782   -1.3173425114
 H   -3.5998920628    0.6536816609   -2.0507402805
 H   -4.4658072233   -0.9295715185   -0.7347117077
 H   -4.3431672619   -0.7771079130    1.0613582202
 H   -3.3286454578    0.9908931651    1.9626287456
 H   -2.6134282481    2.2647856239    0.8980362781