15

 O   -0.1207458427    1.3310264497    0.0775189842
 N    0.0368954900   -0.0597320677    0.0331985575
 C   -1.0908078145   -0.6426512431   -0.0511162153
 C   -2.4731381739   -0.0523960891   -0.0306576351
 C   -3.4015213677   -1.2715216650    0.0666180678
 O   -4.5971445327   -1.2553235976    0.0844947652
 N   -2.6279166902   -2.4895724957    0.1394240536
 C   -1.9616768050   -2.7747493569   -1.1523763557
 C   -1.2040239005   -2.1275900079   -0.0481384313
 H    0.7870681214    1.6407207004    0.1696263406
 H   -2.6122825563    0.6111590943    0.8294867208
 H   -2.7158587782    0.5442107502   -0.9158150587
 H   -1.8131973020   -3.8299020762   -1.3578162457
 H   -2.2403688597   -2.1741932054   -2.0146083079
 H   -0.4747690580   -2.7017054199    0.5121543701