18

 O   -0.0737429226    1.4879894584   -0.0938137018
 C    0.0638641263    0.0741595776    0.0202924655
 C   -1.3012681163   -0.6155700837    0.0407482807
 C   -2.1592237078   -0.1794784230    1.2411283528
 O   -2.5951552553    1.1584040158    1.1589624469
 O   -1.8704147207   -0.2714024783   -1.2245661617
 C   -3.2373261338   -0.5809712434   -1.3865178910
 C   -3.5999697487   -0.3538189397   -2.7885827960
 N   -3.9122867547   -0.1792320550   -3.8861612101
 H   -0.5217608651    1.6406565387   -0.9355137856
 H    0.6644915676   -0.3268551753   -0.8068060571
 H    0.5956481204   -0.1177027591    0.9564430175
 H   -1.1524691038   -1.7073952522    0.1027385350
 H   -3.0590819547   -0.8004985629    1.3139450666
 H   -1.5714434930   -0.3772250006    2.1533877391
 H   -1.8102395724    1.6857876232    0.9493138391
 H   -3.4480020991   -1.6335430763   -1.1410021263
 H   -3.8671900563    0.0540310756   -0.7497431636