23

 C    1.1460224347   -0.5504053799   -1.4071710686
 C    0.1751739192    0.0120660955   -0.3542926268
 C    0.0946307430    1.5410981102   -0.4823506216
 C   -1.2397545790   -0.5996901229   -0.3798063634
 C   -1.8477014238   -0.8795558139   -1.7961754595
 C   -1.5526129559   -2.3696174523   -1.5537293980
 O   -1.3959024359   -3.3170978736   -2.2693507218
 C   -1.3699978586   -2.1360152564   -0.0475906866
 C   -0.3462029488   -2.9308335268    0.7500987568
 H    2.1588659949   -0.1806813943   -1.2180809571
 H    1.1897676848   -1.6428077638   -1.4109360713
 H    0.8703065936   -0.2307979164   -2.4175315572
 H    0.5935872509   -0.2139981682    0.6365424376
 H   -0.3559001660    1.8319130652   -1.4387334050
 H   -0.5111760355    1.9790506391    0.3177237902
 H    1.0908324813    1.9931040118   -0.4361944006
 H   -1.8842872598    0.0146890141    0.2541900175
 H   -2.9249150501   -0.6900316941   -1.8389600890
 H   -1.3824617917   -0.4258004830   -2.6734597575
 H   -2.3630044395   -2.2832418049    0.4010407957
 H    0.6683099049   -2.8069299981    0.3643117827
 H   -0.3458862940   -2.6321126153    1.8033547595
 H   -0.5878998686   -3.9971373318    0.7040969340