19

 O   -0.0639508402    1.4461186643    0.0940827311
 C   -0.0097330854    0.0319586619    0.0817993918
 C    0.7973735702   -0.5491778642    1.2454135426
 O    0.7526826949   -1.9647882169    1.1892197690
 C   -0.5360288178   -2.4476271109    1.5262588438
 C   -1.6510833529   -1.9531968906    0.5793145613
 C   -2.8373975603   -1.3221995921    1.3377260604
 O   -2.2681827904   -0.0050857741    1.1798799852
 C   -1.4331657440   -0.4948023400    0.1025183452
 H    0.8304635652    1.7816031137   -0.0239643344
 H    0.4421242502   -0.3475173098   -0.8506649978
 H    1.8513110230   -0.2608973979    1.1695760342
 H    0.3969241106   -0.1719378921    2.1985194890
 H   -0.4666969475   -3.5384400397    1.5013749535
 H   -0.7725501362   -2.1490926548    2.5602026817
 H   -1.8804051691   -2.6858751051   -0.1963093328
 H   -3.7997831835   -1.4110585687    0.8144551664
 H   -2.9701246794   -1.5952533665    2.3904548333
 H   -1.9167876874   -0.2868284165   -0.8628756435