21

 O   -0.0106475600    1.4973386533    0.0100819198
 C    0.0526151551    0.0751108586   -0.0651481438
 C    0.8970510024   -0.4468764269    1.1125818472
 O    1.2210779967   -1.8174176109    0.9931952064
 C    0.6041251197   -2.7006592256    1.9066256837
 C   -0.9387387808   -2.7493104374    1.8146717724
 C   -1.4237193379   -2.8892490356    0.4003388290
 C   -1.5954307149   -1.8612478237   -0.4312164756
 C   -1.4076663184   -0.4056544474   -0.0772330278
 H    0.8860811572    1.8413459386   -0.0572090142
 H    0.5411326861   -0.2489005064   -0.9972968348
 H    1.8444933211    0.1133342762    1.1190234297
 H    0.3860497987   -0.2217373454    2.0591838297
 H    1.0221759246   -3.6843294208    1.6691808989
 H    0.8929435652   -2.4552073881    2.9414513281
 H   -1.2791330278   -3.5849231332    2.4371870070
 H   -1.3493002343   -1.8394209119    2.2673592889
 H   -1.5758293272   -3.8998110396    0.0278944208
 H   -1.8901524401   -2.0677116596   -1.4576406344
 H   -1.8461056251   -0.1762624475    0.9024713091
 H   -1.9353671301    0.2208573732   -0.8025657101