16

 O   -0.2093438362    1.4517705923    0.1630376040
 C   -0.0404611212    0.0965906018    0.1005776869
 C    0.1696846101   -0.5863714402   -1.0795335106
 N    0.3357684753   -1.9157157198   -0.7453573720
 C    0.2047707261   -2.0815563429    0.6021756621
 C   -0.0139049087   -0.8423756514    1.1678931703
 C    0.2479105847   -0.1270660673   -2.4713467196
 C    1.3405194646   -0.5080623419   -3.3877481903
 O    0.0639715255   -1.1490446085   -3.4712267738
 H   -0.4546872874    1.6873614808    1.0620313151
 H    0.3569363598   -2.6424733334   -1.4406354657
 H    0.2710119101   -3.0572398982    1.0553726073
 H   -0.1326221572   -0.6313288723    2.2202642892
 H   -0.2703487021    0.8093205873   -2.6721825410
 H    1.5934265619    0.1362253260   -4.2291144496
 H    2.1528887546   -1.1291050926   -3.0132493524