17

 C   -0.2772883078    1.5560247810   -0.0626642873
 C    0.1280701117    0.0748831577    0.0451874929
 C    0.8297757453   -0.4486821300   -1.1607418016
 C    2.0893353194   -0.9046067309   -1.3145707094
 O    3.1081566316   -0.9607685396   -0.4178486820
 N    2.2583931181   -1.3087915847   -2.6439083604
 C    1.1011232042   -1.0595166263   -3.3810134240
 O    0.9094547025   -1.2398801504   -4.5670993749
 N    0.2278675053   -0.5584743186   -2.4284618766
 H    0.6020497159    2.1893693874   -0.2106551381
 H   -0.9557289944    1.7273669724   -0.9050989429
 H   -0.7896588289    1.8836260735    0.8468847122
 H    0.7987479185   -0.0621193798    0.8989480786
 H   -0.7667308725   -0.5297244637    0.2502302563
 H    3.2711548051   -1.8791203814   -0.1683279835
 H    3.1359559983   -1.5263060209   -3.0831095232
 H   -0.6994292722   -0.2589157557   -2.6724876262