21

 C   -0.0983876842    1.4748559757    0.1378176853
 C    0.1057196799   -0.0043776766    0.0923605633
 O   -1.0556876730   -0.8312060325   -0.1286549158
 C   -0.6192129125   -1.7684857999    0.9309693513
 C   -1.4844340187   -1.5391140977    2.1660417856
 C   -0.6621573389   -3.2228411814    0.4813861842
 C    0.7297475315   -1.0511800509    1.0200817400
 C    1.2932025280   -0.7720582680   -0.3693391328
 O    1.2346188346   -1.6441222591   -1.4561702650
 H    0.8468086332    1.9829663842    0.3498702315
 H   -0.4693588987    1.8398082190   -0.8268893269
 H   -0.8258220380    1.7539457094    0.9067630990
 H   -2.5179310080   -1.8373160065    1.9641107636
 H   -1.1138266828   -2.1334435256    3.0084242756
 H   -1.4781023864   -0.4861398555    2.4590744829
 H    0.0068845433   -3.4040207140   -0.3594599594
 H   -0.3560385457   -3.8743406288    1.3066949399
 H   -1.6838746042   -3.4992510364    0.1989537319
 H    1.3118255815   -0.9330146397    1.9263084127
 H    2.2373226340   -0.2335728988   -0.3417176172
 H    0.3016087450   -1.6781694970   -1.7090826698