19

 O   -0.0695317126    1.4348356784   -0.0357741472
 C    0.0251967744    0.0185536095    0.0209686263
 C    0.4796127178   -0.5815536768    1.3778214069
 C   -0.6565462756   -0.1231071785    2.3243966410
 C   -1.8146663718   -0.6416798429    1.4790923260
 C   -1.3095050218   -1.8807580832    0.7380569006
 C    0.1473962677   -2.0782665090    1.1554299877
 C   -1.3798165890   -0.5605779051    0.0237339826
 O   -2.2427387933   -0.3516509333   -1.0384022402
 H    0.8178723117    1.7959386728   -0.1213388730
 H    0.6245913496   -0.3634853564   -0.8185163182
 H    1.4994521543   -0.3495345853    1.6876840309
 H   -0.5918303570   -0.5941630200    3.3110077330
 H   -0.6754930688    0.9627651802    2.4463519893
 H   -2.8571406429   -0.5414109913    1.7495089003
 H   -1.9757643057   -2.6918206763    0.4762377040
 H    0.7587211267   -2.5342854037    0.3691664412
 H    0.2578966565   -2.6741712903    2.0673579796
 H   -2.3468233203    0.6036073512   -1.1249931810