19

 O   -0.0221874080    1.4247076459   -0.0008256386
 C   -0.0134626320    0.0293648895   -0.0618447692
 C    0.3123459085   -0.7187159625   -1.3566156178
 C   -0.5865097741   -1.8708357168   -0.7820077634
 C    0.3167184187   -2.7356261543    0.0595658544
 C    0.9164224594   -2.0975675891    1.0666043280
 C    0.4159287136   -0.6968656554    1.3034174121
 C   -1.1205007481   -0.8345850085    1.6123251737
 C   -1.3362399193   -0.7607611434    0.0997765305
 H    0.8866613461    1.7302383247    0.0967574840
 H   -0.1767002368   -0.2032313449   -2.1890061849
 H    1.3449812859   -0.9692884178   -1.6153097981
 H   -1.2047557494   -2.4214510209   -1.4897691703
 H    0.5014761634   -3.7718197453   -0.2021770208
 H    1.6325019764   -2.5565193465    1.7398800031
 H    1.0246639795   -0.1007622241    1.9854679387
 H   -1.4335461152   -1.7206818551    2.1697116507
 H   -1.5156475829    0.0696035197    2.0829974441
 H   -2.2803939458   -0.4220054652   -0.3286501363