23

 C   -0.4207601378    1.4453416794   -0.2065969893
 C    0.2303477744    0.0945832083    0.1224971923
 C    0.9651808751   -0.5004204261   -1.0541117337
 C    2.2484027328    0.1483780122   -1.5615470982
 C    2.7781563516   -0.8323244914   -2.6316485396
 C    2.2637353865   -2.2215991403   -2.1960754208
 C    0.9764945861   -1.9281116372   -1.4380870351
 C    0.2696257001   -3.0481138145   -0.7246585568
 O    0.1412323818   -0.9824249826   -2.1401134640
 H    0.3255734365    2.1968730251   -0.4827120993
 H   -1.1165033510    1.3381359248   -1.0440000606
 H   -0.9771946358    1.8295579974    0.6533985544
 H    0.9358076217    0.2123460593    0.9553351234
 H   -0.5423961280   -0.6036020918    0.4587594105
 H    2.0847678551    1.1533837122   -1.9628522119
 H    2.9492704983    0.2427881408   -0.7218550360
 H    2.3502022079   -0.5746409918   -3.6025249065
 H    3.8658450435   -0.7978949520   -2.7304989044
 H    2.1009947348   -2.8963883396   -3.0432926718
 H    2.9692479094   -2.7169739716   -1.5164670683
 H    0.9351083663   -3.5258344412    0.0026866088
 H   -0.6221415824   -2.6938367746   -0.2034634717
 H   -0.0450405769   -3.8150331648   -1.4413095614