23

 O   -0.0412297686    1.3581310735    0.0971590066
 C    0.0170380048   -0.0580391833    0.0244861064
 C   -1.4109141687   -0.5866443738    0.0557955441
 C   -1.4785463288   -2.1139663557   -0.0185143115
 C   -2.9090122794   -2.6341300283    0.0100581045
 O   -2.8813378068   -4.0459248725   -0.0600747638
 C   -4.1613951757   -4.6489729898   -0.0278257448
 C   -3.9341811513   -6.1507398856    0.0488189106
 O   -3.1887913435   -6.4986958010    1.1984087403
 H    0.8580570781    1.6978832498    0.0805315837
 H    0.5156641294   -0.3906344495   -0.9008833158
 H    0.5872567192   -0.4785955314    0.8691891612
 H   -1.8917327884   -0.2273659746    0.9739561537
 H   -1.9621886438   -0.1389655311   -0.7803562747
 H   -0.9959088148   -2.4732071815   -0.9356764016
 H   -0.9292798955   -2.5605498966    0.8197918694
 H   -3.4198510720   -2.3090947025    0.9322424457
 H   -3.4834108410   -2.2241123820   -0.8377752645
 H   -4.7211937235   -4.3082447217    0.8581508467
 H   -4.7450175208   -4.3849968635   -0.9253035919
 H   -4.8966065184   -6.6688828313    0.1136981248
 H   -3.4318104364   -6.4840907787   -0.8735715693
 H   -2.4363083340   -5.8951529391    1.2082070900