18

 C   -0.2155269805    1.4377740551    0.1326470862
 N   -0.1237370685   -0.0093599848    0.0730920295
 C    0.7235619055   -0.5992861293    0.8022420931
 O    1.5228480439    0.0893866884    1.6729564724
 C    2.6469702909   -0.5504372449    2.2874987623
 C    2.2940762605   -1.9346650712    2.8038335751
 C    1.8565399910   -2.8027029497    1.6229125504
 C    0.8022633697   -2.1265432225    0.7560127247
 O    0.0594238368   -2.7583111022    0.0495792237
 H    0.7618465831    1.9284278943    0.2169374466
 H   -0.7313839952    1.7985909868   -0.7603397022
 H   -0.8066425855    1.7423210988    1.0067496834
 H    3.4722756067   -0.6085579060    1.5631158162
 H    2.9512870234    0.1237911635    3.0915352244
 H    3.1587240332   -2.3724055093    3.3133153620
 H    1.4885364775   -1.8496616049    3.5424286101
 H    2.7200055247   -2.9935952856    0.9689419351
 H    1.4703766328   -3.7802698265    1.9222242571