22

 C   -0.4123153425    1.3759058974    0.1638230018
 N    0.0039391871   -0.0167522614    0.1162214047
 C    1.3739311636   -0.2980411975   -0.2947309707
 C    0.9402059450   -0.5516277364    1.1096032197
 C    1.5041367746    0.2448377237    2.2694436217
 C    0.5670258388    0.2778895445    3.4839503143
 C    1.1906745580    1.0149897513    4.6860991796
 C    0.3146209220    1.0529130926    5.8505146693
 C   -0.4270920585    1.0700555339    6.7962990670
 H    0.3752439130    2.0881433980    0.4572537601
 H   -0.7642079238    1.6658354712   -0.8316405516
 H   -1.2505315194    1.4840421398    0.8600051622
 H    1.5094469173   -1.1145725859   -0.9998469640
 H    2.0397677223    0.5510269943   -0.4542843623
 H    0.7018323396   -1.5815094963    1.3785026653
 H    2.4580720568   -0.2154403442    2.5624168802
 H    1.7487011565    1.2663037698    1.9576660504
 H   -0.3787143029    0.7624076117    3.2182978516
 H    0.3140737749   -0.7453470495    3.7852300014
 H    2.1387661122    0.5315575031    4.9576615146
 H    1.4500524236    2.0406983339    4.3913738472
 H   -1.0742825379    1.0908102960    7.6375779176