17

 O   -0.1782763652    1.4980392002   -0.1373467464
 C   -0.0363340768    0.1045229240   -0.0393906984
 C    1.1264749742   -0.4533820500   -0.8512572511
 C    2.4681852583   -0.0078932729   -0.3059453446
 O    3.3686691344   -0.7518126599   -0.0167918350
 C   -0.4632113079   -0.5603969164    1.2262868151
 C   -1.3343663851   -0.6871088891   -0.0292633839
 C   -2.6379834819    0.0236340657   -0.0558302972
 O   -3.6242704425   -0.4112282096   -0.5971433783
 H    0.3199204510    1.9093026212    0.5765832276
 H    1.1088163330   -1.5456416350   -0.8762865655
 H    1.0312089017   -0.0748096806   -1.8778920772
 H    2.5753730523    1.0945489274   -0.1831327774
 H    0.0564183256   -1.4493655918    1.5651410800
 H   -0.8498010157    0.0753533968    2.0169936112
 H   -1.3410239480   -1.6410198006   -0.5447855497
 H   -2.6464521275    0.9994314504    0.4732238907