18

 C   -0.0450160594    1.5060287790    0.0141667071
 C    0.0563299320   -0.0003834210   -0.0040402233
 C   -0.8128112650   -0.8216160231    0.9069195033
 C    0.6939275978   -0.7927735431    1.1381372832
 C    1.4393864740   -1.9003665396    0.4995844426
 C    1.3030848142   -1.8821657984   -0.8381811485
 C    0.4947284319   -0.6797936071   -1.3073366897
 C    1.8317373661   -2.8445018912   -1.7373288937
 N    2.2539288160   -3.6093443164   -2.4992604749
 H    0.8960237584    1.9710582306   -0.3001449446
 H   -0.8324233546    1.8570641073   -0.6629456616
 H   -0.2838340897    1.8754049702    1.0162691362
 H   -1.4250606571   -0.2794884092    1.6205000780
 H   -1.2487896748   -1.7475841187    0.5454643089
 H    1.0761732031   -0.3215110062    2.0366118669
 H    1.9984129036   -2.6467714516    1.0511050279
 H   -0.3550680779   -0.9773517694   -1.9321703410
 H    1.1151393613   -0.0124494322   -1.9193453969