16

 O   -0.0329186853    1.4487380753   -0.0713528878
 C    0.0227538544    0.0431873511    0.0032969373
 C    0.0159080642   -0.6338940741    1.3954606430
 C   -1.4850012100   -0.2019072034    1.5697651261
 C   -2.1803464804   -1.3487417291    2.2888209481
 O   -1.5598833468   -2.4820349313    1.6561006655
 C   -0.6715798007   -1.8677888503    0.7428139904
 C   -1.3491688438   -0.6402081437    0.0657348378
 H    0.8556579689    1.7914726008    0.0653520127
 H    0.7344935920   -0.3665977372   -0.7269371422
 H    0.7945052337   -0.6374661457    2.1599060707
 H   -1.7332945881    0.8265173998    1.8170428389
 H   -1.9867239867   -1.3684207833    3.3686592139
 H   -3.2647765250   -1.3734812926    2.1241610427
 H   -0.1195580871   -2.6171733759    0.1773652690
 H   -2.1325426493   -0.6464801603   -0.6922972460