20

 C   -0.0298360165    1.5289955244    0.0074846813
 C   -0.0435735856    0.0072800649   -0.0852609104
 N    0.8022783421   -0.4569980851   -1.1749568303
 C    0.8573641712   -1.8304207019   -1.4077027312
 C    0.4194704650   -2.8534557557   -0.6164402173
 O    0.7383903359   -4.0588143404   -1.1864574505
 C    1.3683957248   -3.7839008184   -2.3523789170
 C    1.4811628895   -2.4451496101   -2.5569007452
 C    2.1192186772   -1.7316915710   -3.7060027205
 H    0.9893589310    1.9004180898    0.1481977934
 H   -0.4348132018    1.9841181632   -0.9041264287
 H   -0.6432531583    1.8695153442    0.8462268421
 H    0.3475143597   -0.4243321650    0.8450281485
 H   -1.0808007311   -0.3585363580   -0.1862561228
 H    0.6630245026    0.0745026829   -2.0250929998
 H   -0.0889594067   -2.9003191093    0.3300974934
 H    1.6843709858   -4.6365690936   -2.9321394532
 H    1.3949607838   -1.1283180225   -4.2692169804
 H    2.9073656126   -1.0498225831   -3.3654074453
 H    2.5677823389   -2.4389516750   -4.4088364660