18

 C   -0.1869106891    1.3265275516   -0.1015330618
 O   -0.1132207104   -0.0804604647   -0.1305916634
 C    0.8185025147   -0.5628539631   -1.0764496266
 C    0.7788812623   -2.0771049766   -1.0076613698
 N   -0.4915214399   -2.6728887966   -1.4556254631
 C    0.0079398159   -3.2195658817   -2.6071046164
 O   -0.4821169629   -3.7312381194   -3.5800246630
 C    1.4544213798   -2.8358400061   -2.1962452569
 O    2.1554129361   -2.0440062502   -3.1208482615
 H    0.7792658842    1.7785363589    0.1714003203
 H   -0.4957033257    1.7387579589   -1.0747702895
 H   -0.9303225739    1.5994976251    0.6511634685
 H    0.5653239668   -0.2211096251   -2.0908016429
 H    1.8365166036   -0.2050193303   -0.8513664609
 H    1.0788196002   -2.4155186385   -0.0111829549
 H   -1.4378079252   -2.4688513830   -1.1673486525
 H    2.0524536601   -3.6938123566   -1.8634288479
 H    1.8788184735   -2.3253956927   -4.0010729477