13

 O    0.0962543083    1.3560802012   -0.0482799660
 C    0.0611999859   -0.0015685555   -0.0113822931
 C    0.0155617669   -0.8192175169   -1.1119871432
 N   -0.0000753107   -2.1734863225   -0.6995279978
 C    0.0222781712   -2.1674159248    0.6541190031
 C    0.0663265136   -0.8657799700    1.1336932970
 N    0.0990333927   -0.8985151811    2.4970061863
 N    0.0765065738   -2.1369404473    2.8811486266
 N    0.0301937093   -2.9448689943    1.7556659020
 H    0.1255030043    1.6800808200    0.8573670003
 H   -0.0000745264   -0.5672815255   -2.1586407933
 H   -0.0767246787   -2.9611774587   -1.3155048213
 H    0.0045667798   -3.9423470046    1.8766784393