14

 C    0.0043859198    1.4418117518   -0.0242124984
 N   -0.0234261636   -0.0041561361    0.0312562133
 N   -0.1915476876   -0.7569361876   -1.1024195539
 N   -0.1762714886   -2.0023311778   -0.7588589320
 C    0.0010519440   -2.1025502244    0.5999592197
 C    0.0719727490   -3.2909286251    1.3536190084
 C    0.1419520621   -4.2648364348    2.0603296206
 C    0.0979963001   -0.8120447478    1.0966918838
 O    0.2729213966   -0.3154055169    2.3280152812
 H    0.9607220264    1.8229159582    0.3436172462
 H   -0.1266798176    1.7214386991   -1.0692614188
 H   -0.8045924580    1.8658578466    0.5765062790
 H    0.2002724847   -5.1392411874    2.6599680071
 H    0.3360360928   -1.0595755278    2.9415873738