19

 O    0.2030925645    1.2188692734   -0.2281213028
 C    0.0627433182   -0.1590072305   -0.0372188743
 C   -0.3979714754   -0.6796312771    1.3047180068
 C   -1.3435218769   -0.6667169953    0.1165497968
 C   -2.5482444140    0.2265543959    0.0078316332
 C   -3.3515550799    0.1651060934   -1.2878996199
 C   -3.9203675280   -0.4566402745   -0.0616477815
 C   -2.5819175027    1.5539210222    0.6912042428
 O   -3.4838256716    2.3497974486    0.5575973842
 H    0.9900577577    1.5116557345    0.2432372004
 H    0.7606640282   -0.7699226546   -0.6095477467
 H   -0.0233893151   -1.6356006917    1.6549045755
 H   -0.5517262716    0.0541821498    2.0882403221
 H   -1.5174599928   -1.6408347801   -0.3328814663
 H   -3.7785308416    1.1045815092   -1.6182092815
 H   -2.9601542729   -0.4770196150   -2.0689053958
 H   -3.9289438209   -1.5374198355    0.0283120364
 H   -4.7328695171    0.0610645609    0.4347136632
 H   -1.7283701878    1.7804187063    1.3561209075