16

 C   -0.0183123958    1.5366762069    0.0172270242
 C   -0.0067847331    0.0397402579    0.0159977161
 C   -0.0302989079   -0.7908518060   -1.0871719036
 N   -0.0097384467   -2.1222880817   -0.7127506940
 C    0.0281654085   -2.1735055846    0.6627385782
 C    0.0304784503   -0.8578119840    1.1264316749
 N    0.0682455806   -0.9514260413    2.4855812270
 N    0.0897664417   -2.2424166381    2.9072784871
 C    0.0657539010   -2.9956725787    1.8072440292
 H    0.8748897521    1.9533586337    0.4990300867
 H   -0.0517177466    1.9268063353   -1.0039770138
 H   -0.8876836488    1.9396208156    0.5514232925
 H   -0.0609544149   -0.5201313486   -2.1321581982
 H   -0.0207243832   -2.9004347133   -1.3456308358
 H    0.0811332199   -0.2227914684    3.1758698302
 H    0.0766445130   -4.0709770347    1.8979867093