15

 O   -0.0874491087    1.3005273553    0.0063074140
 C    0.0013743897   -0.0806875055   -0.0311512373
 C    0.9754867700   -0.7434640230   -1.0095834876
 O    0.4054573491   -2.0182897995   -1.3049626601
 C   -0.6257313197   -2.2514055623   -0.3516220564
 C   -1.2367996737   -0.8784777740    0.0151139479
 C   -0.3159730260   -0.8315303871    1.2836951813
 C   -0.0714797555   -2.2933631988    1.1094452280
 O    0.2405050161   -3.1810219873    1.8525625524
 H    0.6978186946    1.6468051819    0.4446728717
 H    1.0395343087   -0.1539575916   -1.9308915896
 H    1.9831123815   -0.8602057912   -0.5877402961
 H   -1.2535326570   -3.0760383212   -0.6840832649
 H   -2.2506633782   -0.5216753898   -0.0878635337
 H   -0.4493161309   -0.2705090660    2.2008255804