16

 C    0.0889272160    1.4904369155    0.0459881440
 C   -0.0183174624    0.0021823376   -0.0250266343
 C   -0.0681644463   -0.7615866189   -1.1240241751
 C   -0.0683749760   -2.2071177514   -0.7718749227
 O    1.1051608652   -2.6317197006   -0.0407347844
 C   -0.0560415828   -2.2751842631    0.7110544983
 C   -0.0558066811   -0.8422396477    1.2402476538
 C   -0.6769952334   -3.3316670180    1.4701958356
 N   -1.1874110555   -4.1545008941    2.1017923904
 H    1.0256891698    1.7932876667    0.5302077012
 H    0.0595226865    1.9426966279   -0.9482960372
 H   -0.7248393052    1.9174005975    0.6450676365
 H   -0.0675814233   -0.4013667940   -2.1450665983
 H   -0.5171894343   -2.9737787958   -1.3948637637
 H    0.8075629203   -0.6591393472    1.8899977902
 H   -0.9554055676   -0.6419230942    1.8347745157