19

 C    0.0754365949    1.5242557269   -0.2364950686
 C    0.0829782871    0.0201852597   -0.0740286688
 C    1.3910285909   -0.7403972934   -0.0173980949
 C    0.5309176930   -0.6137624864    1.2104041456
 C    0.9474475088    0.0636447550    2.5263372402
 C    0.6131170182   -1.2678094706    3.2624071717
 C   -0.1034702038   -1.7825765077    1.9788282532
 H    0.9087204751    1.9827734870    0.3059770150
 H    0.1683381057    1.8118814990   -1.2897638228
 H   -0.8513436335    1.9655404167    0.1481863588
 H   -0.7314162400   -0.4919204897   -0.5835455936
 H    1.4518620089   -1.7071922589   -0.5082645072
 H    2.3114123871   -0.1634204064   -0.0542271659
 H    1.9787140554    0.4201015702    2.5992576355
 H    0.2789974358    0.8826368355    2.8128422353
 H    1.5095200374   -1.8472238119    3.4963955235
 H    0.0058579554   -1.1897070987    4.1667872047
 H   -1.1941048449   -1.7055749249    2.0443666862
 H    0.1513583287   -2.7919268713    1.6430952023