23

 C    0.0174573153    1.5109254689    0.0411697356
 C    0.0296291995   -0.0199727290   -0.0046978427
 C   -1.3940304613   -0.5843318792   -0.0300562690
 O    0.6386902773   -0.5098967665   -1.1889683102
 C    2.0557890000   -0.4087165320   -1.2936059617
 C    2.7339991690   -1.6885162801   -0.7987293934
 C    2.6085729526   -1.9070655744    0.7137449490
 C    1.1776291837   -1.7674634339    1.2387764972
 O    0.7359775695   -0.4153496395    1.1607163058
 H    1.0346695730    1.9088460762    0.0530915854
 H   -0.5083007696    1.9044259867   -0.8319547930
 H   -0.4866960779    1.8546885450    0.9477511947
 H   -1.9198437770   -0.2348882579   -0.9220439534
 H   -1.3803030489   -1.6762610089   -0.0564829943
 H   -1.9392452765   -0.2568071507    0.8582471911
 H    2.2688523277   -0.2604564223   -2.3578120169
 H    2.4382118141    0.4662321040   -0.7536986692
 H    2.2829466119   -2.5314925907   -1.3369780745
 H    3.7935565944   -1.6613309562   -1.0828832991
 H    2.9877750640   -2.9024975742    0.9773043800
 H    3.2302211308   -1.1789002154    1.2495597156
 H    0.5005255055   -2.4440859009    0.7030650950
 H    1.1414212729   -2.0347631091    2.3004487879