22

 C    0.0303215139    1.5946797267   -0.0044379634
 C    0.0803938640    0.0677127230   -0.0040898639
 C    0.8323685701   -0.5611638642   -1.1668196076
 N    2.3078203743   -0.5746432413   -0.9598308646
 C    1.5050391195   -1.8051771113   -0.7163080048
 C    1.7194406813   -3.0139208324   -1.5876437666
 C    1.2045930851   -1.9732370159    0.7678940169
 C    0.7806864866   -0.5598190272    1.2444606243
 O    1.8884704749    0.1987181054    1.6912036534
 H    1.0367975948    2.0174749022    0.0255850824
 H   -0.4770856721    1.9684424563   -0.9003710421
 H   -0.5114325439    1.9692744053    0.8696964523
 H   -0.9466467277   -0.3240111578   -0.0402005232
 H    0.4623742325   -0.4503439922   -2.1824007931
 H    2.7774559969   -0.6483597107   -1.8589608696
 H    1.8259546841   -2.7325528128   -2.6411056233
 H    2.6228189735   -3.5596514614   -1.2915404743
 H    0.8748627260   -3.7072998431   -1.5095130790
 H    0.3832731721   -2.6909160580    0.8875751206
 H    2.0589327922   -2.3350377550    1.3480643280
 H    0.0935554715   -0.6089969314    2.0938776571
 H    2.4989197603    0.2113171158    0.9365250506