12

 N    0.1107048237    1.3964183845    0.1602628364
 C    0.0136284628    0.0302089417    0.0521204552
 C   -1.1063203138   -0.7675934769    0.0167571440
 O   -0.6489382815   -2.0832699419   -0.0257579755
 C    0.6824199348   -1.9735645574   -0.0196393697
 N    1.1452102276   -0.7621700374    0.0249169659
 C   -2.4744686778   -0.4948258463    0.0142204369
 C   -3.6483954845   -0.2140173126    0.0053819953
 H    0.9839789461    1.7696318633   -0.1815782098
 H   -0.6982909656    1.9122100971   -0.1526633081
 H    1.2487575951   -2.8915883231   -0.0528238690
 H   -4.6830355769    0.0236530491    0.0107848385