23

 C    0.0461631407    1.5253019102    0.1016844990
 C    0.0500457523    0.0072812202    0.0085598156
 C    0.7015553839   -0.5212008737   -1.2758979585
 C    0.8444898519   -2.0539804635   -1.2596737768
 C    1.6088358277   -2.5758241047   -2.4776210841
 C    1.5067032257   -2.4874863177    0.0666067236
 O    2.8654402774   -2.0699156212    0.1434965768
 C    0.7246960175   -1.9000467556    1.2412853921
 O    0.7431640752   -0.4810584241    1.1626435357
 H    1.0696484493    1.9126673217    0.0738399125
 H   -0.5099345297    1.9593216123   -0.7346109604
 H   -0.4178363654    1.8508139350    1.0364640105
 H   -0.9896448438   -0.3637486592    0.0544204220
 H    0.1117807138   -0.2042820543   -2.1440314603
 H    1.6935011979   -0.0629293487   -1.3845158717
 H   -0.1659059753   -2.4899289124   -1.2633342449
 H    2.6443724222   -2.2254803863   -2.4537204989
 H    1.6275155169   -3.6710396443   -2.4924595700
 H    1.1476267736   -2.2348259673   -3.4105366296
 H    1.5156936578   -3.5822748127    0.1346389970
 H    2.8455892907   -1.1586888623    0.4616158056
 H   -0.3113146271   -2.2761202694    1.2500988745
 H    1.2019891968   -2.1626123719    2.1898244101