21

 C    0.3183035351    1.4096597083   -0.1653785779
 C    0.2768161453   -0.0749037055    0.0641972526
 O   -0.8264286637   -0.7217684749   -0.5580070675
 C   -1.5358147715   -1.5016819799    0.4150211117
 C   -0.5516187839   -1.7991968652    1.5712328667
 C    0.5693583997   -0.7876120139    1.3516114514
 C    1.5030054444   -0.9493963004    0.1474164131
 C    1.5817474847   -2.2086806110   -0.6994327386
 O    1.3747140573   -1.9443617874   -2.0775958089
 H    1.1855545807    1.8504314274    0.3346524051
 H    0.3945323935    1.6343154946   -1.2343617688
 H   -0.5862316713    1.8920817814    0.2202056663
 H   -2.4044137303   -0.9321581879    0.7745821502
 H   -1.9032765291   -2.4029722671   -0.0841801298
 H   -1.0264349927   -1.6378581970    2.5427648453
 H   -0.2013187306   -2.8354801796    1.5529776487
 H    0.9491502382   -0.2463306620    2.2107418403
 H    2.4397408414   -0.4051409648    0.2373719833
 H    2.5807370560   -2.6485189001   -0.6168998454
 H    0.8745714265   -2.9689455192   -0.3382407269
 H    0.4858217502   -1.5709064461   -2.1314205309