18

 C    0.0006953371    1.4642703882    0.0980020913
 C    0.0114570729   -0.0284961949   -0.0313375355
 C    0.7077918316   -0.9458096548   -1.0722894220
 C    0.0548434591   -1.8795393532   -0.0292007276
 N    0.4993277185   -0.9513120023    1.0928018435
 C   -1.2434998192   -0.9965970059   -0.0788854789
 O   -2.0652275959   -1.0061496032    1.0472119227
 C   -2.0632121040   -1.0117965944   -1.2767464460
 C   -2.7489855785   -1.0147141198   -2.2633294982
 H    1.0125770576    1.8622087993    0.2293356164
 H   -0.4308582177    1.9170620399   -0.8001202366
 H   -0.6045753647    1.7638977711    0.9590458154
 H    0.3251704521   -0.9548462339   -2.0950628742
 H    1.8005864416   -0.9224283944   -1.0456964096
 H    0.1173610600   -2.9639411924    0.0670651887
 H    1.5214475714   -0.9283105988    1.1327515080
 H   -1.4377561893   -1.0042069110    1.7893091205
 H   -3.3595464225   -1.0218883096   -3.1323184080