21

 C   -0.2772091832    1.6639014006   -0.4826712326
 C   -0.0988909538    0.2053205823   -0.0527138031
 C   -1.4289072454   -0.5450796756    0.0897953688
 C   -1.2666310020   -1.9982764142    0.5327922036
 C   -2.5678201951   -2.8444362689    0.4884507802
 C   -1.9934454156   -3.4783421469   -0.8131069474
 N   -0.6658024652   -2.9310815342   -0.4626823664
 C   -2.0492531098   -4.9357641290   -0.9449443105
 N   -2.1137346245   -6.0849705309   -1.0498439095
 H    0.6871534685    2.1726256194   -0.5739280457
 H   -0.7834919505    1.7330052140   -1.4518972504
 H   -0.8799424256    2.2191757640    0.2443461467
 H    0.5421787805   -0.3098254250   -0.7808380079
 H    0.4393215048    0.1644461557    0.9030443498
 H   -2.0579366562   -0.0293953753    0.8288474224
 H   -1.9801562136   -0.5071808048   -0.8611264934
 H   -0.7305949728   -2.0271409580    1.4891147940
 H   -2.6522043035   -3.5632121622    1.3032132671
 H   -3.5061865483   -2.3002578944    0.3770646816
 H   -2.4493528896   -3.0431516166   -1.7125540324
 H   -0.1580751093   -2.5040931600   -1.2303552150