19

 N   -0.0174752856   -1.1109851858   -0.2502549458
 C   -0.0128146121    0.0396767191   -0.1520479117
 C   -0.0061824454    1.4968453488    0.0035417598
 N    1.3541576123    2.0207519621   -0.0122071597
 C    1.4064650137    3.4662618147    0.1896850456
 C    2.8431112597    3.9614162991    0.1383276812
 C    3.5071179472    3.9450974891   -1.2551451550
 O    3.5085408376    5.3884175042   -1.3179119768
 C    3.0137429508    5.4929845024    0.0307569081
 H   -0.5630639960    1.9363116833   -0.8335555493
 H   -0.5753794192    1.7431738811    0.9191293284
 H    1.9038532102    1.5509630552    0.7008707735
 H    0.8327643939    3.9400335508   -0.6185869666
 H    0.9353413580    3.7865720271    1.1388289034
 H    3.4338166740    3.4932965207    0.9316246461
 H    4.5238643692    3.5343249977   -1.2868935901
 H    2.9136506339    3.4916454591   -2.0571500161
 H    2.0905456302    6.0847255986    0.0893308720
 H    3.7568485577    5.9297561729    0.7102059033