17

 C   -0.1438485921    1.4473046170   -0.0330402112
 C    0.0600838581   -0.0382645324    0.0070525205
 O   -1.0647159818   -0.7609277174   -0.4586672085
 C   -1.2267776992   -1.9395956777    0.2160063111
 O   -2.0877463170   -2.7191731000   -0.0587455230
 C   -0.1690520967   -2.0444813587    1.3195365783
 C    0.7083177508   -0.8293535032    1.1302830388
 C    1.3873090094   -0.7035511332   -0.2301467817
 O    1.4188854845   -1.7871541226   -1.1020516055
 H    0.7483544843    1.9628926491    0.3328530005
 H   -0.3398087479    1.7837208216   -1.0557991885
 H   -0.9926254319    1.7387854357    0.5934542209
 H   -0.6714063734   -2.0432836691    2.2913316217
 H    0.3434280633   -3.0051875202    1.2186985487
 H    1.1449630983   -0.3356623435    1.9905879641
 H    2.2479138904   -0.0356590102   -0.2769894987
 H    2.0863312709   -2.4087868653   -0.7919740375