14

 O   -0.1628706487    1.3756939563    0.0935516296
 N    0.0065370312   -0.0269818211    0.0790852351
 C   -1.0990581950   -0.6203826587   -0.0175678982
 C   -2.6114330875   -0.4509538589   -0.0355272719
 N   -2.6075506674   -1.5940328578   -1.0482179669
 C   -1.6069853229   -2.0465764202    0.0118584963
 C   -2.6089110407   -1.5327132212    1.1156677476
 O   -2.2104662324   -1.2516452031    2.4137541587
 H    0.7491235850    1.6853679994    0.1155471971
 H   -3.2128303998    0.4462559437   -0.1582514323
 H   -3.4723496004   -2.1343944693   -0.9241393123
 H   -1.0558789750   -2.9821969348   -0.0559564755
 H   -3.5366322644   -2.1101981353    1.1675056030
 H   -1.3786475919   -0.7607366490    2.3838081497