15

 O   -0.1370502230    1.4084413958   -0.1192716630
 C   -0.0716852907    0.0031842297   -0.2697556982
 C   -1.3947546453   -0.5540347066    0.2698751538
 C   -1.4724035790   -2.0358582138    0.1673851286
 N   -1.5203922831   -2.9141730773    1.1270170882
 C   -1.5656825010   -4.0930702006    0.4240883548
 O   -1.6269385856   -5.2785717713    1.0276018082
 N   -1.5447635821   -3.9847165023   -0.8795679144
 O   -1.4815954907   -2.5853015986   -1.0510330165
 H    0.6783614704    1.7879750652   -0.4596296467
 H    0.0480557369   -0.2918518590   -1.3221619432
 H    0.7672153419   -0.4294823131    0.2968395936
 H   -1.5112675378   -0.2753506182    1.3187048332
 H   -2.2160484285   -0.1023005942   -0.2965424343
 H   -1.6352198926   -5.1120970556    1.9781959059