19

 C    0.0050399010    1.7369277866   -0.0562373276
 C    0.0462945889    0.2087693705   -0.0469348554
 O    0.7391636726   -0.1931305126    1.1271813421
 C   -1.3811599427   -0.4009312659   -0.0504407735
 C   -2.1872244950   -0.0261346986    1.1747839776
 O   -3.3095387798    0.4121650664    1.1400667572
 C    0.7951525385   -0.3129671872   -1.2723852978
 C    2.2523865633   -0.4611892126   -1.2766633661
 O    1.3931985390   -1.6018964070   -1.0905036476
 H    1.0200068799    2.1415764425   -0.0423288698
 H   -0.5117461701    2.1074427984   -0.9466270326
 H   -0.5248003617    2.1112457416    0.8240862547
 H    1.0185989995   -1.1067116541    0.9672595849
 H   -1.9427989539   -0.1067137369   -0.9422137191
 H   -1.2770963468   -1.4956026258   -0.0591499594
 H   -1.6602726402   -0.1933093846    2.1375879806
 H    0.2807530269   -0.1869092667   -2.2253470365
 H    2.7930307187   -0.4448752050   -2.2204419452
 H    2.8168535119   -0.1669086191   -0.3958847667