20

 C   -0.0757119301    1.5901837288    0.1197680940
 C    0.0188818659    0.0635540034    0.0165247463
 C    0.3421384670   -0.3526507361   -1.4282963156
 C    0.5463017753   -1.8089536896   -1.7205537110
 C    0.7245603458   -2.8688795418   -0.9189045305
 C    0.7865557590   -2.9925783268    0.5573941168
 O    0.8807733496   -4.1022526405    1.0494610198
 C    0.7338486936   -1.7808176692    1.5018203069
 N    0.9664034112   -0.4407409578    1.0065023365
 H    0.8943546013    2.0521279394   -0.0987996875
 H   -0.8063496074    1.9952659026   -0.5881948587
 H   -0.3649280656    1.8825663776    1.1316139659
 H   -0.9582855663   -0.3615127582    0.2817951975
 H   -0.4462530194    0.0186453690   -2.0985109341
 H    1.2503158923    0.1807210120   -1.7572487874
 H    0.5612494621   -2.0244135444   -2.7892585656
 H    0.8472243815   -3.8427113051   -1.3873742369
 H   -0.2584111314   -1.8112771817    1.9737595111
 H    1.4449481935   -2.0001323474    2.3050812227
 H    1.9218577620   -0.3262638841    0.6859493197