12

 O   -0.0046525329   -0.0625113544   -0.0001488370
 C    0.0204788893    1.1289508399    0.0088928843
 N    1.2047417782    1.9036390747    0.0018286351
 C    1.2992351859    3.2759922656    0.0116151063
 N    2.5469441600    3.6485856170    0.0007409297
 C    3.2197303111    2.4451440734   -0.0163131683
 C    4.6950897619    2.2979521426   -0.0338986279
 O    5.4627994157    3.2244666448   -0.0349307550
 N    2.4494756112    1.3710904793   -0.0162700668
 H   -0.8666265059    1.7860943245    0.0240962797
 H    0.4308621257    3.9187515477    0.0263714567
 H    5.0238782199    1.2395865849   -0.0458235368