14

 N   -0.2601689979   -1.2059406551   -0.1740222503
 C   -0.1386950988   -0.0598584781   -0.0925805671
 C    0.0043973595    1.3859690425    0.0105781597
 C   -0.2389345230    2.0064261370    1.4621993268
 N    1.1516173361    2.4580888045    1.3636313361
 N    2.1322890812    3.1708053173    1.9217884006
 C    3.0900756906    3.0803618117    0.9799824422
 C    2.7084216639    2.3314970136   -0.1685635364
 C    1.4199422255    1.9540279069    0.1519736826
 H   -0.6020854611    1.8686062684   -0.7607270483
 H   -0.9768263572    2.8110484782    1.4940489234
 H   -0.4238826059    1.2773620640    2.2533297978
 H    4.0418466092    3.5606014060    1.1552735132
 H    3.2956422979    2.1218853030   -1.0458052703