18

 O   -0.1005540130    1.3340481377    0.3476507160
 C    0.0481997090    0.0162022079   -0.1434457830
 C   -1.2881375358   -0.6988954380   -0.2424519767
 O   -2.0929927799    0.0731567275   -1.1373088662
 C   -3.4039304369   -0.3927338425   -1.2559889911
 C   -4.2405132366    0.3656519192   -2.3219626036
 N   -4.4318309272   -0.9257609156   -2.9919102415
 C   -3.6148208643   -1.6518682030   -2.1615556652
 O   -3.2205175126   -2.7873206633   -2.1730995959
 H   -0.7908465951    1.7383040673   -0.1905042531
 H    0.5352827953    0.0057272081   -1.1314245319
 H    0.6975585559   -0.5198832447    0.5561157884
 H   -1.1706344620   -1.7232739285   -0.6172707536
 H   -1.7711616949   -0.7372401172    0.7461924694
 H   -3.8949355678   -0.4828380575   -0.2763007387
 H   -5.1622716792    0.8349976548   -1.9673024121
 H   -3.6404778718    1.0836984675   -2.8882634389
 H   -4.8687339033   -1.1646040597   -3.8698911124