18

 O    0.0861370305    1.3695099024    0.2435159966
 C    0.0196280947   -0.0306990457    0.1116511438
 C   -1.4296797560   -0.5157444044    0.0091519314
 C   -1.5840921650   -2.0580036542   -0.0353486215
 O   -2.4146320730   -2.3667122242    1.1136940760
 C   -2.6415780683   -1.1877548359    1.7296444215
 C   -3.4692199105   -1.2267438376    2.9784518026
 O   -3.6270594286    0.0505138574    3.5360536546
 N   -2.1683329523   -0.1215589956    1.2246930800
 H   -0.5208952234    1.6003650028    0.9574668346
 H    0.5695954771   -0.2939032201   -0.7991785880
 H    0.5055660799   -0.5478893621    0.9571373882
 H   -1.8922297597   -0.0305881333   -0.8575523873
 H   -2.0904824519   -2.4261906369   -0.9299314354
 H   -0.6332432567   -2.5885407342    0.0822736549
 H   -4.4417510566   -1.6803387090    2.7285504438
 H   -2.9862223722   -1.9049401437    3.6973643745
 H   -3.2317510880    0.6706222044    2.9076428098