14

 N   -0.0713795372    1.2481474079    0.4789077228
 C   -0.0080967375    0.0888047445   -0.0040755258
 O    1.1623033829   -0.5559610028   -0.2942134639
 C    1.0860863044   -1.8592952316   -0.8344491320
 C    0.0131003848   -2.1394157260   -1.9175338365
 O    0.0386528846   -3.5548497230   -1.5192195155
 C    0.0451043199   -2.8388199744   -0.2346860459
 C   -1.0394472723   -1.8884513034   -0.8061498501
 O   -1.1510273109   -0.5917599296   -0.2651217831
 H    0.8665515296    1.6183254364    0.6149244475
 H    2.0955786770   -2.2273478110   -1.0066132358
 H   -0.0038964334   -1.8955634954   -2.9780839584
 H    0.0657845906   -3.4184810807    0.6862289210
 H   -2.0397197824   -2.2898136709   -0.9539320043