22

 C   -0.5655118760    1.5682997911   -0.1983627227
 C   -0.3014675017    0.1187443910    0.2153491793
 C   -1.3976499666   -0.8490406855   -0.2515626540
 O   -1.5772267362   -0.7806939074   -1.6704435540
 C   -1.1238249055   -2.2820171626    0.2313732508
 N   -2.1289417098   -3.3112949488    0.0442510119
 C   -3.1222419725   -3.1265401675   -0.7065928951
 O   -4.0500025701   -4.1034927034   -0.8246433407
 C   -5.1040672003   -3.8309204645   -1.7381408256
 H    0.2610222720    2.2212282138    0.0971965842
 H   -0.6952073768    1.6414905610   -1.2811008181
 H   -1.4783883999    1.9505115742    0.2717188860
 H    0.6618198269   -0.2179069217   -0.1951670031
 H   -0.2091127601    0.0488961250    1.3061253883
 H   -2.3608007146   -0.5161446474    0.1580753200
 H   -0.7935570379   -1.1643382393   -2.0806164600
 H   -0.1877911093   -2.6347684227   -0.2323131440
 H   -0.9055316402   -2.2383635852    1.3068489321
 H   -3.3234697821   -2.2340372353   -1.3079152074
 H   -5.6371514114   -2.9080085381   -1.4776697613
 H   -4.7353685005   -3.7522152177   -2.7684007987
 H   -5.7957437875   -4.6718004089   -1.6710063378