17

 C   -0.1259199992    1.5695445626    0.0553320042
 C    0.0764037954    0.0603171502    0.0253016732
 C    1.1625502937   -0.5474847678   -0.9299158370
 C    1.7998769344   -1.2672621909    0.2731560389
 C    2.2138862045   -0.2534716468    1.3164018346
 C    0.7659870762   -0.6173160014    1.2217732803
 C    2.2937492068   -2.6036489219    0.2655249654
 N    2.6872332663   -3.6927333141    0.2444292071
 H    0.8100083795    2.1014731094    0.2541656066
 H   -0.5137359678    1.9283275286   -0.9040151823
 H   -0.8431971372    1.8539950601    0.8325992310
 H   -0.8805733869   -0.4328832330   -0.1674736527
 H    0.7448990880   -1.2309674206   -1.6699590242
 H    1.8223469663    0.1642511310   -1.4355413930
 H    2.7396932682   -0.6626589077    2.1719579961
 H    2.5785755275    0.7154269285    0.9858451100
 H    0.2556634142   -1.0936149662    2.0500786117