19

 C   -0.0264040123    1.5647285802   -0.0570228969
 C    0.0367009729    0.0330274625    0.0133711489
 C   -1.3208077109   -0.5960881209    0.1104679357
 C   -2.2909099294   -0.4430952551    1.3196985474
 C   -2.9866943224   -1.6909655849    0.7856998538
 C   -2.8328607314   -1.5615243406   -0.7642905113
 O   -2.1953942169   -0.3205271488   -1.0319466852
 C   -1.7391523362   -2.1457509541    0.0388100621
 O   -1.0618159563   -3.3290297992   -0.0721334288
 H    0.9753263917    1.9901123547   -0.1662582321
 H   -0.6299083378    1.8842632319   -0.9107265082
 H   -0.4737435078    1.9868314340    0.8486836871
 H    0.5396374177   -0.3630173493   -0.8763821945
 H    0.6298948452   -0.2847829013    0.8799811805
 H   -1.7886521296   -0.6324500633    2.2728382309
 H   -2.8532496682    0.4943855583    1.3612030827
 H   -3.7728221347   -2.2896591211    1.2282882301
 H   -3.5263742858   -1.9774288179   -1.4823960666
 H   -0.8122896778   -3.6270959551    0.8102805243