19

 C    0.0558713564    1.5070320466   -0.0057011661
 C    0.0194414941    0.0117880337    0.1015974807
 O    0.3833034814   -0.6194105283   -1.1376351225
 C    0.3083918850   -2.0285610926   -0.8117831408
 C   -0.1563063340   -1.9483082131    0.6428433217
 C    0.7924317835   -0.8144057701    1.1626040796
 O    2.1762161557   -0.9117103354    0.9615405227
 C   -1.2333982530   -0.8177491285    0.5086136750
 O   -1.8177600473   -0.3583885204    1.7059957681
 H    1.0848708679    1.8522929332   -0.1419958198
 H   -0.5368513252    1.8436653866   -0.8615172986
 H   -0.3529815103    1.9571341655    0.9028499386
 H   -0.4068247675   -2.5290702516   -1.4747959715
 H    1.2960150139   -2.4882259564   -0.9211547842
 H   -0.3357475572   -2.8785120850    1.1830799182
 H    0.5304714671   -0.5055029153    2.1765042627
 H    2.5737409420   -1.2839081072    1.7537652866
 H   -1.9715686849   -0.9461516907   -0.2931067358
 H   -2.4238998376   -1.0346683308    2.0244526854