23

 C   -0.1347605491    1.5387378482    0.0288254486
 C   -0.0426999921    0.0251145414    0.0050495469
 C   -1.2554732876   -0.6729970556   -0.5822093324
 C    1.3061061985   -0.6089654965   -0.2350714432
 O    2.3886238957    0.2444318430   -0.4777095454
 C    0.6861414986   -0.6643461521    1.1408283590
 C    1.3159725744   -0.0418035055    2.3938966824
 C    1.2120237674   -1.4349560136    3.0836410638
 C    0.3163094721   -1.9396032789    1.9130913371
 H    0.7905841503    1.9921475675    0.3869484226
 H   -0.3269441391    1.9299703991   -0.9769307316
 H   -0.9575003609    1.8671507916    0.6748484635
 H   -1.4296468185   -0.3509879281   -1.6156004583
 H   -1.1371001345   -1.7607402705   -0.5861014463
 H   -2.1594681135   -0.4413744467   -0.0061964861
 H    1.3221335980   -1.5356348918   -0.8137595054
 H    3.1681584117   -0.1356679734   -0.0587530487
 H    2.3198469425    0.3773784104    2.2765324834
 H    0.6857782251    0.7196906618    2.8641094264
 H    2.1732909392   -1.9530919723    3.1292646850
 H    0.7655507773   -1.4526492530    4.0801887258
 H   -0.7444218167   -1.9890330010    2.1805028519
 H    0.5977466511   -2.8931672239    1.4557779110