20

 C    0.0484653181    1.5582568500    0.1513122451
 C   -0.0533424801    0.0417211120   -0.0312230601
 C    0.6622260431   -0.4990822749   -1.2741198344
 C    0.1337198491    0.0807695824   -2.5934566771
 O    2.0751222586   -0.2427579337   -1.1341512878
 C    2.7503473393   -1.3466206703   -1.6560637209
 O    1.8928480593   -2.4791357043   -1.4937364206
 C    0.6208444395   -2.0220992721   -1.3173909077
 N   -0.4160574606   -2.7301021380   -1.2102488418
 H    1.0934812330    1.8812685996    0.1564221771
 H   -0.4731542174    2.1051041389   -0.6397930062
 H   -0.4012982761    1.8543617190    1.1035582892
 H    0.3796350266   -0.4618729362    0.8396763670
 H   -1.0980454954   -0.2797831114   -0.0901920254
 H    0.2721596634    1.1637370229   -2.6183187040
 H    0.6606897430   -0.3499800144   -3.4503328957
 H   -0.9289422769   -0.1509400693   -2.7017036114
 H    2.9759330528   -1.2337167522   -2.7286548213
 H    3.6725905029   -1.5134445955   -1.0920731478
 H   -0.1950631422   -3.7237135125   -1.2872840763