22

 C    0.0618040978    1.5819114357   -0.0509781876
 C    0.0259086644    0.0516355431   -0.0137346347
 C   -1.3980462585   -0.5126291848    0.0195298361
 C   -1.4409681160   -2.0427355681    0.0598913436
 C   -2.8815857474   -2.5888243009    0.0264869253
 O   -3.5598191414   -2.1579446169   -1.1242399077
 C   -2.8971171145   -4.1262207633    0.0422775183
 N   -2.4718223306   -4.7322926670    1.1770708086
 O   -3.2698200831   -4.7424792583   -0.9436013313
 H    1.0893212002    1.9581005035   -0.0776378991
 H   -0.4578426720    1.9669867907   -0.9352136700
 H   -0.4273897712    2.0109463451    0.8307262656
 H    0.5524493723   -0.3486976628   -0.8902157008
 H    0.5827961291   -0.3071355183    0.8627378536
 H   -1.9294255320   -0.1115584095    0.8947253450
 H   -1.9555844483   -0.1724909447   -0.8599317909
 H   -0.9008424730   -2.4548995857   -0.8022127393
 H   -0.9272609874   -2.4079746691    0.9597642065
 H   -3.4179988403   -2.2264874992    0.9196277840
 H   -3.7074815837   -2.9716691354   -1.6374239637
 H   -2.2193950570   -4.2109855966    1.9979073627
 H   -2.4796782775   -5.7380118776    1.2226895356