20

 C    0.0638585577    1.3847103218    0.1136028727
 O   -0.0877681190   -0.0048510975   -0.0802190627
 C    0.6451990807   -0.5402549925   -1.1711023845
 C    2.1341133689   -0.6788641287   -0.8499504892
 C   -0.0220733406   -1.9044161529   -1.4772576535
 C   -1.5180684184   -1.7643569109   -1.8015583705
 O   -2.0432400457   -3.0729292438   -1.9169828451
 C    0.6726174977   -2.5868683459   -2.5718412797
 N    1.2356672749   -3.0921371601   -3.4453735521
 H    1.0815392324    1.6588900225    0.4233762721
 H   -0.1857496859    1.9494397084   -0.7976880982
 H   -0.6290584302    1.6717276903    0.9079436545
 H    0.5197318888    0.1115707278   -2.0521584597
 H    2.2721583984   -1.3128162456    0.0315662080
 H    2.6725578339   -1.1231689703   -1.6905774938
 H    2.5806662438    0.2973386150   -0.6446759910
 H    0.0613078505   -2.5294484010   -0.5795118150
 H   -1.9867926732   -1.1999492650   -0.9876343653
 H   -1.6351754168   -1.1929454542   -2.7350895735
 H   -2.9610023278   -3.0097787375   -2.1963329735