13

 O    0.0771865544   -0.5911411627   -0.9859570910
 C   -0.0107170730    0.5299997692   -0.5584281610
 C    0.6701425704    0.9504300278    0.7638369525
 C    1.8713771085    1.7376573761    0.5036473667
 N    2.8303596820    2.3430906022    0.2836493262
 C   -0.7891135078    1.5853175442   -1.2882652701
 C   -1.9136567378    2.2754440819   -0.6197279283
 O   -0.6715949880    2.9287528933   -0.8286016739
 H   -0.0103445989    1.5457242303    1.3807002524
 H    0.9361354390    0.0362659315    1.3001037631
 H   -0.8330235311    1.4432619295   -2.3661619263
 H   -2.7435514879    2.6211462158   -1.2326350710
 H   -2.1606417397    2.0415086610    0.4148311108