19

 C    0.1728942243    1.4669540831    0.2569636913
 C   -0.1483458968    0.0426759693   -0.1977305842
 C    0.6769008775   -0.3709865680   -1.4141501589
 O    1.0672209773    0.4242031302   -2.2546657427
 N    0.9333862297   -1.7025066896   -1.5127284288
 C    1.6031783030   -2.2605138105   -2.6564605931
 C    1.5287692592   -3.7852899212   -2.5687817168
 N    2.1201430749   -4.4428841555   -3.5988404385
 O    0.9847877524   -4.3557113168   -1.6402795620
 H    1.1926855639    1.5354717939    0.6477515218
 H    0.0964811983    2.1539454727   -0.5881694409
 H   -0.5156119318    1.7896500981    1.0428643951
 H   -0.0081364444   -0.6766823977    0.6169897348
 H   -1.2046802755   -0.0261206863   -0.4904704775
 H    0.5707055916   -2.3813059037   -0.8578211884
 H    1.1427896123   -1.9117409069   -3.5901798513
 H    2.6556067407   -1.9472995571   -2.7005311143
 H    2.5509619394   -3.9609662229   -4.3683998972
 H    2.0994305341   -5.4491193710   -3.6039269085