20

 O    0.1111765510   -0.0778517318   -0.0208869974
 C    0.0170175055    1.1366109680    0.0015193063
 C   -1.3384434873    1.8214663029    0.1835207521
 C   -1.4797941831    2.9686472670    1.2050240958
 C   -0.4465730849    4.1022593630    1.1011198591
 C    0.1556450133    4.2795691524   -0.3243290400
 C    1.3109945853    3.3278178211    0.0966035698
 C    0.9728680132    3.6773060404    1.5770202270
 N    1.1170837644    1.9271080632   -0.2452305971
 H   -1.6370821000    2.1848947618   -0.8075651530
 H   -2.0312607695    1.0170773305    0.4374643963
 H   -2.4858757170    3.3848001834    1.0770706052
 H   -1.4478210756    2.5591109145    2.2224561840
 H   -0.8478643901    5.0049080568    1.5690716223
 H   -0.4419409645    4.0019782364   -1.1945944361
 H    0.5386044059    5.2922832797   -0.4735017340
 H    2.3071002293    3.5994000895   -0.2574729232
 H    1.5570408780    4.5294369426    1.9353458696
 H    1.0446709498    2.8609823198    2.3013607605
 H    1.9574469664    1.3707836887   -0.3206364772