16

 C   -0.0004456591    1.5216798786   -0.0305129504
 C   -0.0554900090   -0.0057850207   -0.0025105072
 N   -1.4307639057   -0.5310265743   -0.0057971877
 C   -2.0444631986   -0.7839026874   -1.2390756595
 N   -3.2998285289   -0.8138759114   -1.3841322416
 C   -2.0457402498   -0.6618825001    1.2233824832
 O   -1.5375215973   -0.2740047510    2.2546790115
 C   -3.3249418423   -1.3788623666    1.2881032604
 N   -4.2865457673   -1.9678189305    1.5407260112
 H    1.0417183390    1.8543813033   -0.0433440744
 H   -0.4981132898    1.9216962400   -0.9192056640
 H   -0.4825138631    1.9365640553    0.8574325147
 H    0.4508226670   -0.4298497745   -0.8751470726
 H    0.4354995010   -0.3863882252    0.8941371012
 H   -1.3019343317   -0.9354530747   -2.0303168839
 H   -3.5544714842   -1.0675120208   -2.3363063309