19

 O   -0.1449318441    1.4548462062   -0.0633432026
 C   -0.0263387162    0.0611578247    0.0022348297
 C   -0.5020736912   -0.6799307460    1.2460244401
 C   -1.2977986580   -0.6987163551   -0.0198565720
 C   -2.7446851997   -0.2492146904   -0.2227526492
 C   -2.8057522458    0.0555109747   -1.7349920309
 C   -2.0835045468   -1.2433960526   -2.2287662847
 C   -1.8379627117   -1.8724698274   -0.8390344985
 O   -3.1294867968   -1.6647384938   -0.1822195012
 H    0.5499460961    1.8408560768    0.4804298532
 H    0.8332193272   -0.3550894818   -0.5261254756
 H    0.0365737614   -1.5718899706    1.5515951110
 H   -0.8811639432   -0.0729043459    2.0625959476
 H   -3.2824446718    0.3852332080    0.4803833899
 H   -3.8368203334    0.1247495958   -2.0874736727
 H   -2.2738400233    0.9738813164   -1.9925002714
 H   -2.7251521910   -1.8782087614   -2.8432334059
 H   -1.1572892860   -1.0443516941   -2.7745330243
 H   -1.4538332755   -2.8900303735   -0.7649610123