16

 O   -0.0556818621   -0.0447970404    0.1197576314
 C   -0.0581506943    1.1565411699    0.0102012121
 C   -1.2767513292    2.0391950395   -0.1462401312
 C   -0.9576293275    3.3364840110    0.0051684100
 C    0.5180276051    3.4843192886    0.1591643261
 C    1.4481149665    3.8835286540    1.3262702190
 C    2.0778412910    2.4444739753    1.2654818066
 C    1.1073238621    2.1122611485    0.1144522301
 N    1.3683509205    3.0831972382   -0.9761352641
 H   -2.2544187957    1.6277792203   -0.3658512056
 H   -1.6534617705    4.1682038533   -0.0313723608
 H    2.1125729711    4.7249015992    1.1211359000
 H    0.9038631927    4.0637998149    2.2547105672
 H    3.1349450604    2.3817247498    1.0028828053
 H    1.8869608133    1.8567998643    2.1645068954
 H    0.7638657167    2.8624084935   -1.7654601715