23

 C    0.0545264355    1.5975144996   -0.1861429159
 C    0.0469079945    0.0671240830   -0.1885475355
 C   -1.3455056227   -0.5195725441    0.1215803810
 C   -1.3874563410   -2.0178866025    0.1226323895
 C   -1.5791264240   -2.8624695089    1.1400921321
 C   -1.8122110440   -2.5824405163    2.5897629484
 C   -1.5478419042   -4.2782067536    0.6237209319
 O   -1.3032208941   -4.1824785889   -0.7730551820
 C   -1.2167786759   -2.8139313298   -1.1487714838
 H    1.0518607473    1.9910849588   -0.4052773510
 H   -0.6345823467    1.9983438863   -0.9379047507
 H   -0.2535776134    1.9940493206    0.7878508961
 H    0.3909962129   -0.2991054637   -1.1632316191
 H    0.7640086240   -0.3114900464    0.5498546797
 H   -1.6853039888   -0.1339660462    1.0896076003
 H   -2.0576939989   -0.1379823147   -0.6251582931
 H   -2.7631353677   -3.0144518016    2.9272652840
 H   -1.0279648966   -3.0341873918    3.2108121245
 H   -1.8342482466   -1.5118834172    2.8068339607
 H   -0.7567078288   -4.8801632935    1.1016775081
 H   -2.5005329022   -4.8043636255    0.8076455213
 H   -1.9998526085   -2.5735414338   -1.8887523769
 H   -0.2487478201   -2.6290652898   -1.6415173095