16

 C    0.0044600580   -1.1676837333    0.0286864000
 C   -0.0076398059    0.0349315344    0.0376039187
 C   -0.0071958313    1.4701081220    0.0267450631
 C   -0.8374339442    2.2385050259   -1.0409642675
 C   -0.0522055629    3.5417849174   -0.8422821803
 O    1.2788122404    3.1405845565   -1.2885963968
 C    1.3318180304    2.3933507719   -0.0861960983
 C    0.4047975499    3.3376461947    0.6844179231
 N   -0.2908281579    2.2087198036    1.2984782181
 H    0.0145149708   -2.2295144372    0.0262794097
 H   -0.7222749383    1.8620698426   -2.0584997470
 H   -1.8959226670    2.2789317940   -0.7696226636
 H   -0.3999175595    4.4785863576   -1.2729040539
 H    2.2965654172    1.9892138708    0.2088788479
 H    0.7065906331    4.1932890791    1.2848361656
 H   -1.2857330128    2.3417226499    1.4798221412