19

 C   -0.0444409353    1.5295530608   -0.0884758314
 O    1.1686598622    0.7982328810   -0.2359768472
 C   -0.0378952382    0.0639460283    0.0344823449
 C   -0.1382896652   -0.5316313659    1.4368889545
 O   -0.1055864547   -1.9418256256    1.4889515774
 C    0.9691592972   -2.5572433581    0.7919195680
 C    0.5755372322   -2.8895211656   -0.6456614754
 O    0.4801361030   -1.7662381563   -1.4974340244
 C   -0.4896145795   -0.8031103568   -1.1313408220
 H   -0.1196209845    2.1417061977    0.8107612469
 H   -0.4303998934    1.9961157234   -0.9943642302
 H    0.6666542030   -0.0867610013    2.0424147873
 H   -1.0980491823   -0.2565123742    1.8879415899
 H    1.8682938732   -1.9255498617    0.8057620849
 H    1.1943434899   -3.4896825381    1.3229986865
 H    1.3356814417   -3.5377333654   -1.0951716099
 H   -0.3794920442   -3.4398620051   -0.6205785442
 H   -1.4525437054   -1.2809441083   -0.8911019493
 H   -0.6233210998   -0.1734477789   -2.0152677861