18

 C   -0.1197115602    1.4827382665    0.0672264801
 C    0.0123143035   -0.0050031905   -0.0126265311
 C   -0.0714741945   -0.7739692503   -1.0985291637
 C    0.0645863866   -2.2442827186   -0.7928318705
 C    0.5548663348   -2.2625779348    0.6881297454
 C    0.2237756861   -0.8429200981    1.2329712950
 C   -0.1057358100   -3.3539053030    1.4931634754
 O    0.4616304489   -4.2535434352    2.0565124894
 H    0.7813431008    1.9384158878    0.4971481227
 H   -0.2892239574    1.9264785002   -0.9173253879
 H   -0.9539443471    1.7719842669    0.7194108003
 H   -0.2567808616   -0.4076147997   -2.1029209871
 H   -0.9013808140   -2.7599023070   -0.9076424376
 H    0.7666555669   -2.7669695509   -1.4511324828
 H    1.6334781542   -2.4324167614    0.7197914864
 H    1.0235738162   -0.4612783822    1.8776249563
 H   -0.6882828925   -0.8435588734    1.8503408051
 H   -1.2197175507   -3.2650917463    1.5312725145