18

 C    0.2856355781    1.5440295710    0.1541347008
 C   -0.2349404197    0.1382103116   -0.1658807575
 C    0.4851386856   -0.4808659559   -1.3416919093
 N    1.7808150697   -1.1173216337   -1.0632252774
 C    0.6621902497   -1.9483273483   -1.4782611400
 C    0.0640755410   -3.1594438947   -0.7743763711
 O   -0.0469916593   -3.8246613384   -2.0810601804
 C    0.5404803238   -2.7658892219   -2.7375733766
 O    0.8169972698   -2.6684421675   -3.8904430097
 H    1.3534273153    1.5137938269    0.3906960653
 H    0.1465897095    2.2214484023   -0.6953942889
 H   -0.2414040482    1.9720561908    1.0116146004
 H   -0.1085710450   -0.5117830821    0.7070114100
 H   -1.3090101813    0.1747543702   -0.3872562863
 H    0.3945267217    0.0584846970   -2.2846414594
 H    2.4283245329   -1.0013842103   -1.8406882756
 H    0.7411558782   -3.7056850373   -0.1152607515
 H   -0.9201515816   -3.0363889097   -0.3183391928