21

 C    0.3202524236    1.5713324202   -0.1707350520
 C   -0.0258735802    0.1182889214    0.0889987367
 O    0.6009762540   -0.7711992267   -0.8725263211
 C    1.2444795979   -1.5351850172    0.1504686157
 C    1.0915419647   -3.0682541721    0.1222666638
 O    2.5222493387   -3.2501825286    0.1472368775
 C    2.7481576400   -1.8345125203   -0.0095028354
 C    0.6406211076   -0.6503063102    1.2660492727
 C    1.5875367338    0.0845573552    2.2039741908
 H    1.4005803081    1.7385861743   -0.1602689911
 H   -0.0572299054    1.8676634809   -1.1543892257
 H   -0.1429620013    2.2211760436    0.5796443725
 H   -1.1164666112   -0.0083264883    0.0624137902
 H    0.5986579572   -3.5373645620    0.9831818855
 H    0.6374174663   -3.4340255622   -0.8080759304
 H    3.1206337390   -1.5751711393   -1.0093524281
 H    3.4310469314   -1.4382542400    0.7510594439
 H   -0.0980276648   -1.2018472007    1.8556006670
 H    2.3651195837    0.6319179055    1.6633695931
 H    1.0427743816    0.8034580910    2.8247178998
 H    2.0865680454   -0.6202512845    2.8773228344