19

 C   -0.0637378856   -1.1430546036    0.4617261646
 C   -0.0268664753    0.0194561767    0.1590042095
 C    0.0372916221    1.4361597566   -0.1995265372
 C    1.4401722776    1.9912252482   -0.1580590950
 C    2.0795768083    2.6148112282   -1.1523195453
 C    3.4786383807    3.0418505069   -0.7617687085
 C    3.5653987980    2.6666047749    0.7184885958
 C    2.5965514542    3.3113430107    1.6744032806
 C    2.2742109508    1.9520187665    1.0825654148
 H   -0.1039831520   -2.1712352939    0.7232778960
 H   -0.3880170413    1.5824371718   -1.1992538537
 H   -0.6017972758    2.0008724149    0.4953045859
 H    1.6565416071    2.8197892176   -2.1300959501
 H    4.2354481853    2.5106767011   -1.3551886085
 H    3.6509057712    4.1125758922   -0.9337489990
 H    4.5148045057    2.3276280808    1.1154408465
 H    2.8884556469    3.3468888383    2.7190686436
 H    2.0111940577    4.1620779697    1.3385614891
 H    2.2394888242    1.0821099022    1.7283614110