16

 C   -0.2634398343    1.6170985839    0.0440999487
 C   -0.0392962151    0.1031962150    0.0422543539
 C    0.6702778919   -0.4089623845   -1.2284159439
 O    0.0671862883    0.0666045644   -2.4313342445
 C    2.1308263926    0.0974838331   -1.3129849070
 O    2.7914948849    0.4220194409   -0.3666087973
 C    0.7508052714   -1.8735471963   -1.2337746037
 C    0.8133539321   -3.0743953366   -1.2564019573
 H    0.6865077935    2.1582317201    0.0516032590
 H   -0.8285838533    1.9296529759   -0.8373702005
 H   -0.8235491695    1.9133786012    0.9354934348
 H    0.5700677683   -0.1967893503    0.9001023236
 H   -0.9956488241   -0.4252843497    0.1266330415
 H   -0.7004848733   -0.4845761729   -2.6168236183
 H    2.5088901804    0.1185050937   -2.3563327896
 H    0.8693510563   -4.1353873579   -1.2706181394