20

 C    0.0416358795    1.5536103956    0.1894013010
 C   -0.0232252699    0.0673090050   -0.0035100887
 C   -0.9146638212   -0.8238740516    0.7729818652
 N    0.5401091166   -0.9236838950    1.0156504698
 C    1.0762082255   -1.7437479972   -0.1272114814
 C    0.5685604411   -0.7280336310   -1.1535355182
 C    0.0140837799   -0.9460250712   -2.5425465871
 C    1.3221334041   -0.2166212570   -2.3341743766
 O    1.3721064607    1.1693727008   -2.5164377556
 H    1.0431187668    1.9368132710   -0.0186491697
 H   -0.6536642221    2.0648336179   -0.4849611700
 H   -0.2283037921    1.8066673710    1.2190345421
 H   -1.4513210205   -0.3887722742    1.6112729983
 H   -1.4269342709   -1.6520178994    0.2859935729
 H    2.1662946745   -1.8052324421   -0.0670738897
 H    0.6589691569   -2.7565227237   -0.1756542010
 H    0.0317852900   -1.9472795821   -2.9620527629
 H   -0.8384438480   -0.3397133410   -2.8339014505
 H    2.2413748266   -0.7440795977   -2.5969813243
 H    1.3121959025    1.3462645418   -3.4611755434