17

 C   -0.0096802315    1.5973652302    0.1358874775
 O    1.3991393965    1.9085535919   -0.0254201660
 C    2.1289227912    0.8251324417   -0.6457679577
 C    1.0395987867   -0.1656363449   -0.9401151797
 C   -0.0763477460    0.0771676009    0.0775991433
 C   -0.7702731083   -0.7993205466   -0.9945148093
 C    0.0382931163   -0.1674751202   -2.1574709791
 O    0.5118416173   -1.4370728168   -2.6971529853
 C    0.5584886488   -1.6207193726   -1.2589611492
 H   -0.3243660165    2.0312389883    1.0885000914
 H   -0.5903037186    2.0704537900   -0.6692798984
 H    2.6440683948    1.2007650580   -1.5365331481
 H    2.8773902863    0.4412602812    0.0595245447
 H    0.0645393661   -0.3945570105    1.0545495166
 H   -1.7844971360   -1.1957045686   -1.0424204370
 H   -0.2254860257    0.6254141536   -2.8552301177
 H    0.8848175584   -2.5782992756   -0.8541947963