20

 C    0.0358087836    0.7343297967   -0.7401761845
 C    1.2153390042    0.8186073202    0.2032628111
 C    0.5300711469   -0.4985361259   -0.0165318746
 N   -0.1126908752   -1.1661874613    1.0899928393
 C   -1.2636905226   -0.5870968117    1.7695468923
 C   -1.4203485341   -1.8071974009    0.9291486100
 C   -2.2067858978   -1.7551101117   -0.3473870146
 C   -3.6683945854   -1.5915245034   -0.3248694676
 O   -2.8151234626   -0.5236220563   -0.7378011123
 H   -0.8973455190    1.1897842781   -0.4344748896
 H    0.2186500495    0.7919018596   -1.8080485040
 H    2.2112998170    0.9639476318   -0.2001695131
 H    1.0466943698    1.3014664005    1.1603304002
 H    1.0692560466   -1.2191454721   -0.6255921985
 H   -1.2525397584   -0.6594321883    2.8541279682
 H   -1.7130848434    0.3191596177    1.3718658450
 H   -1.4788967240   -2.7815849794    1.4151267937
 H   -1.7783051451   -2.3123112418   -1.1821319278
 H   -4.2774310017   -2.0347577807   -1.1110250160
 H   -4.1704018782   -1.4425548311    0.6299571229