20

 C   -0.1939367664    1.5460414017   -0.0587443131
 C    0.0669497699    0.0400193533    0.0252976903
 O   -1.1508796266   -0.6919423174    0.0922483885
 C    0.8862105977   -0.4760018292   -1.1382175370
 C    1.9867491679    0.2117463213   -1.9352237032
 C    1.5675808489   -0.7582110343   -3.0541323861
 C    1.9496558631   -2.1679030657   -2.5635996854
 C    0.8752850811   -1.9238309566   -1.5203832843
 N    0.1589686611   -0.9158026427   -2.3871124648
 H    0.7358725379    2.1197447938    0.0150967937
 H   -0.6801671748    1.8004867845   -1.0069593071
 H   -0.8527774169    1.8478276916    0.7592850099
 H    0.5911141621   -0.1812320135    0.9641876621
 H   -1.5166566058   -0.6821177715   -0.8035144132
 H    1.7129507618    1.2418844996   -2.1748211917
 H    3.0198971806    0.1764446706   -1.5735076880
 H    1.6314407303   -0.4794926443   -4.1039612248
 H    1.6375309416   -2.9397148907   -3.2717039208
 H    2.9831343191   -2.3465916517   -2.2484554589
 H    0.3158912975   -2.6499399790   -0.9439754458