16

 C   -0.0603037625    1.5765694267   -0.0307254310
 C    0.0067800735    0.0613945332   -0.0051244118
 O   -1.2638555677   -0.5436304254    0.1517714951
 C    0.7113105949   -0.6466117531   -1.1732823301
 O    2.0791031591   -0.2169901213   -1.1525304215
 C    1.6832141378   -1.2995677948   -0.2851233080
 C    1.0964889722   -0.6116820675    0.9537349100
 O    1.9626259407    0.1975914131    1.6977875389
 H    0.9037312204    2.0042690198   -0.3163132884
 H   -0.8168037788    1.9077052380   -0.7485875302
 H   -0.3194245373    1.9683785998    0.9595284156
 H   -1.6695886347   -0.1803547631    0.9465941729
 H    0.2913598762   -0.9712623175   -2.1177986492
 H    2.2256661306   -2.2325040959   -0.3850560874
 H    0.5963852269   -1.2991925294    1.6403140928
 H    2.5231082786    0.6552711373    1.0585612625