15

 C   -0.0193786735    1.3987712761   -0.0253846133
 C    0.1393985190   -0.0434264364   -0.0733015108
 C    0.2729481323   -1.2400659538   -0.1129117195
 C    0.3918110232   -2.6675566412   -0.2299578821
 O   -0.0595447414   -3.3349559087   -1.1293756429
 O    1.0845008938   -3.1892937123    0.8118212844
 C    1.2049069753   -4.6138658546    0.7871715845
 C    2.1190203194   -5.1020617272   -0.3304780220
 O    2.2512141064   -6.2645913545   -0.5970094823
 H    0.1116457906    1.7790788957    0.9927168259
 H    0.7222562035    1.8874034760   -0.6665908974
 H   -1.0126396908    1.6947730929   -0.3784551715
 H    1.6440346306   -4.8833710136    1.7517054814
 H    0.2282743261   -5.0943392427    0.6858308336
 H    2.6812411254   -4.2973996857   -0.8532140680