27

 C   -0.0657120199    1.5145826741    0.1959521294
 C   -0.0204036499   -0.0110190719    0.0679629625
 C    0.6854719698   -0.5494080930   -1.2007282772
 C    0.6063728152   -2.0847501120   -1.2079989057
 O    0.0637777605    0.0096652432   -2.3758115652
 C   -1.2458698826   -0.3962482353   -2.6988528804
 C    2.1522027591   -0.0374486105   -1.3203768992
 C    3.0142508822   -0.2964250232   -0.0761538438
 C    2.8568001807   -0.5733189331   -2.5771016446
 H    0.9266854251    1.9440882266    0.3628778237
 H   -0.4738064930    1.9674303982   -0.7117408504
 H   -0.6966557904    1.8108449979    1.0397039422
 H    0.4583814127   -0.4519662454    0.9491807188
 H   -1.0454590269   -0.4005557282    0.0756773429
 H   -0.4131911630   -2.4322178503   -1.0179779305
 H    0.9320443968   -2.4946979270   -2.1671337951
 H    1.2409188322   -2.5061974919   -0.4235629491
 H   -1.9699207149   -0.1939388031   -1.8966918446
 H   -1.5401719131    0.1868232922   -3.5759861091
 H   -1.3091243658   -1.4619967179   -2.9584546277
 H    2.0599829506    1.0475469574   -1.4455487402
 H    3.1239801839   -1.3671929327    0.1287852081
 H    4.0209997890    0.1038943083   -0.2344331122
 H    2.6131767114    0.1780780178    0.8233279003
 H    3.7997479099   -0.0400140052   -2.7364485615
 H    3.0986533827   -1.6378511275   -2.4833666141
 H    2.2313257482   -0.4373945676   -3.4611169474