18

 C   -0.2577588147    1.2419052339    0.0581296037
 O    0.3070887971   -0.0555989002   -0.0456212351
 C    0.8698705841   -0.5260391868    1.1239022378
 C    2.1325410611    0.0572214097    1.7414483670
 C    2.2430697709   -0.8874818463    2.9112465823
 C    1.7172761298   -2.2358003392    2.5682055463
 C    0.7975387763   -2.0253312377    1.3590761736
 C   -0.0016412085   -1.0869162904    2.2304822016
 N    0.8942632650   -1.3164115811    3.4242819274
 H    0.5086776956    2.0070174717    0.2416126830
 H   -0.7422818948    1.4509622256   -0.8979388384
 H   -1.0041889519    1.2931446504    0.8619942603
 H    2.9949862201   -0.0102721881    1.0701585195
 H    2.0075118796    1.0981831543    2.0573054847
 H    2.9920306704   -0.7581000792    3.6838723484
 H    2.0963715951   -3.1794197393    2.9433695292
 H    0.4814537238   -2.7333001811    0.6070211726
 H   -1.0656187289   -0.9339987363    2.3509502763