20

 C   -0.0514825631    1.4931027191    0.0277122363
 C   -0.0542205334   -0.0024234238   -0.0634358033
 C    0.8561100923   -0.9493781763   -0.9255105322
 C    1.9186775043   -0.9066631857    0.1636246962
 N    0.6541537443   -0.9001297529    1.0177778428
 C   -0.0152170847   -1.8613788530   -0.0100170116
 C   -1.2289953027   -0.9665041628   -0.1152267266
 C   -2.5543693061   -0.9732016591    0.5637437311
 C   -2.4597369179   -1.0155109039   -0.9574836744
 H    0.9674402232    1.8867598851    0.0993214703
 H   -0.5218716688    1.9343695930   -0.8577590575
 H   -0.6053176749    1.8237206639    0.9122956329
 H    0.9427466282   -0.9813159729   -2.0174886288
 H    2.5367326258   -1.7979978759    0.3144355217
 H    2.5284108897   -0.0033576230    0.2684947653
 H    0.0585549830   -2.9424479854    0.1204286903
 H   -2.8677798795   -1.8753551603    1.0790280749
 H   -2.9057533477   -0.0548190853    1.0234073465
 H   -2.7493824907   -0.1255172377   -1.5078409262
 H   -2.7115606416   -1.9459434430   -1.4566891377