20

 C   -0.1315240555    1.5328558406    0.1804835192
 C    0.0524379312    0.0494672587   -0.0478748523
 C    0.6112350441   -0.6418111143   -1.2338325682
 N    1.3186224605   -0.6929268578    0.1202542353
 C    2.4314785475    0.1378023080   -0.4727709266
 C    1.8212527753    0.0516753806   -1.8906008094
 C    2.5756034678   -0.9009602242   -2.8283144700
 C    1.5251806041    1.3255101664   -2.6429687603
 O    1.9892905294    2.4095773365   -2.3913821914
 H    0.6153657065    2.1566665496   -0.3090928431
 H   -1.1150061361    1.8398908584   -0.1910288832
 H   -0.1032049218    1.7462517221    1.2546284129
 H   -0.7441788863   -0.5346068008    0.4131613411
 H    0.1410980867   -1.5255774524   -1.6585116077
 H    2.5368423223    1.1393570528   -0.0509515261
 H    3.3792456674   -0.3937212842   -0.3701855930
 H    2.7232819034   -1.8689754441   -2.3406928599
 H    2.0164150676   -1.0715472768   -3.7554846040
 H    3.5561679624   -0.4920596116   -3.0920665638
 H    0.8197674736    1.1879792024   -3.4976597094