21

 C   -0.5656079138    1.2513362410    0.0682689078
 C    0.1389208991   -0.1043934082   -0.1374958939
 C    1.0904071642   -0.0639729452   -1.3499324442
 C    0.8497496996   -0.5182509987    1.0733959460
 C    1.4528741135   -0.8375053944    2.0656654346
 C    2.1633653118   -1.2537748462    3.2809813638
 C    1.7410429629   -2.6779147273    3.7227766536
 C    3.6189676436   -1.1671980849    3.1115610290
 C    4.8134414707   -1.1184521740    2.9943565449
 H    0.1672150810    2.0387986642    0.2696053684
 H   -1.1280922628    1.5267580937   -0.8296694107
 H   -1.2593994828    1.2107862988    0.9121133936
 H   -0.6359562948   -0.8558136051   -0.3454011215
 H    1.8790137173    0.6787319857   -1.1951119288
 H    1.5670876798   -1.0347241514   -1.5084406904
 H    0.5379993133    0.2040393065   -2.2563463393
 H    1.8843274688   -0.5625980208    4.0900165913
 H    2.0008975416   -3.4056393461    2.9509071049
 H    2.2529720155   -2.9506928006    4.6490872953
 H    0.6610153711   -2.7106289716    3.8860389167
 H    5.8678580606   -1.0646617352    2.8818524186