12

 N    0.0223396484    1.2387202735    0.0089920138
 N    1.0494291405    2.0721142875    0.0034333365
 C    2.2633490839    1.5300868532   -0.0113756006
 C    2.4075991659    0.1433700314   -0.0202729248
 N    3.4455313875   -0.6917697519   -0.0349341667
 C    2.8222152097   -1.9111836739   -0.0354244433
 N    1.4835106042   -1.9524733614   -0.0225558896
 C    1.1757988601   -0.6369401396   -0.0124210724
 N   -0.0240509709   -0.0806207882    0.0023279957
 H   -0.8815982931    1.6918840884    0.0202844628
 H    3.0923093549    2.2285945697   -0.0157187102
 H    3.4085486489   -2.8224431987   -0.0460762813