23

 C   -0.0144919194    1.4851549886    0.2931765151
 C   -0.0041132516    0.0407086018   -0.2209308427
 C   -1.3620935226   -0.6193970458   -0.1175554890
 C   -1.5965356953   -2.1110593138   -0.1281817245
 C   -0.4421045544   -3.0592420683    0.2003761900
 C   -0.0737832411   -2.7275221661    1.6377870013
 C    1.0766912550   -3.3925001715    2.3253056211
 C   -0.8894742538   -1.7886453726    2.1334510236
 C   -1.8885850133   -1.3107906145    1.1374976702
 H    0.9685175906    1.9542528708    0.1838760449
 H   -0.7387592657    2.0976069003   -0.2556737764
 H   -0.2889837804    1.5196011270    1.3527139654
 H    0.3181554839    0.0265236656   -1.2708653212
 H    0.7391851949   -0.5358598666    0.3377433788
 H   -2.1380720651   -0.0679368140   -0.6473630324
 H   -2.4046580561   -2.4871177697   -0.7452686274
 H   -0.7491077182   -4.1100178047    0.1044344503
 H    0.4159885954   -2.9332092382   -0.4748841285
 H    2.0256288446   -3.1872955470    1.8128613108
 H    1.1755136293   -3.0573763921    3.3615376912
 H    0.9588464607   -4.4841778323    2.3297036622
 H   -0.8256355199   -1.3890975069    3.1404658238
 H   -2.8996751575   -1.0847694501    1.4607254632