21

 C    0.7174115745    2.0272378744    0.3613857963
 C    0.6880429179    0.5149704458    0.3083330609
 C    0.8079097390   -0.3672827343   -0.9330916176
 C    1.4169963591    0.1374321024   -2.2450886829
 C    0.6195518809    1.2185840063   -2.9920103227
 C    2.8199667318    0.5481153869   -1.8296199676
 C    3.0855030944    0.2378820686   -0.5596077950
 C    1.8997428191   -0.3752712412    0.1191167639
 O    2.0955069252   -1.4845110502    0.9485444000
 H    1.5015142068    2.4440200692   -0.2739315339
 H   -0.2403978208    2.4528840141    0.0429981630
 H    0.9030997159    2.3706835401    1.3860199532
 H   -0.0139262797    0.0731631831    1.0143393309
 H    0.1179707118   -1.2019174977   -0.9814990489
 H    1.5013586540   -0.7215211793   -2.9289286935
 H    0.4976962353    2.1234735725   -2.3923463791
 H    1.1260497109    1.4976519792   -3.9224363486
 H   -0.3775901457    0.8511970305   -3.2542265295
 H    3.5005071310    1.0459167174   -2.5129377089
 H    4.0242840525    0.4095035891   -0.0439144179
 H    2.2577945362   -1.1636080968    1.8418067576