19

 C    0.0225733761    1.5178111778    0.0846122945
 C    0.0043810309   -0.0158538024   -0.0173891699
 O   -1.3177476453   -0.5435265538    0.0468981449
 C   -1.8693193870   -0.5977810841    1.3457665461
 C   -3.1906972191   -1.3680902277    1.2395067404
 C   -3.8651013981   -1.4806538769    2.5254113215
 C   -4.3977418798   -1.5580395927    3.5999223136
 C    0.6032631021   -0.4676335756   -1.2736243434
 C    1.1187860464   -0.8096331067   -2.3029732008
 H    1.0474663548    1.8888941774    0.0001172041
 H   -0.5752742287    1.9501751559   -0.7214086772
 H   -0.3831605769    1.8472491685    1.0449457418
 H    0.5948447263   -0.4331338739    0.8159991072
 H   -1.1872043437   -1.1140829187    2.0393501724
 H   -2.0595696634    0.4055463749    1.7533380174
 H   -3.8347381005   -0.8569684602    0.5142739744
 H   -2.9840758309   -2.3620275898    0.8261568692
 H   -4.8806245010   -1.6350601429    4.5423173822
 H    1.5693002679   -1.1236979891   -3.2119877485