17

 C   -0.0006021535    1.5497339897    0.0367094321
 C    0.0060631957    0.0437512522   -0.0584094453
 C    0.7312889203   -0.6849308271   -1.2306471153
 C    1.0959345117   -1.6667216910   -0.0919311827
 O    0.9498337535   -0.5875927398    0.8714598081
 C   -0.0527726435   -2.6604259128    0.1374696911
 O    0.0871730636   -3.8627274497    0.1498180307
 C   -1.3557944058   -1.9581233635    0.2937998056
 C   -1.3440449235   -0.6256843005    0.1577294202
 H    1.0079534789    1.9445885072   -0.1065391106
 H   -0.6586608586    1.9791575990   -0.7261667941
 H   -0.3609828450    1.8705176911    1.0196075272
 H    0.1342462298   -1.0409528995   -2.0714128585
 H    1.6064835320   -0.1307850088   -1.5764488598
 H    2.0716377732   -2.1538169900   -0.0644198191
 H   -2.2479760024   -2.5497031658    0.4669996851
 H   -2.2456231565   -0.0208540508    0.1916290455