18

 C   -0.0325914492    1.5696409426    0.0096915626
 C   -0.0102998683    0.0487689674    0.0139148120
 C   -1.3445335644   -0.6409990928   -0.0859568509
 C   -1.5093783187   -1.5942034207    0.8320713613
 C   -0.3282650680   -1.7229206075    1.7666760542
 C    0.7036684782   -0.7430558091    1.1748698379
 N    1.5988380162   -1.2896456742    0.1506212009
 C    1.0608049417   -0.6135021961   -0.9164228660
 O    1.3343643567   -0.5689308901   -2.0851342516
 H    0.9679960671    1.9815742274    0.1748494349
 H   -0.3857575838    1.9378127323   -0.9588359495
 H   -0.7000252407    1.9583647050    0.7854362270
 H   -2.0625094624   -0.3808524569   -0.8556726426
 H   -2.3856643172   -2.2280076235    0.9161684565
 H   -0.5956304597   -1.4554605004    2.7971280981
 H    0.0676826674   -2.7458917952    1.8056662853
 H    1.2243032544   -0.1400816283    1.9237709948
 H    2.3330267305   -1.9814594399    0.1988165749