22

 C    0.1825847291    1.3619867970    0.3554133641
 C    0.0430161265   -0.1003734375   -0.0811657097
 C    0.6474306920   -0.4314397214   -1.4503952280
 C   -0.0053013694    0.3455484798   -2.5935976252
 C    2.2232351749   -0.3752532303   -1.5051982331
 C    2.2070133814   -1.8230812201   -1.9396111196
 C    0.7147823914   -1.9742013562   -1.7501820253
 N    3.1504570031   -2.5573128927   -2.3567096174
 O    2.6755725143   -3.8442200464   -2.6839304312
 H    1.2305664903    1.6818402577    0.3528002818
 H   -0.3729892945    2.0388740886   -0.3003780778
 H   -0.2013315955    1.5007576151    1.3707004664
 H    0.5181717766   -0.7440215665    0.6708766945
 H   -1.0194484852   -0.3800353951   -0.0898882777
 H    0.1449399764    1.4247208966   -2.4891241958
 H    0.4171932460    0.0473245245   -3.5592774736
 H   -1.0845038103    0.1563664069   -2.6298272593
 H    2.6588117176    0.3333912522   -2.2154163590
 H    2.6941152382   -0.2173058024   -0.5288717921
 H    0.4447374351   -2.6122241962   -0.9015255975
 H    0.1648975581   -2.3261723796   -2.6281133747
 H    3.4769884539   -4.2818126239   -2.9899472597