16

 C    0.5456159052    1.3611163491   -0.2395406425
 C   -0.1325620579    0.0605017409    0.1741573558
 O   -0.0902561521   -0.9476934350   -0.8597564718
 C    1.1401434509   -1.6490945468   -0.7874232493
 C    1.6463298835   -1.4236394697    0.6285404234
 O    2.7211457010   -1.6904301184    1.1027084094
 C    0.5567219400   -0.6447726739    1.3586050435
 O    1.0757430890    0.1787224948    2.3612983530
 H    1.6125289047    1.2165825982   -0.4412058542
 H    0.0738880422    1.7557761320   -1.1429705348
 H    0.4593590510    2.0986829747    0.5621088501
 H   -1.1940811853    0.2346090145    0.3650065099
 H    0.9709550219   -2.7110249565   -0.9985606150
 H    1.8855859494   -1.2763775232   -1.5056243330
 H   -0.1513374815   -1.3866480190    1.7692661295
 H    1.9567743379   -0.1706040017    2.5645400159