17

 O    0.0486541786   -0.0410411165    0.0072843594
 C    0.0097084108    1.1672762569   -0.0212846953
 C   -1.2888666765    2.0213352100   -0.0629308914
 C   -0.7880072836    3.4249483755   -0.4195558528
 C   -1.2435200883    4.7416010221    0.2524027502
 C    0.0637225131    5.5040590961    0.3728145065
 C    1.1419921111    4.7226880569    0.1711534750
 C    0.6929141378    3.3674185870   -0.0870521175
 C    1.1507343515    2.1100691887    0.0494356975
 H   -2.0144972302    1.5945495858   -0.7583058284
 H   -1.7334002462    1.9903091747    0.9388167387
 H   -0.8727355376    3.5720772812   -1.5049199312
 H   -2.0042647536    5.2855412687   -0.3161374811
 H   -1.6635250067    4.5666380091    1.2531994708
 H    0.1025677013    6.5506188211    0.6548712465
 H    2.1752031973    5.0281375876    0.2762657450
 H    2.1616187511    1.7866061053    0.2595916981