15

 C   -0.1134096408    1.5172663827   -0.0299232112
 N    0.0631628207    0.0592416155    0.0126993649
 C    0.7325107909   -0.4999898572   -1.1453271391
 C    0.5807234893   -2.0353831617   -1.2819183569
 O   -0.2921911147   -1.8627036453   -2.4422784740
 C   -0.1955064936   -0.5061748320   -2.4013844875
 O   -0.7060587573    0.3016905328   -3.1012138135
 C    2.0903340812    0.0127539206   -1.3854964991
 N    3.1565349400    0.4389538036   -1.5216736628
 H    0.8328099204    2.0752097655   -0.0876353583
 H   -0.7219659627    1.7789612031   -0.8980750916
 H   -0.6485073745    1.8231278178    0.8718397593
 H    0.5774334908   -0.2016147367    0.8489175191
 H    1.4808509896   -2.5885785599   -1.5504020931
 H    0.0418861407   -2.4987576889   -0.4551766963