15

 C   -0.1901803743    1.3888127437   -0.0056088026
 N    0.0559181471   -0.0428340773    0.0070823642
 N    0.2143719297   -0.6382273371   -1.1932066138
 C    0.5411495174   -1.8907178468   -1.1962147076
 C    0.7544064771   -2.6656185109    0.0072051667
 C    0.5927498188   -1.8750097078    1.2172487891
 N    0.2656837330   -0.6195316459    1.1968807691
 N    1.0591435097   -3.9191824053   -0.0912179641
 O    1.2307460452   -4.4862890389    1.1859390736
 H    0.7412744518    1.9502141202   -0.1440226031
 H   -0.8699634749    1.6203951426   -0.8263228521
 H   -0.6384121617    1.6635684660    0.9484276130
 H    0.6550542466   -2.3610666245   -2.1675851989
 H    0.7439964888   -2.3187247274    2.1919409622
 H    1.4448027656   -5.4001075206    0.9734074842