21

 C    0.4533069431    1.6717597810   -0.1517841795
 O   -0.1312471697    0.4158383205   -0.4130969972
 C    0.7143855900   -0.5080075704   -1.0728066928
 C    1.7691389777   -1.1007693689   -0.1283756809
 C   -0.0978627942   -1.6299182627   -1.6948756881
 O   -0.8985366655   -2.4576888620   -0.8515069209
 C   -1.5527574918   -1.7158353237   -1.9014209132
 C   -2.6098955350   -0.7264071558   -1.4737948512
 O   -3.8627387343   -1.3831046031   -1.3187268727
 H    1.2628288916    1.6161816129    0.5892858139
 H    0.8544107220    2.1294762265   -1.0695514429
 H   -0.3357564279    2.3141425479    0.2462620009
 H    1.2237983815    0.0044507680   -1.9085984023
 H    2.4106731559   -1.8076013784   -0.6637538916
 H    2.4114151570   -0.3233259800    0.2929205243
 H    1.2705525047   -1.6312405166    0.6868740036
 H    0.5151976706   -2.2006916717   -2.3990013929
 H   -1.8857786474   -2.3484253026   -2.7283504889
 H   -2.2949628363   -0.2115364571   -0.5640310502
 H   -2.7573102328    0.0210879429   -2.2611105048
 H   -3.7665727491   -2.0021945667   -0.5871609126