17

 O   -0.6900101742    0.6103405148   -0.0442859318
 C   -0.0920163982    1.6561579331   -0.0148418311
 C    1.4128811831    1.7885325597    0.0275931030
 C    1.9372430708    2.6377303247   -1.1583107725
 C    1.7987905728    4.1138603907   -0.7134323776
 C    1.7382564134    4.0946565892    0.8409535431
 C    1.8724245836    2.6112759948    1.2576264699
 H   -0.6493158592    2.6238204851   -0.0183122075
 H    1.8211832204    0.7746436327    0.0270903388
 H    2.9906470718    2.3832881175   -1.3155820728
 H    1.4168135936    2.4256149985   -2.0970731983
 H    2.6307015027    4.7171635238   -1.0861480974
 H    0.8875121826    4.5572052529   -1.1255087283
 H    2.5233019259    4.7060668167    1.2935231887
 H    0.7866146835    4.5064769337    1.1900735809
 H    1.3113101770    2.3712704362    2.1657729706
 H    2.9204834705    2.3636519458    1.4569239924