20

 C    0.0342362694    1.5651634058   -0.0504985877
 C   -0.0287807345    0.0390158149   -0.0347149574
 C   -1.4801711489   -0.4389676383    0.1004314972
 C    0.6415469328   -0.6319865853   -1.2583320683
 C    1.2867352836   -1.9042938283   -0.6866379627
 O    1.5555179585   -2.9112544092   -1.2899680937
 C    1.4526852416   -1.6778431627    0.7855879185
 C    2.1336214142   -0.3889517411    1.1321254591
 N    0.6854535421   -0.4823671019    1.1851518013
 H    1.0639238936    1.9260411564   -0.1347828006
 H   -0.5308582293    1.9633008651   -0.8988781121
 H   -0.3946711639    1.9733918190    0.8696604864
 H   -2.0835364996   -0.0874792292   -0.7425399604
 H   -1.5332523854   -1.5325492994    0.1219602320
 H   -1.9173520272   -0.0627483949    1.0288963864
 H   -0.0639503670   -0.8955650168   -2.0482169875
 H    1.4171304805   -0.0082126838   -1.7175616512
 H    1.4923536891   -2.5330786806    1.4509101742
 H    2.6260442253   -0.3102551070    2.0967439358
 H    2.6146949750    0.1697195774    0.3332212108