23

 C    0.3434052932    1.9123735820   -0.2225320134
 C    0.4373407961    0.4055052780   -0.0652175098
 C    1.5872575562   -0.5323128492   -0.3844412407
 C    2.9714968643   -0.0679672294    0.0985602673
 C    3.6845923103    1.1062065671   -0.5675299646
 C    2.4030137119    0.0338161198    1.5699913568
 C    2.5560160870    1.2899900911    2.4231141338
 C    1.0315311773   -0.4181786299    1.0414337067
 O    0.2777652916   -1.3699118807    1.7211362832
 H    1.2245529252    2.4436697884    0.1327393811
 H    0.2008473085    2.1781268907   -1.2762365756
 H   -0.5186547182    2.3010651318    0.3324754607
 H   -0.4870710408   -0.0809485148   -0.3809189041
 H    1.4401165805   -1.3389443207   -1.0943039983
 H    3.6514264277   -0.9257807290    0.0603585023
 H    3.0948854512    2.0244812368   -0.5757752070
 H    4.6306995946    1.3238272279   -0.0589478083
 H    3.9215037461    0.8629501365   -1.6094155680
 H    2.8060184265   -0.8105380246    2.1392247228
 H    2.1955742716    2.1950373506    1.9297855548
 H    1.9978676272    1.1825376720    3.3604424564
 H    3.6064454502    1.4545031978    2.6883154028
 H   -0.4359132184   -0.9175563822    2.1823625812