23

 C   -0.0567065370    1.5560109666    0.0344693063
 C    0.0530218664    0.0223010416   -0.0911973141
 C    0.7879643551   -0.3511200918   -1.3000520407
 C    1.4150650190   -0.6497809097   -2.2821898871
 C    0.7067382285   -0.5913330979    1.1574916686
 C   -0.0173617753   -0.4620321472    2.5255939861
 C    0.4804930819   -1.8895197445    2.8765456359
 C    0.7549692241   -2.1429522818    1.3632792572
 C   -0.3418357188   -2.9477188570    0.6689200048
 H    0.9360649785    2.0076609809    0.1236243216
 H   -0.5466056871    1.9861571916   -0.8429219347
 H   -0.6380688074    1.8232871760    0.9218903677
 H   -0.9657533504   -0.3797345405   -0.1783086457
 H    1.9589259565   -0.9167028033   -3.1541417025
 H    1.7236111271   -0.1910933370    1.2394089660
 H    0.2824385256    0.3579260923    3.1823642236
 H   -1.1056276071   -0.4262896092    2.4082486475
 H    1.4002374976   -1.8688946175    3.4674838046
 H   -0.2303416075   -2.5612046148    3.3657160120
 H    1.7256252024   -2.5922736436    1.1354272378
 H   -1.3418119709   -2.5637097610    0.9014898381
 H   -0.2200255911   -2.9353734182   -0.4185960924
 H   -0.3111976001   -3.9915409139    0.9997738793