23

 C   -0.2710177708    1.6003004062    0.0185634073
 C   -0.0611571932    0.0755969621    0.0042590291
 C   -1.4371157112   -0.6187885533    0.0576385160
 C    0.6230050818   -0.3612947702   -1.3130511965
 C    1.9630223456    0.2254061600   -1.6631444303
 C    2.9509291094    0.6244066356   -0.8483455331
 C    3.0129847658    0.6123175588    0.6084755417
 C    2.0962956700    0.2041026827    1.4985568193
 C    0.7273299051   -0.3707220987    1.2582470730
 H    0.6782720432    2.1383149796   -0.0161065399
 H   -0.8719543556    1.9152906388   -0.8418186654
 H   -0.8033847357    1.9080812224    0.9254516642
 H   -2.0559801954   -0.3339164270   -0.8000072043
 H   -1.3330857359   -1.7098948572    0.0470784584
 H   -1.9824167998   -0.3440106189    0.9669582577
 H    0.7076745790   -1.4590034799   -1.3204027132
 H   -0.0670854712   -0.1302947215   -2.1354405027
 H    2.1487315440    0.3106938390   -2.7322125807
 H    3.8492555516    1.0067906518   -1.3287647493
 H    3.9509045666    0.9833723851    1.0167145384
 H    2.3741787699    0.2708261530    2.5488495521
 H    0.1097305782   -0.1379227777    2.1360433786
 H    0.8041491186   -1.4690581307    1.2557647698