21

 C    0.0415826964    1.5380609969    0.1294440493
 C    0.0105944107    0.0158762604   -0.0326467466
 C   -1.4105127553   -0.5543247913   -0.0220681449
 C   -1.4514846801   -2.0777897102   -0.1811246829
 C   -2.8770843458   -2.6000818216   -0.3469681740
 O   -3.7161657263   -2.0035720106   -1.0001913410
 N   -3.1301873354   -3.7904736292    0.2736507787
 C   -4.4114270264   -4.4621483115    0.1851557480
 H    1.0665238586    1.9217132888    0.1132537287
 H   -0.5130477117    2.0314638084   -0.6761492389
 H   -0.4139436108    1.8442204277    1.0777761550
 H    0.5052475622   -0.2632384756   -0.9728010052
 H    0.6008455633   -0.4495608968    0.7685438816
 H   -1.9121946258   -0.2739120143    0.9135779042
 H   -2.0052715280   -0.1135167775   -0.8286292016
 H   -0.8990756739   -2.3646412951   -1.0865259228
 H   -0.9475256083   -2.5712333783    0.6592731078
 H   -2.3902448498   -4.2258692454    0.7978800850
 H   -4.8593196542   -4.6011619951    1.1755842529
 H   -5.0652369170   -3.8293080508   -0.4160462705
 H   -4.3194557722   -5.4420992191   -0.2972527529