15

 C    0.0577954730    1.4941872198   -0.0186164795
 C    0.0488792808   -0.0143785104    0.0401472622
 O    0.0610552060   -0.6424050013    1.0777828165
 C    0.0239322288   -0.7497318166   -1.2535909048
 N    0.0092439945   -0.1449545530   -2.4148243910
 O   -0.0115449118   -1.1237705724   -3.3461297379
 N   -0.0099818073   -2.3722237541   -2.7621154057
 C    0.0116444103   -2.1684582547   -1.4729341023
 C    0.0203839552   -3.2826624856   -0.4836545218
 H    0.9273574246    1.8463613715   -0.5826758191
 H   -0.8265197272    1.8575798431   -0.5518491932
 H    0.0779929943    1.8934149668    0.9954873530
 H    0.9074571562   -3.2225602209    0.1522113287
 H   -0.8449434403   -3.2113155772    0.1803608304
 H    0.0059579130   -4.2424558748   -1.0024054055