18

 C    0.0884282455    1.4350293294    0.0886408899
 N    0.1463941595   -0.0160496098    0.0461811656
 C    0.5399882788   -0.6018144344   -0.9996342074
 O    0.9701282768    0.0709652405   -2.1237130508
 C    0.7818715353   -0.6305228171   -3.3483364104
 O    1.4929410283   -1.8283074213   -3.3826718056
 C    1.0736812762   -2.7131134584   -2.3734224043
 C    1.9510099865   -2.7954097568   -1.1674440729
 C    0.6005645300   -2.0865408947   -1.0818093402
 H    0.9393158428    1.8168029294    0.6666411523
 H    0.1029416310    1.9144681932   -0.8963273643
 H   -0.8183542347    1.7351286685    0.6235974769
 H   -0.2947052764   -0.8022269987   -3.5006863957
 H    1.1836874846    0.0116820734   -4.1330275354
 H    0.5774156551   -3.6023509113   -2.7529328243
 H    2.0434155185   -3.7408432574   -0.6459743514
 H    2.8419647590   -2.1788134419   -1.1812764955
 H   -0.1715444068   -2.5869563627   -0.5119312666