19

 O   -0.1082358442    1.4209275662   -0.0787604488
 C    0.0291346915    0.0478742359   -0.0341889235
 C   -0.0756717514   -0.8328251554    1.1715550411
 C    1.1330197489   -1.7462337611    1.2908521706
 C    1.4973805740   -2.0355270087   -0.1763834598
 C    0.4604582453   -3.0172631349   -0.7948711698
 C   -0.3975774490   -1.7902340292   -1.1708309080
 C   -1.0524978181   -1.0151433274   -0.0070645096
 C    0.8402482599   -0.8522423494   -1.0089079641
 H    0.5907368796    1.8145133425    0.4555366968
 H   -0.5367419848   -0.4108748887    2.0592042910
 H    1.9426988167   -1.2209043178    1.8145491295
 H    0.9351637172   -2.6724754012    1.8424016116
 H    2.5532377608   -2.2635177967   -0.3302378904
 H    0.8490615087   -3.5082867558   -1.6922746805
 H    0.0321159945   -3.7767769764   -0.1325906016
 H   -0.9937326962   -1.7997891935   -2.0847783569
 H   -2.1167834145   -0.9068124169    0.1657224029
 H    1.3688738913   -0.4214742714   -1.8562184703