13

 O   -0.0189525062   -0.0676705560   -0.0581692193
 C   -0.0438992295    1.1481097156   -0.0235449087
 C    1.1820053951    1.9293398034    0.0123139236
 C    2.1890264290    2.5883121765    0.0423401849
 C   -1.3073983189    1.9328032881   -0.0146470533
 C   -2.4864392298    1.3519906165   -0.7866040406
 C   -2.5013500916    1.3106936809    0.7003054399
 H    3.0892768068    3.1528753794    0.0686003646
 H   -1.2008049517    3.0100529578    0.0164854925
 H   -3.1270409490    2.0574939814   -1.3026295051
 H   -2.2874217768    0.4243786584   -1.3106797940
 H   -2.3123748162    0.3553274925    1.1760055392
 H   -3.1524865412    1.9868602455    1.2417906064