19

 C   -0.0791086122    1.5434593718    0.0308232858
 C    0.0225396854    0.0219106548    0.0012441821
 C    0.9977506032   -0.5971366663   -1.0358608681
 C    2.3503551222   -0.1177269396   -0.4553824165
 O    2.1465423454   -0.1360278308    0.9733358779
 C    0.7941476760   -0.6043321805    1.1769122039
 C    0.8373055252   -2.0935747594    0.8092074774
 O   -0.2315451664   -2.5593241680   -0.0281167295
 C    0.9647846262   -2.0836742392   -0.6540266397
 H    0.8744836064    2.0159202931    0.2785461752
 H   -0.4149588492    1.9316286650   -0.9366190765
 H   -0.8087720836    1.8606588856    0.7830950297
 H   -0.9662089331   -0.4246722453   -0.1003852491
 H    0.8330070941   -0.3507823992   -2.0853218161
 H    3.1827368520   -0.7820067747   -0.7178389516
 H    2.6056422550    0.8989993357   -0.7747193132
 H    0.4932439516   -0.3407019501    2.1907311116
 H    1.3022159457   -2.8275298306    1.4589328661
 H    1.5335839961   -2.8205228325   -1.2135994692