15

 C   -0.0889556136    1.4767833038    0.0971405140
 N   -0.0130610323    0.0227380814   -0.0331699071
 C    0.7156715512   -0.4849106366   -1.2004777121
 C    2.2028772018   -0.0460052499   -1.3236988100
 C    0.6724006119   -1.9634434666   -1.1286519158
 N    0.6892804282   -3.1137161556   -1.0351930921
 C   -0.0039672605   -0.0579259225   -2.4253766713
 N   -0.5296809827    0.3146999749   -3.3830640523
 H    0.8803946309    1.9848898499    0.2108707563
 H   -0.5961021707    1.8933895947   -0.7778414074
 H   -0.6986965194    1.7043083848    0.9746217781
 H    0.3793859431   -0.4004974965    0.8006629968
 H    2.7452862057   -0.3654984809   -0.4303085905
 H    2.6679152835   -0.4995691710   -2.2017187627
 H    2.2634626828    1.0394794202   -1.4173775539