20

 C   -0.1462956052    1.5211798476    0.0153170115
 C    0.0615141282    0.0080092386    0.0424673742
 C    0.9932012810   -0.5502010443   -1.0889661008
 C    2.0279893560   -1.3018515683   -0.2127709258
 C    1.1095661344   -2.0069290058    0.8384355274
 C    0.8300490822   -0.5395129088    1.2690682033
 C    2.3175444327   -0.2562165864    0.9110074200
 C    3.0932925209   -2.0054461800   -0.8913168908
 N    3.9474416088   -2.5693585562   -1.4300372969
 H    0.8011122466    2.0659630752    0.0839674607
 H   -0.6358875832    1.8307887910   -0.9139724399
 H   -0.7794281824    1.8458995554    0.8480231257
 H   -0.9197499624   -0.4765996019   -0.0116764857
 H    0.4792193273   -1.2223413684   -1.7799922203
 H    1.4649029589    0.2441212698   -1.6739714919
 H    0.2785016423   -2.6050618272    0.4553425777
 H    1.6835752769   -2.5728764253    1.5740640685
 H    0.4286117439   -0.3033302446    2.2541379745
 H    3.0134576108   -0.6391706601    1.6590973781
 H    2.6115154522    0.7480121999    0.5983301606