17

 C   -0.0102020010   -1.1428923148    0.0606587732
 C   -0.0139082580    0.0583789364    0.0264130811
 C   -0.0006194305    1.4940796007   -0.0402465794
 C    0.4859915292    2.1597462320   -1.3114069338
 C    1.3376993570    2.2194597486   -0.0612780149
 C    1.4178897957    3.5045239097    0.7567110233
 O    0.3625041594    3.6028506698    1.7083508567
 C   -0.8754764488    3.3875746253    1.1092058861
 O   -1.0630058230    2.0486694049    0.6960655288
 H   -0.0125941252   -2.2040161989    0.0999244176
 H    0.7989337398    1.5158706114   -2.1242754914
 H   -0.0196357384    3.0697081343   -1.6200096338
 H    2.2191597677    1.5896979349   -0.0365737712
 H    2.3429656281    3.5276021479    1.3362814335
 H    1.4055752995    4.3895643099    0.1009324538
 H   -1.6456543244    3.5736553761    1.8596847183
 H   -1.0135373569    4.0747477917    0.2535992422