20

 O    0.1107455523    0.0143378692    0.1954781479
 C    0.0390171554    1.2063506521   -0.0483486557
 C   -1.2958547632    1.9559035445   -0.0860941770
 C   -1.2074056856    3.4906760931   -0.2128023994
 C    0.0178597631    4.0399138010    0.5373621467
 C    1.2507748977    3.4418542506   -0.1193266872
 C    2.5894431461    3.2239968652    0.6416219334
 C    2.4859581476    1.7148796208    0.2661684343
 N    1.1423444744    1.9751687957   -0.2715980521
 H   -1.9020119157    1.5254549181   -0.8897552949
 H   -1.7991695470    1.6762536404    0.8462812896
 H   -1.1291938571    3.7771645743   -1.2691325023
 H   -2.1299830886    3.9449259976    0.1621060501
 H    0.0501670298    5.1337559145    0.4981790273
 H   -0.0251189222    3.7473216699    1.5947566789
 H    1.4087760160    3.9214091389   -1.0956856043
 H    3.4550676235    3.7637070641    0.2553577097
 H    2.5028595464    3.4037104168    1.7157263166
 H    3.1981708412    1.3807454909   -0.4951647036
 H    2.4808610757    0.9935478826    1.0870022219