20

 N    0.1431349737    1.2031471256   -0.3060907009
 C   -0.0276170766   -0.0052651889    0.3170687342
 O    0.8137128987   -0.4605969504    1.0738847229
 C   -1.2894746032   -0.7398422174   -0.0144198354
 C   -1.8563074264   -1.6029399502    1.1034656308
 C   -1.2336004785   -2.2666724487   -0.0824306940
 C   -2.1406350047   -2.7172070909   -1.2156752032
 C   -3.0901114903   -1.5217015047   -1.4641105850
 C   -2.2679978839   -0.2661058109   -1.0851696916
 H    0.9286793785    1.7577834195   -0.0054854485
 H   -0.6212196171    1.6754407390   -0.7561497684
 H   -1.2736897759   -1.6018005975    2.0167290988
 H   -2.9328253425   -1.6286674616    1.2373206502
 H   -0.2748630958   -2.7493782142    0.0647460447
 H   -1.5329272366   -2.9164192130   -2.1062429122
 H   -2.6888145675   -3.6375373081   -0.9871777071
 H   -3.4563956455   -1.4823924770   -2.4930385141
 H   -3.9718340879   -1.5996148148   -0.8209717255
 H   -2.9125511352    0.5579183037   -0.7559554847
 H   -1.7037695534    0.0858018103   -1.9580189511