19

 C    0.0267238140    1.5715924310    0.0195106578
 O    1.3907758539    1.9642771385   -0.1682381066
 C    2.0147520935    0.9858485775   -0.9645467661
 C    2.5531011440   -0.2565870047   -0.2908171772
 O    2.7570808853   -0.4279185322    1.0747068699
 C    1.6814522613   -0.1016748285    1.9526423260
 C    0.3211025600   -0.5580646114    1.4243043313
 C    0.0322736702    0.0299555738    0.0314258504
 C    1.1849964532   -0.2834066459   -0.9368732961
 H   -0.3248560686    2.0203347557    0.9542094148
 H   -0.5931387997    1.9532103390   -0.8055880135
 H    2.4863478164    1.3715252103   -1.8644636920
 H    3.3518263709   -0.7612178444   -0.8274435682
 H    1.9164775720   -0.6111899839    2.8921074950
 H    1.6748759055    0.9778207415    2.1471522397
 H    0.3039086801   -1.6525995390    1.3643259113
 H   -0.4544492388   -0.2572117554    2.1383204273
 H   -0.9129202367   -0.3658521828   -0.3498449287
 H    0.9956506234   -0.8911637488   -1.8138193651