17

 C    0.1103167475    1.5682169615    0.1233474203
 C   -0.1146743094    0.0611737692   -0.0950707402
 C    0.6998651045   -0.4894464491   -1.2238727403
 N    0.1783509849   -0.7811372199   -2.3850634542
 O    1.2093401913   -1.2380138196   -3.1647425973
 N    2.3849399659   -1.2323236966   -2.4761706618
 C    2.1043090025   -0.7804225521   -1.2834578051
 C    3.1701852519   -0.6114087497   -0.2417665716
 O    3.4439109318    0.7554044801    0.0407731822
 H    1.1643163483    1.7744518467    0.3246457423
 H   -0.1908965541    2.1348840767   -0.7627277821
 H   -0.4840011252    1.9198665764    0.9713649264
 H    0.1384806464   -0.4833602974    0.8224496752
 H   -1.1682701762   -0.1400221159   -0.3073085332
 H    2.8424165660   -1.0473339666    0.7068901541
 H    4.0683131120   -1.1499125796   -0.5685017846
 H    3.7804443018    1.1587934159   -0.7670039701