21

 C    0.0355183454    1.5395221790   -0.0024184641
 C    0.1010120148    0.0218381303    0.0018344619
 C    1.0384909764   -0.6328875556   -0.9882982061
 C    1.3826238487   -0.6272545758    0.4797104927
 C   -1.2424986742   -0.6462360184    0.2171087006
 C   -1.4624359360   -1.9380898372    1.0592297748
 C   -1.2509388506   -1.1438036959    2.3733270727
 C   -2.1749617538   -0.3419261465    1.4301732959
 O   -2.9021247309   -1.5972204702    1.1271180610
 H    1.0079306464    1.9765925858   -0.2503678293
 H   -0.6902205674    1.9008046858   -0.7405478869
 H   -0.2651834484    1.9297048125    0.9769489075
 H    0.7327404291   -1.5759508613   -1.4301014935
 H    1.6056910000    0.0067964203   -1.6564329762
 H    2.1837696725    0.0226929859    0.8170459125
 H    1.3275177366   -1.5690196692    1.0142502095
 H   -1.8249270729   -0.6743654988   -0.7094746499
 H   -1.2065290120   -2.9723975111    0.8245617864
 H   -1.7481103950   -1.5689584697    3.2460191264
 H   -0.2599131086   -0.7462510135    2.5934629749
 H   -2.7759004200    0.5448591636    1.6352115293