16

 N    0.2549170579    1.2599152576   -0.4415162653
 C    0.0738899598   -0.0793288833   -0.1464617033
 N   -1.1074121219   -0.6518356629   -0.1240319233
 O   -0.8605633116   -2.0049988896    0.1429451087
 C    0.4652506780   -2.1899424477    0.2734874706
 C    1.1299288795   -1.0179461338    0.1014691161
 N    2.4862932632   -0.6778663509    0.2115661685
 C    3.4841680339   -1.6714299620   -0.1708158945
 C    3.2508267149   -0.4799231771   -1.0306217666
 H    1.0212419783    1.6758902287    0.0707767835
 H   -0.5948379973    1.8020740864   -0.3582352140
 H    0.7861521912   -3.1937023833    0.5025074513
 H    4.3574343539   -1.7251559487    0.4716362166
 H    3.1266225346   -2.6277484843   -0.5455006055
 H    2.7280986999   -0.6354352345   -1.9702879142
 H    3.9480197355    0.3516546953   -1.0148773986