19

 O   -0.0820940411    1.3773856690    0.0584853330
 C   -0.0006132966   -0.0121670593    0.0520396457
 C    0.9913216995   -0.7242572059    0.9581292013
 C    0.5230242276   -2.2020361207    0.8530015575
 C   -1.0309165613   -2.0454532453    0.8984487786
 C   -1.2514340446   -0.8309903143    0.0170861828
 C   -0.3379922513   -0.7854974981   -1.2285927610
 C    0.4520795939   -1.9945785269   -1.5480358043
 C    0.8932080148   -2.7227681859   -0.5171546309
 H    0.7081254915    1.7236784677   -0.3707333886
 H    2.0356382208   -0.5978029294    0.6518469535
 H    0.8779882890   -0.3440933336    1.9794076273
 H    0.9099003736   -2.8270482561    1.6589535599
 H   -1.5436034265   -2.9466326000    0.5487640183
 H   -1.3656985791   -1.8316520889    1.9199822242
 H   -2.2240391358   -0.3610496431   -0.0600778962
 H   -0.7056987812   -0.1706945303   -2.0419856954
 H    0.6393990804   -2.2568438284   -2.5842807047
 H    1.4661350266   -3.6357397805   -0.6337131010