15

 C   -0.3566798778    1.3612090676    0.0591345417
 N   -0.1210404645   -0.0680021895   -0.0511275325
 C    0.0113495570   -0.8476411641    1.1633725547
 C   -1.2032407304   -0.8129210613    1.9922886917
 N   -2.1494461776   -0.7532790423    2.6525675870
 C    0.0431992333   -0.7411465554   -1.2508346343
 N    0.0009048024    0.0527692197   -2.3839084539
 O    0.1747203134   -1.9516757301   -1.3127293807
 H    0.5749503763    1.9449232515    0.0887834559
 H   -0.9720570535    1.7078989054   -0.7737576791
 H   -0.9142955994    1.5640305474    0.9772955581
 H    0.2170158296   -1.8765904766    0.8573462963
 H    0.8516172591   -0.4949629443    1.7772874419
 H    0.3452708655    0.9982243011   -2.3399040284
 H    0.2783045367   -0.4561202191   -3.2091090084