19

 O    0.7676014549    0.3102478258    1.4965474342
 C    0.3086687583    1.0340633068    0.6318810908
 N    1.0386199072    1.5993894026   -0.3581397409
 C    2.4503450774    1.3137429228   -0.5229007861
 C    3.2090076197    2.0445731803   -1.6588377156
 C    4.4322006629    2.1929999327   -0.7030884388
 C    3.4834226244    1.8857105348    0.4614749041
 C    3.2006800221    2.6970605410    1.6618809881
 N    3.8445244964    1.3689416305    1.7680862615
 H   -0.7643671212    1.3019846743    0.5781261379
 H    0.5814590780    2.2098265810   -1.0166143384
 H    2.5818021848    0.2274005298   -0.5937219170
 H    3.3516473936    1.4976159276   -2.5921130847
 H    2.7545448885    3.0156715169   -1.8790798945
 H    5.1730860164    1.4016928574   -0.8474385001
 H    4.9416209584    3.1583238476   -0.6954705663
 H    3.8440880178    3.5391972944    1.9049860925
 H    2.1693164117    2.7981631113    1.9877929983
 H    3.1372603487    0.6898905025    2.0490410151