15

 O   -0.1646466115    1.3042185978   -0.1601203540
 N   -0.0435964309   -0.0923387495   -0.2140487250
 C   -1.1534146540   -0.6529323252    0.0166022324
 C   -2.5515084470   -0.1988923222    0.4103085424
 C   -2.9169973959   -1.6923881082    0.6265177667
 O   -3.8239063216   -2.2292440994   -0.3546293634
 C   -3.0300974845   -2.7771274780   -1.3125402899
 N   -1.7685806408   -2.7890085630   -1.1770517338
 C   -1.4971688007   -2.1302725397    0.1132039482
 H    0.7349895913    1.5947159638   -0.3466151362
 H   -2.5872859632    0.4327398402    1.3023793885
 H   -3.1266081627    0.2871348743   -0.3830369984
 H   -3.2633456135   -1.9832447928    1.6171509725
 H   -3.5726301635   -3.1899717577   -2.1557219081
 H   -0.8442760516   -2.7469500203    0.7346358581