22

 C    0.7801820929   -0.9697745886   -2.2397319516
 N    0.2318366387   -0.3182414776   -1.0603592210
 C    0.4759677903    1.1165644397   -1.0908571961
 C   -1.1153043599   -0.6816657699   -0.6669229346
 C   -2.1404369243   -1.3669009070   -1.6190994276
 O   -2.4440074310   -2.3664046262   -0.6234601465
 C   -1.3723054624   -1.9145347146    0.2494062110
 C   -0.3230260147   -3.0026687909    0.4022742753
 O   -0.9211379621   -4.1599449989    0.9592750396
 H    1.8573076697   -0.7782645676   -2.2860999901
 H    0.6404993696   -2.0511293661   -2.1928878383
 H    0.3378414427   -0.6098751124   -3.1871540793
 H   -0.0379712423    1.6369260471   -1.9210264000
 H    0.1554601743    1.5737045630   -0.1505540958
 H    1.5497189359    1.3011618515   -1.2014953094
 H   -1.5701779546    0.1977184886   -0.2069704672
 H   -3.0254886170   -0.7816462929   -1.8930938155
 H   -1.7160250636   -1.8102898194   -2.5275425378
 H   -1.7710510736   -1.6757177787    1.2438424384
 H    0.1472984678   -3.2313129804   -0.5646884114
 H    0.4650955740   -2.6771936596    1.0884129235
 H   -1.6960748401   -4.3414167691    0.4127462843