20

 C    0.0569506291    1.4777896847   -0.1822739578
 N    0.0234842638    0.0257763011   -0.1661319646
 C   -1.0557310391   -0.5817660304    0.0921843502
 C   -1.0862050044   -2.0945672647    0.0779441188
 C   -1.6323897181   -2.7337412711    1.3677133936
 C   -3.1648226228   -2.7604650824    1.4045353589
 O   -3.7690789283   -1.6220028141    0.7902310965
 C   -3.2466944656   -0.3917184677    1.1613926146
 O   -2.2320228652    0.1003139592    0.2908778672
 H    1.0183055639    1.8113778083    0.2212054553
 H    0.0058099683    1.8333004872   -1.2192667030
 H   -0.7566304830    1.9527356351    0.3772092153
 H   -1.6893004802   -2.4275236649   -0.7759296199
 H   -0.0563924890   -2.4075552086   -0.0965434274
 H   -1.2719588192   -3.7648380489    1.4494254940
 H   -1.2287531075   -2.2044711043    2.2383312304
 H   -3.5445486540   -3.6111075277    0.8308772958
 H   -3.5272716559   -2.8664282703    2.4376581195
 H   -4.0458287419    0.3472735303    1.0716052265
 H   -2.8696367309   -0.4081995607    2.1951083161