20

 C    0.0731649319    1.5575418937   -0.0312897595
 C   -0.0852338226    0.0796119879    0.1173153801
 C   -1.3688925578   -0.7635058121    0.0302407545
 C   -0.7056606454   -1.8124233651    1.0100844609
 C   -1.3789454761   -1.8274250832    2.3813332286
 C   -0.5035727675   -3.2164832211    0.4496166732
 C    0.5517174180   -0.9109976427    1.0016692768
 O    0.9793525939   -0.7652833752   -0.3586782132
 H    1.0885033083    1.8615154817    0.2370617530
 H   -0.1120877136    1.8663675203   -1.0666087371
 H   -0.6360699463    2.0920926926    0.6090548299
 H   -2.2446507308   -0.2772752297    0.4688336924
 H   -1.6135431725   -1.1200436473   -0.9737915474
 H   -2.3780365247   -2.2727631688    2.3207630415
 H   -0.7950589255   -2.4143374918    3.0998875789
 H   -1.4871936900   -0.8153148210    2.7870596323
 H    0.0367914004   -3.1739873201   -0.4992661910
 H    0.0699514532   -3.8408925636    1.1447763113
 H   -1.4660532431   -3.7114221911    0.2767616523
 H    1.3082337604   -0.7999059134    1.7733588626