18

 C    0.0850081989    1.2428669642    0.6210747756
 C    0.1103994863   -0.1529256651    0.0388022635
 C   -1.0306939063   -0.8542074504   -0.0408873157
 C   -1.3400967894   -2.2161460058   -0.5793016835
 O   -0.2665466006   -2.9345498568   -1.1520597696
 C    0.8844623253   -2.9345032149   -0.3762860763
 O    1.7615192927   -1.8762216000   -0.7113395086
 C    1.4579470698   -0.5719724953   -0.4346759734
 N    2.3562517290    0.3165643743   -0.5869670645
 H    0.7736598934    1.3265746986    1.4673029889
 H    0.4228918972    1.9724292919   -0.1189663108
 H   -0.9216674550    1.5060575710    0.9543606695
 H   -1.9239861891   -0.3707297869    0.3534827851
 H   -1.8036463142   -2.8099102192    0.2295460203
 H   -2.0983914573   -2.1318710237   -1.3677262389
 H    0.6470205253   -2.9074991236    0.6971453163
 H    1.4476689347   -3.8380105184   -0.6170195856
 H    3.2195035793   -0.1221866600   -0.9126679422