18

 N   -0.3818358642    1.2771622420   -0.1799676011
 C   -0.0476629278   -0.0479822231   -0.1411553848
 O    1.0245927437   -0.5062124482   -0.4476408915
 O   -1.1294987925   -0.7709466378    0.2717060601
 C   -0.9934855593   -2.2023120115    0.2756681893
 C   -1.7965189545   -2.7975906146    1.4532623422
 C   -3.0225554253   -2.9666818863    0.5110272312
 C   -2.0532624603   -2.8068444789   -0.6979438407
 O   -2.4304970987   -2.0539108127   -1.8115823737
 H    0.3867405710    1.9206624714   -0.2628046135
 H   -1.1968447445    1.5838749174    0.3239537096
 H    0.0566898216   -2.4554251124    0.1444816236
 H   -1.3744095573   -3.7513364182    1.7793901035
 H   -1.9131364757   -2.1464609642    2.3211156785
 H   -3.6034829023   -3.8888181064    0.5769054161
 H   -3.7042998597   -2.1138311167    0.5770024856
 H   -1.7180762235   -3.7799601502   -1.0689136948
 H   -2.5074454807   -1.1393160296   -1.5144634597