23

 C    0.2166330719    1.4841201538    0.2154540550
 C   -0.0301673808   -0.0167779983   -0.0216686431
 C    0.7234044535   -0.5227874229   -1.2732549045
 C    2.1719390093   -0.8115558054   -0.8073559880
 C    2.1054496985   -0.9665552473    0.7402139483
 C    0.6090102372   -0.8755004159    1.0995837605
 C   -1.5311744292   -0.2465636871   -0.0713654088
 C   -2.3230652938   -0.3146386858   -1.3059212609
 O   -2.0055451028   -1.4999240215   -0.5684746015
 H    1.2845947047    1.7049083128    0.3034702123
 H   -0.1799514102    2.0828376793   -0.6116478152
 H   -0.2672113205    1.8244844553    1.1381104107
 H    0.2436988795   -1.4459867461   -1.6130888945
 H    0.6888008718    0.1925482204   -2.1008109161
 H    2.5672654256   -1.7089210453   -1.2909450163
 H    2.8430216332    0.0071794443   -1.0834028542
 H    2.5463331341   -1.9063324124    1.0832575898
 H    2.6679621377   -0.1649580801    1.2288515227
 H    0.4323568334   -0.4628902631    2.0982603164
 H    0.1528891899   -1.8714100227    1.0719020332
 H   -2.0555191375    0.0827962902    0.8295927492
 H   -3.3734173047   -0.0265312620   -1.2941051041
 H   -1.8291415308   -0.2245951201   -2.2714459709