16

 C    0.0598422855    1.5732879705    0.3300643280
 C   -0.0014323804    0.1044080659   -0.1234827179
 C   -1.3847397903   -0.4687665636   -0.0685636936
 C   -2.1630349913   -0.8575645005   -1.1297329101
 O   -3.3773481447   -1.3230714568   -0.7014565531
 C   -3.3670187815   -1.2275499703    0.6455914489
 C   -2.1877256977   -0.7161094944    1.0905407873
 C   -1.9089882731   -0.8511739713   -2.5168578336
 N   -1.6658226207   -0.8312378886   -3.6501697922
 H    1.0876248598    1.9446397303    0.2855678440
 H   -0.5604202540    2.2062342853   -0.3111672519
 H   -0.2961259175    1.6872385576    1.3587205077
 H    0.3821900905    0.0178348839   -1.1450295126
 H    0.6605573405   -0.4979117514    0.5107310719
 H   -4.2635477768   -1.5620911093    1.1418564353
 H   -1.9133532182   -0.5382287774    2.1187343619