16

 C   -0.0395662577    1.6311731175   -0.0844723514
 C    0.0393467219    0.1127100791   -0.0217494646
 C    0.6996344837   -0.6682046235   -1.1731203497
 N    2.0916961498   -0.2347136893   -1.2140757377
 C    1.6960137899   -1.3398223013   -0.2481978648
 C    2.2982928029   -2.6207151268   -0.2844490207
 C    2.8079116112   -3.7109732145   -0.2814062218
 C    1.0784252758   -0.5688197327    0.9207824800
 O    1.2294109724   -0.5924281434    2.1028902753
 H    0.9148252080    2.0496754049   -0.4115879670
 H   -0.8210554030    1.9577579235   -0.7780230738
 H   -0.2753034151    2.0365716095    0.9040363286
 H   -0.9345511404   -0.3274722126    0.2282460389
 H    0.2114020891   -1.1240190594   -2.0249079092
 H    2.5590290799   -0.7097532494   -1.9872391796
 H    3.2554729117   -4.6740783019   -0.2759274226