21

 C    0.1103465700    1.1641830648    0.0104076682
 O   -0.1400108366   -0.0197678565   -0.7211352325
 C   -1.3491152244   -0.6212455465   -0.3755268701
 C   -1.5448790432   -2.0535712445   -0.8098941434
 C   -1.3669963060   -1.7190746775    0.6436012410
 C   -0.2754572847   -2.1748275179    1.5987597674
 C   -1.4479683450   -2.3620043066    2.5942339041
 C   -1.4519740941   -1.5290855573    3.8591456828
 O   -2.4048590178   -1.8739426632    1.6096775365
 H    1.0773133118    1.5494966582   -0.3215159608
 H   -0.6611829490    1.9255308925   -0.1806852465
 H    0.1490868398    0.9803468813    1.0934977089
 H   -2.2218807164    0.0343003581   -0.4136158640
 H   -2.5326207363   -2.3371993094   -1.1572013017
 H   -0.7141466567   -2.5364492601   -1.3149893642
 H    0.2544939987   -3.0854004711    1.3140566752
 H    0.4500022584   -1.4084355668    1.8805921664
 H   -1.6577935044   -3.4137882764    2.8268735721
 H   -1.2238090342   -0.4821684373    3.6357244710
 H   -2.4334704781   -1.5707490766    4.3416552726
 H   -0.7057299816   -1.9060649072    4.5674575371