18

 C   -0.4570064449    1.3587423861    0.1405839026
 C    0.0660101473   -0.0552700107    0.1026092064
 C   -0.2676859626   -0.8741447396   -0.9054329591
 C    0.0859486504   -2.2683303683   -1.2176045701
 N   -0.1697495373   -2.6982826950   -2.3893871539
 O    0.6717005859   -3.0989313536   -0.3027155787
 C    0.7531747663   -2.7206959747    1.0575610788
 O    1.5951841749   -1.6342503326    1.2615559498
 C    0.9413063937   -0.3830269860    1.2822765648
 H    0.3666819074    2.0831653888    0.1127885010
 H   -1.1215589773    1.5636096449   -0.7005559498
 H   -1.0098963088    1.5502772016    1.0691203420
 H   -0.8919359210   -0.4697848642   -1.6956684248
 H    0.1209174545   -3.6751274854   -2.4666359162
 H   -0.2522986153   -2.5268020321    1.4598931800
 H    1.1979900290   -3.5859650410    1.5529141399
 H    1.7386907623    0.3658045985    1.3600986659
 H    0.3363765854   -0.2847533369    2.2021841814