20

 C    0.0883345249    1.4704036839    0.1708262626
 C   -0.0939356117   -0.0381678610   -0.0604582578
 C    0.6929883694   -0.5324429069   -1.2520423056
 C    1.8207771576   -1.3440395520   -1.1026675637
 C    2.5104426821   -1.7466279061   -2.2393720466
 C    2.0561350141   -1.3302353590   -3.4848188191
 C    0.9201896165   -0.5195000391   -3.5506774355
 C    0.3695835041   -0.0364022990   -4.8681364516
 N    0.2579869333   -0.1325253037   -2.4534059209
 H    1.1326901831    1.7117577492    0.3949407602
 H   -0.2024513138    2.0253415305   -0.7251277060
 H   -0.5267787119    1.8148961686    1.0077331920
 H    0.2029565066   -0.5948262531    0.8349781610
 H   -1.1548301863   -0.2471280796   -0.2375235485
 H    2.1446044287   -1.6511643208   -0.1141608027
 H    3.3893950891   -2.3782874122   -2.1566223019
 H    2.5682025121   -1.6267946886   -4.3935822744
 H   -0.6533771828   -0.4000632294   -5.0099241314
 H    0.3229309792    1.0570652417   -4.8834137415
 H    0.9787376758   -0.3730536933   -5.7106331287