20

 C    0.2048319771    1.7598941422    0.0918824721
 C    0.0901925478    0.2602625879   -0.0892594588
 C    0.5733324269   -0.5474833150   -1.2521071998
 C    1.5546909177    0.0300707195   -2.2566499755
 O    1.0665860648    1.1146323452   -3.0451456060
 C    2.8254564180    0.4379834661   -1.4237665544
 O    3.0116896562    1.8408211036   -1.4168655041
 C    2.5663397602   -0.1156472868   -0.0042615714
 N    1.2025124454   -0.6903588003    0.0789775251
 H    1.1066163423    2.1864551863   -0.3503352532
 H   -0.6755500894    2.2552299524   -0.3361302960
 H    0.2116097540    2.0017757532    1.1607583236
 H   -0.8160624794   -0.1353458694    0.3695705532
 H   -0.0312430808   -1.3864074056   -1.5883861851
 H    1.8276191559   -0.7463117257   -2.9775496324
 H    0.4025453906    1.5777309329   -2.5244198018
 H    3.7150662432   -0.0379488129   -1.8588488224
 H    2.6433727909    2.1497512214   -2.2589706089
 H    3.2629433280   -0.9273632344    0.2247711911
 H    2.7145390905    0.6690769795    0.7431033646