17

 C    0.1418562591    1.4227194313   -0.2726985888
 N   -0.1560323351    0.0258661265    0.0639316516
 C    0.5504503807   -0.4775983092    1.1728488353
 C    2.0307996788   -0.8789987440    1.0667641524
 N    3.0771444458   -0.2739310385    1.8411617244
 C    1.0408365907   -1.8865412248    1.5433074910
 O    0.7694993751   -1.6411607938    2.9499525192
 C    0.1924708296   -0.4035450706    2.6435645112
 O   -0.4141708317    0.3059733393    3.3773204723
 H    1.2072353398    1.5166112498   -0.5015229163
 H   -0.4239039688    1.7000143098   -1.1662727091
 H   -0.0977026009    2.1335122251    0.5310426257
 H   -1.1547718435   -0.1045283664    0.1830651223
 H    2.2935373700   -0.9959383760    0.0176679683
 H    2.8581865146   -0.3410621944    2.8317348394
 H    3.9407064361   -0.7915551631    1.7036926652
 H    0.7691994296   -2.8562946711    1.1494811260