21

 C   -0.1231582503    1.5734712588    0.1018797515
 C   -0.0051335946    0.0459653660    0.0073363148
 C   -1.4183441502   -0.4656549572   -0.2333497674
 C   -2.0976806163   -0.2892042249   -1.5266116330
 O   -1.6734535220   -1.5800250927   -1.0912702945
 C    1.1753419322   -0.6193069550   -0.7914363585
 C    2.1442465552   -0.1331401808    0.3267126410
 C    0.8944337088   -0.6967526499    1.0675196920
 C    0.9783991794   -1.8985401726    0.0824906222
 H    0.7835124163    2.0648806106    0.4552525705
 H   -0.3828724887    2.0052680758   -0.8706052549
 H   -0.9271933338    1.8439423412    0.7969605684
 H   -2.0542232868   -0.4521051028    0.6557338124
 H   -3.1753450733   -0.1356283057   -1.5633956731
 H   -1.5423328422    0.1180840010   -2.3707621948
 H    1.3406958873   -0.5762931618   -1.8696597861
 H    3.0579319003   -0.7217611969    0.4405848055
 H    2.3644398796    0.9311357148    0.3995182238
 H    0.7296210131   -0.7351332708    2.1467858883
 H    0.0852048546   -2.4929136474   -0.0855863742
 H    1.8649975013   -2.5285265899    0.1915856763