17

 C    0.0176596442   -1.1247701518    0.1001740172
 C    0.0421193131    0.0776088588    0.0705178268
 C    0.0614507472    1.4960217138    0.0268180139
 C    0.2441122301    2.3472120176   -1.2024426523
 C    1.1975973372    2.5172868132   -0.0424367080
 C    0.4714191827    3.1811365483    1.0960694979
 C    1.0124779642    3.6669445681    2.3957867158
 C    0.2710000360    4.6131242331    1.4547402478
 O   -0.6228761650    2.2460529256    1.0488124357
 H   -0.0038393286   -2.1859443358    0.1320129724
 H    0.6565241395    1.8316968422   -2.0632533223
 H   -0.5007264616    3.1075651554   -1.4181444632
 H    2.2637931169    2.3508276585   -0.1102366477
 H    0.4959726981    3.3478263855    3.2942291376
 H    2.0873776550    3.7755103363    2.4996056657
 H    0.8361273270    5.3700002191    0.9210072497
 H   -0.7311643159    4.9114611422    1.7428290930