16

 O    0.3458155146    1.0530110811   -0.6147934727
 C    0.0152099337   -0.2124026061   -0.1211172917
 C    0.5003943805   -0.4384291677    1.2978096941
 N    1.5368617435    0.1143447489    1.7544597254
 O   -0.3521275846   -1.2542707611    1.9702069085
 C   -1.5310249457   -1.5091639438    1.1744040417
 C   -1.4710225114   -0.4912190821    0.0423522782
 C   -2.5172157181    0.4845205723   -0.2616904754
 O   -2.3039065330   -0.6821787819   -1.0812817413
 H    1.0841829046    1.3604144593   -0.0673012295
 H    0.4362439011   -1.0071732172   -0.7627999410
 H    1.6981776797   -0.1067159022    2.7367431734
 H   -1.4906696566   -2.5322285707    0.7833204650
 H   -2.4064421447   -1.4072095336    1.8188366747
 H   -3.4423238152    0.4836648012    0.3124814352
 H   -2.2317531282    1.4276482338   -0.7193567547