16

 O   -0.3087532117    1.3464857909   -0.2038246035
 C   -0.2398025424   -0.0384739077   -0.0728474407
 C   -0.4642263541   -0.7536695299    1.2374381167
 C   -1.4887839600   -0.0307853779    2.0834406360
 N   -2.7345718842   -0.7515467174    2.2397774104
 C   -2.4979553380   -0.0989557085    0.9400721244
 C   -3.4544370820    0.9427708668    0.5134655045
 O   -3.6344747311    1.2617357263   -0.6350099512
 C   -1.4989155979   -0.8271293393    0.0713867945
 H    0.5201468834    1.7200536369    0.1144910567
 H    0.5060709295   -0.5183959209   -0.7103999709
 H    0.1978424486   -1.5350266726    1.5951765741
 H   -1.3071943118    0.8103700703    2.7417382629
 H   -2.6142938718   -1.7598512846    2.1703877254
 H   -4.0121233136    1.4060864112    1.3558516425
 H   -1.7305142127   -1.6660997237   -0.5742496818