12

 N   -0.5351451245   -0.4688504339   -1.2606729543
 C   -0.2098880315    0.2573060933   -0.4233636218
 C    0.2247067742    1.1847034257    0.6191171615
 C    1.4636753660    1.9415690340    0.2320474743
 C    2.2207065101    1.8918905156   -0.9133661195
 N    3.2024514893    2.7939914984   -0.6823172784
 N    3.0731191719    3.3720128634    0.5243369541
 N    2.0170669677    2.8546458630    1.0804126411
 H   -0.5919472931    1.8833435282    0.8358369033
 H    0.3995075730    0.6227017092    1.5441053606
 H    2.1408351389    1.3181007999   -1.8207258577
 H    3.9697280480    3.0620380734   -1.2782703331