16

 C    0.0042616737    1.3607233451    0.0075122403
 O   -0.0033261581   -0.0697152389    0.0027986454
 C   -1.2115231696   -0.6426226022    0.0102280833
 N   -2.3370395989    0.0330834881    0.0211733876
 O   -3.3365156958   -0.9431376359    0.0256830680
 C   -2.7598804465   -2.1573040414    0.0171854481
 C   -1.4092910809   -2.0570886005    0.0071579562
 C   -0.3762725363   -3.1327778642   -0.0043048607
 O   -1.0468883736   -4.3818984327    0.0000702773
 H    1.0545044025    1.6532295617    0.0002941541
 H   -0.5078879839    1.7523240045   -0.8765924718
 H   -0.4940058907    1.7463903560    0.9020975181
 H   -3.4254821129   -3.0049538032    0.0196636134
 H    0.2660027523   -3.0209894317   -0.8932440169
 H    0.2827559936   -3.0235900725    0.8725946984
 H   -0.3841779549   -5.0780874323   -0.0076338709