12

 O   -0.2876706545    0.4992716049    0.8218126912
 C    0.2351242671    0.8514654205   -0.1998813759
 C    1.4344473193    1.7604716721   -0.2107343284
 N    2.3061437116    1.6520984414   -1.3735530017
 C    1.5263774519    2.8901974816   -1.2338831607
 C    0.4784986954    3.0946231560   -2.2143402882
 N   -0.3702960355    3.2588949385   -2.9797173003
 C    2.1959773334    4.0929518519   -0.7891835704
 N    2.7630524455    5.0343804571   -0.4318988996
 H   -0.1091626729    0.5300272730   -1.2032479918
 H    1.8511247523    1.9834721263    0.7680429961
 H    3.2819836365    1.8149706467   -1.1352713002