18

 C   -0.0248111571    1.3333446890    0.0620002186
 O   -0.0111702938   -0.0644157384   -0.1269774314
 C   -1.2689761795   -0.6541770080    0.0076913008
 C   -1.2594695839   -2.1472137877   -0.3607631904
 N   -0.2359477132   -2.6670866611    0.6132407802
 C   -1.2995087073   -2.4323963932    1.6221870474
 C   -2.4506601693   -2.5940301937    0.6214500779
 O   -3.1452327610   -1.4311136681    1.0948064069
 C   -1.8109918255   -0.9450251056    1.4407144899
 H    0.9932651253    1.6896021181   -0.1109487028
 H   -0.7031698235    1.8339755023   -0.6466343607
 H   -0.3270069387    1.6149050883    1.0817839117
 H   -2.0402952749   -0.0963667369   -0.5412277771
 H   -1.1693755004   -2.4350099620   -1.4060864952
 H   -0.1640472717   -3.6766209719    0.4857988582
 H   -1.2277127053   -2.8651092460    2.6183844468
 H   -3.0614779134   -3.4734715466    0.4170691872
 H   -1.7956505069   -0.1827356984    2.2165848419