17

 N   -0.1969779988    1.3540877966    0.3916648846
 C    0.0910411196    0.1098058600   -0.1562043259
 O    1.1393505693   -0.1619781899   -0.6809450397
 N   -1.0227961502   -0.7511538301   -0.0802701573
 C   -1.0437637884   -2.1200103040   -0.3613116334
 O   -0.0555455689   -2.7796479399   -0.5791443349
 C   -2.4218424474   -2.7050561261   -0.3442962538
 C   -2.6783348531   -3.8595567963   -1.2978699208
 C   -2.5493377595   -4.1314154809    0.1630418318
 H    0.6215306137    1.9400324556    0.4653436279
 H   -0.8043033004    1.3917551254    1.1967662769
 H   -1.9117355012   -0.3178632768    0.1148060974
 H   -3.2499783992   -2.0313667101   -0.1483804820
 H   -3.6578360358   -3.9115270676   -1.7587517932
 H   -1.8435241766   -4.1349547199   -1.9312735104
 H   -1.6282095053   -4.5890385398    0.5041293672
 H   -3.4376171979   -4.3765862362    0.7336267456