22

 C   -0.0771814710    1.5806782453    0.2999559203
 C    0.0275988334    0.0927575744    0.0256279043
 C   -1.0865690950   -0.6935495220    0.6991983165
 C    0.5398895738   -0.5387028704   -1.2178337720
 C    1.7276460052    0.1387871374   -1.8991037979
 C    1.5427586561    1.3780035024   -2.7571352737
 O    2.8268515323    1.7363551438   -3.2518731236
 C    2.3980235168    0.1746347333   -0.5014809954
 N    1.3000671009   -0.6604505537    0.1117164223
 H   -1.0321952111    1.9630906561   -0.0763208266
 H   -0.0552728455    1.7588501507    1.3815977569
 H    0.7159109235    2.1761789965   -0.1486794714
 H   -2.0659374938   -0.3973329509    0.3072319206
 H   -0.9547819051   -1.7664885047    0.5411050591
 H   -1.0826799031   -0.5105811048    1.7789554557
 H    0.0237495482   -1.3960351188   -1.6438695096
 H    2.2481859795   -0.5974334189   -2.5192346911
 H    0.8464272911    1.1417740529   -3.5795571909
 H    1.0973875134    2.2034462193   -2.1853823084
 H    2.7360319349    2.5367183186   -3.7769377217
 H    3.3423213809   -0.3689811397   -0.4502743580
 H    2.5389663647    1.1547414033   -0.0371992555