14

 O    0.0356021361    1.3551969969    0.2751828850
 C    0.0079697882   -0.0270903571   -0.0166611621
 C   -1.4226269097   -0.4590513264   -0.0053475872
 C   -2.5964367152    0.2614668235   -0.0654835250
 N   -3.6810254176   -0.5689068214   -0.0449894197
 C   -3.1848844699   -1.7894987734    0.0255839822
 N   -1.8109115735   -1.7703992096    0.0539782751
 C   -3.9125225234   -3.0054793645    0.0696497003
 N   -4.4644614189   -4.0228972255    0.1073266793
 H    0.9150520194    1.6884121405    0.0755617293
 H    0.4549808595   -0.2383538700   -1.0027148188
 H    0.5808266825   -0.6128518279    0.7233627820
 H   -2.6995920295    1.3330132641   -0.1140820963
 H   -1.2124172780   -2.5784601092    0.1188193561