13

 C   -0.5584669089    0.7054798116   -0.1314472682
 O    0.7839018589    0.2738789814    0.0239623312
 C    1.2817919517   -0.4875137229   -1.0504996010
 C    0.8531537374   -1.9251642696   -0.9940985061
 N    1.6278780633   -2.9168759542   -0.6573831866
 O    0.8391395972   -4.0107472486   -0.7204701175
 N   -0.4423604250   -3.6201540044   -1.1091397360
 N   -0.4281323455   -2.3755518582   -1.2749140130
 H   -0.6831242703    1.2894099809   -1.0555532453
 H   -1.2665817337   -0.1319732407   -0.1497669944
 H   -0.7795490016    1.3437879456    0.7263829443
 H    0.9763249361   -0.0619427260   -2.0182001587
 H    2.3720171104   -0.4598808648   -0.9847105387