16

 C    0.3017040248    0.7744304092    0.8998996137
 C   -0.1831214200    0.4066512328   -0.5134639953
 C   -1.5830585547   -0.1048436537   -0.5274345761
 N   -2.0104118609   -1.2935361855   -0.8322174381
 C   -3.3738365848   -1.1746482683   -0.6485714850
 C   -4.3287000164   -2.2944060203   -0.8772245019
 N   -3.7639246723    0.0091853425   -0.2549509769
 O   -2.5651995139    0.7349350703   -0.1712306879
 H    1.3269736023    1.1515141882    0.8595937814
 H   -0.3319057224    1.5477785129    1.3415781305
 H    0.2842328554   -0.0985906828    1.5584770390
 H   -0.1258849086    1.2875996080   -1.1630384567
 H    0.4477049939   -0.3696317048   -0.9518976836
 H   -4.0806719858   -3.1416885082   -0.2309192496
 H   -5.3497657306   -1.9709323826   -0.6703517855
 H   -4.2631928758   -2.6425050477   -1.9124138281