18

 N   -0.0609121306    1.2487215110   -0.1571719545
 C   -0.0130011900    0.0035689369    0.0293132561
 O    1.1424347206   -0.7421575739    0.1747555010
 C    0.7311765261   -2.0568515824    0.5433774041
 C   -0.0108172828   -2.9356044114   -0.5336090554
 C   -0.9080665951   -3.4127137056    0.6422700802
 C   -0.6764196443   -1.9815210543    1.1753516494
 C   -1.1541852300   -0.9820990919    0.0760410942
 C   -0.9267767093   -1.8884690936   -1.1904035673
 H    0.8808599019    1.6446029886   -0.1810885644
 H    1.5284661575   -2.5489661223    1.0969768503
 H    0.5193496030   -3.6331988000   -1.1801685170
 H   -1.9261831617   -3.7274110884    0.4021980348
 H   -0.4261261892   -4.1606197512    1.2771350285
 H   -0.8333858431   -1.6935080853    2.2141266003
 H   -2.1337306682   -0.5226363167    0.1744867940
 H   -0.4647138105   -1.3390277879   -2.0132787651
 H   -1.8579673344   -2.3324814519   -1.5515876191