20

 N   -0.1186587730    1.3051775113    0.0414758865
 C   -0.0677152005    0.0452831770    0.0927890095
 O   -1.1909048075   -0.6821428899   -0.0555722283
 C   -1.0362175901   -2.1011829946   -0.0082299495
 C   -2.4174827554   -2.7268023848   -0.1381798036
 C   -2.3724189193   -4.2484873736   -0.0914505110
 C   -2.1356546999   -4.9320381247    1.2777738146
 O   -3.3699046873   -5.6670020253    1.1776824035
 C   -3.7230930600   -4.9991171918   -0.0502182011
 H    0.8116302818    1.6956902920    0.1758870472
 H    0.8329231965   -0.5644130480    0.2546562223
 H   -0.3831465989   -2.4345819277   -0.8273194834
 H   -0.5638244777   -2.3948631152    0.9400993887
 H   -3.0557066403   -2.3445571448    0.6674861769
 H   -2.8652041094   -2.3922485233   -1.0814859544
 H   -1.7070148441   -4.6340749225   -0.8700633825
 H   -1.2667118724   -5.5964023659    1.3552711152
 H   -2.1349679264   -4.2460076610    2.1372352705
 H   -4.6023629831   -4.3517234689    0.0720386741
 H   -3.9147465131   -5.7081896782   -0.8640137150