13

 O   -0.0499412603    1.3316809382   -0.0929171301
 N    0.0284475722   -0.0416044622   -0.0298973520
 C   -1.1084259167   -0.6209903707    0.0305957225
 C   -1.2362996939   -2.1231780966    0.0989479517
 O   -2.5732736295   -2.3978059808   -0.3177194410
 C   -3.4007734632   -1.3118856352    0.0610032362
 C   -2.5072081632   -0.0682762660    0.0559866190
 O   -2.8677217912    1.0793123988    0.0868720460
 H    0.8778647971    1.5914777948   -0.1438553438
 H   -0.5500868137   -2.6458161491   -0.5709018102
 H   -1.0644296590   -2.4870944985    1.1256103360
 H   -4.2263374009   -1.2188017904   -0.6492834706
 H   -3.8251439877   -1.4456928221    1.0710631163