15

 N    0.0462165183    1.3757291606   -0.0374588761
 C    0.0002611535   -0.0063912959    0.0041575383
 C   -1.1407644398   -0.7537218845    0.0118373757
 N   -1.0831890920   -2.1167318380    0.1077192826
 N    0.0572758873   -2.8158099372    0.2117797556
 C    1.1612117058   -2.1307069192    0.2041414930
 O    2.3290536430   -2.8096572745    0.2957835642
 C    1.2852758361   -0.6834588530    0.0913778641
 N    2.3804828288    0.0035701873    0.0560303553
 H    0.9825730735    1.6958899551   -0.2595986685
 H   -0.6839180340    1.8389878870   -0.5560729867
 H   -2.1352495500   -0.3298900274   -0.0519397572
 H   -1.9178826256   -2.6752863981    0.1218626705
 H    2.1082966716   -3.7487127664    0.3506199357
 H    3.1895999335   -0.6124119657    0.1187890036