21

 C   -0.3023625425    1.3318720332    0.5371445007
 O   -0.1846924890   -0.0694036475    0.5841309823
 C    1.1468453641   -0.5157135698    0.4580888985
 C    1.1247198210   -2.0308730368    0.5355930994
 O    2.4302701437   -2.6212815752    0.2894178533
 C    2.3051810271   -3.4267042930    1.4790471285
 C    2.7761016643   -4.8410488299    1.3991741057
 C    2.2780590763   -2.5393053199    2.6828179591
 C    1.0080925156   -2.7507388884    1.8751093179
 H    0.0665610178    1.7409362237   -0.4168740203
 H   -1.3627264006    1.5755510043    0.6393481381
 H    0.2543315380    1.8167326694    1.3547693750
 H    1.5808462769   -0.2098593708   -0.5094139273
 H    1.7831992881   -0.0921834907    1.2512622339
 H    0.3963664349   -2.4129874608   -0.1906117412
 H    3.8587165601   -4.8749118921    1.2310966117
 H    2.5635528246   -5.3690555861    2.3331725251
 H    2.2886336428   -5.3728047678    0.5760868047
 H    2.2798511834   -3.0495371822    3.6413169620
 H    2.8058477613   -1.5897998314    2.6715070422
 H    0.0990270523   -3.1549894682    2.2984778608