20

 C   -0.7486478788    1.1683248566   -0.0689712203
 C    0.0060529981   -0.1562415402   -0.0897601414
 C    1.0564327316   -0.2886523443   -1.2363194310
 O    1.6490663717    0.9483406700   -1.6377592391
 C    2.0853264534   -1.2285754633   -0.6477704912
 C    1.9569730495   -1.3257973499    0.6767290474
 C    0.7959768305   -0.5384566579    1.1739272132
 C    0.8750516208    0.3034189908    2.4036836069
 N    0.1363532073   -0.9695697793    2.4188642522
 H   -0.0650725045    2.0170954942    0.0072550511
 H   -1.3275500423    1.2956285754   -0.9887167206
 H   -1.4527083192    1.2130614563    0.7700665692
 H   -0.7147043887   -0.9707598314   -0.2485018840
 H    0.5896442691   -0.6705211708   -2.1497653266
 H    2.2731930275    1.2018289752   -0.9484418094
 H    2.8659151227   -1.6798292146   -1.2491729648
 H    2.5940739014   -1.8880733187    1.3499961611
 H    1.7844580706    0.3105833243    2.9993401257
 H    0.3174370397    1.2357344801    2.4213177843
 H   -0.8633227105   -0.7862562227    2.3529622773