21

 C    0.2375406130    1.4712729746    0.1148682126
 O    0.0131404281    0.0808673211    0.0495766016
 C    0.5676129055   -0.5619354762   -1.0887099471
 C    1.0636549185   -1.9611357932   -0.7339503651
 C    0.1515400231   -2.8079487649    0.1355908777
 C    0.0896756338   -2.9202090082   -1.3582597516
 O   -0.9378182339   -2.1921415035   -1.9783434232
 C   -0.4693376896   -0.8555026661   -2.2153121061
 C   -1.6701476630    0.0684832175   -2.2975082300
 H    1.3128052099    1.7078973802    0.1001737673
 H   -0.2471939274    2.0196550194   -0.7051306845
 H   -0.1841519014    1.8194106836    1.0613368704
 H    1.3896181875    0.0487976747   -1.4854827386
 H    2.1300632447   -2.1480343130   -0.7160599318
 H    0.6188564327   -3.6121664713    0.6941877238
 H   -0.6725842451   -2.3119642880    0.6333368048
 H    0.3889698336   -3.8243981153   -1.8800958986
 H    0.0791788196   -0.8450598423   -3.1725333669
 H   -2.1591954201    0.1424070232   -1.3239525509
 H   -1.3705429428    1.0693749567   -2.6230507452
 H   -2.3870134968   -0.3237038391   -3.0236226983