17

 C   -0.0528729470    1.5264175245    0.0270839801
 C   -0.0455718742    0.0277270413    0.0386874635
 C   -0.2560168428   -0.8219884460   -1.2568614068
 N    0.8085559388   -1.7617662595   -1.3520980846
 C    0.8454358918   -2.3040138437   -0.1872102070
 N    1.9116211455   -1.7671116938    0.6822857549
 C    0.6860954761   -0.8876613092    1.1026063724
 C   -0.3588592570   -1.9634864198    0.7616729854
 C   -1.1844858501   -0.9900323095   -0.0520745562
 H    0.9439283210    1.9203987241   -0.2016814596
 H   -0.7416847513    1.9053287011   -0.7350146304
 H   -0.3689992235    1.9449427791    0.9897314303
 H   -0.5931862689   -0.3025162082   -2.1467834385
 H    2.0465482045   -2.3660265087    1.5036409494
 H    0.7843439988   -0.4602659715    2.1011644559
 H   -0.7279737382   -2.6959966254    1.4731361862
 H   -2.2566022634   -0.8550275348   -0.0820700850