16

 O   -0.0257174223    1.4831073509   -0.0873591284
 C    0.0063598213    0.0890219597   -0.0062073026
 C   -0.1111834715   -0.6592516085    1.3615480462
 C   -1.5494034096   -0.1223679101    1.5262616381
 C   -1.3638669087   -0.6258321840    0.0708351011
 C   -2.3715868875   -0.8273339199   -1.0349794544
 C   -3.5782418381   -1.5204366160   -0.5874017330
 N   -4.5340779251   -2.0584095473   -0.2255602953
 O   -0.6445591997   -1.8071709244    0.5918043055
 H    0.8770984520    1.8156497298   -0.0742829595
 H    0.7093058012   -0.3831515036   -0.7013645814
 H    0.6460539402   -0.8723886870    2.1145574479
 H   -2.2058693447   -0.7384588509    2.1405690644
 H   -1.6779977370    0.9497722820    1.6757396814
 H   -2.6497007507    0.1526864296   -1.4395017553
 H   -1.9056024099   -1.3970696303   -1.8468263245