19

 O   -0.0262202080    1.4256190291   -0.0556648436
 C    0.0125755679    0.0135383432    0.0330424508
 C    0.6165389291   -0.5525057414    1.3554680111
 C   -0.5683100285   -1.3994464346    1.9420650714
 O   -0.2408852355   -2.2871537445    2.9774671146
 C   -1.1852266885   -1.9552648339    0.6308258602
 C   -1.4455077068   -0.5462256001    0.0511380420
 C   -2.1555893539    0.1100295862    1.2266205019
 C   -1.6383315110   -0.4033772747    2.3446365933
 H    0.8790641681    1.7510738606   -0.0553027152
 H    0.5428815761   -0.4054402331   -0.8347430118
 H    1.4845897232   -1.1939032748    1.1600957917
 H    0.9225378608    0.2465812474    2.0345814430
 H    0.4867054467   -2.8421471470    2.6779744946
 H   -0.4824328103   -2.5545936113    0.0389506681
 H   -2.1005625336   -2.5223648240    0.8106933691
 H   -1.9452270407   -0.4770351342   -0.9148928554
 H   -2.8624590985    0.9239740222    1.1402775378
 H   -1.8202031465   -0.1170975349    3.3724543463