21

 C   -0.0316093964    1.6769350737    0.0632229827
 C    1.5115636964    1.5152752908    0.0523403243
 C    1.3203991154    0.0439183706    0.5343948592
 C   -0.1557619936    0.1295441298    0.0437724640
 C    2.2189711288   -1.0148697229   -0.0019396478
 C    2.4552399565   -1.4550686499   -1.4630573029
 C    2.8262003966   -2.8826085001   -0.9263938303
 C    2.5905879095   -2.3568466915    0.4944724810
 O    3.4689114311   -1.2408321213    0.6790922910
 H   -0.3877687620    2.0986874878    1.0075417704
 H   -0.4904560512    2.2320914333   -0.7578950428
 H    1.9126571229    1.5482989337   -0.9655714350
 H    2.1078358596    2.1780954404    0.6828236470
 H    1.3569350519    0.0003925884    1.6274061869
 H   -0.9214452566   -0.3369522777    0.6681927942
 H   -0.2617187721   -0.2506452605   -0.9769310463
 H    1.5491057298   -1.4625633827   -2.0734735048
 H    3.2422782245   -0.9062031962   -1.9852508454
 H    2.1050437090   -3.6445670855   -1.2318507592
 H    3.8401577533   -3.2373550009   -1.1257168035
 H    2.2855808566   -2.8959907492    1.3851176672