17

 C   -0.0029320593    1.5192780858    0.0062556457
 C    0.0132810945    0.0204167742    0.0142291626
 C   -0.0211666344   -0.8047724910   -1.0844402366
 N   -0.0150086199   -2.1149214384   -0.6515904558
 C    0.0496979725   -3.2763557091   -1.5048764939
 C    1.4212703465   -3.6460293934   -1.8989677010
 N    2.4927742341   -3.9411283473   -2.2127383362
 C    0.0426773264   -2.1309782322    0.7236210268
 C    0.0542645033   -0.8313748577    1.1615182060
 H    0.8854243325    1.9343214220    0.4959837904
 H   -0.0292493987    1.9091950456   -1.0153080573
 H   -0.8759756207    1.9183132995    0.5356114434
 H   -0.0502950730   -0.5741681029   -2.1382116802
 H   -0.4071467221   -4.1279662252   -0.9911230139
 H   -0.5367677942   -3.0975143667   -2.4120224775
 H    0.0689871994   -3.0659673762    1.2609723989
 H    0.0750341031   -0.5143987271    2.1935765088