16

 C    0.1325561297    1.2571173616    0.2220604447
 C    0.0107961441   -0.2489578439   -0.0986999073
 C   -1.4372796602   -0.6870156467   -0.1744491592
 C   -1.8891602836   -1.9761270553    0.3571712002
 O   -2.1088422123   -0.7609158441    1.0813136272
 C    0.7370894518   -0.5803126452   -1.3875075327
 O    0.2170600649   -0.9827398140   -2.3973195439
 C    2.2036440234   -0.3644445253   -1.3485249152
 N    3.3477598928   -0.2026450138   -1.3031978083
 H    1.1775238817    1.5646314593    0.3124903641
 H   -0.3407868626    1.8615092949   -0.5579435366
 H   -0.3727636735    1.4569524872    1.1694463269
 H    0.5087511347   -0.8051361401    0.7072287165
 H   -2.0175623843   -0.2277800347   -0.9740821640
 H   -2.7813824422   -2.4447369274   -0.0532500720
 H   -1.1672449745   -2.6594821125    0.8023612298