13

 C   -0.0374816702    1.3317387127    0.0549230348
 O    0.0121465464   -0.1026747455   -0.0160823792
 C    0.6189653790   -0.6092102274   -1.0796238147
 N    1.1635194696    0.0801370518   -2.0476098209
 O    1.6609847479   -0.8796048903   -2.9125660576
 N    1.4207204678   -2.1324031182   -2.4748911745
 C    0.7760265716   -2.0108487932   -1.3401763191
 C    0.3145055175   -3.1498788500   -0.5138404591
 O    0.4831830236   -4.3082291842   -0.7952750660
 H    0.9743104709    1.7460832387    0.0738082722
 H   -0.5770449795    1.7359615259   -0.8060309828
 H   -0.5637887261    1.5619516475    0.9802605217
 H   -0.2131772285   -2.8360654678    0.4094202351