16

 C    0.0500754349    1.4910972740   -0.0394833474
 C    0.0268178921   -0.0288556603    0.0517508965
 O    0.8284182246   -0.6365409928   -0.9923974972
 C    1.6483095764   -1.3627984015   -0.0554176245
 C    0.8705715083   -0.7704818548    1.1427086272
 C    1.6618874933    0.0056140194    2.1660958501
 O    1.3876564840    1.0989537539    2.5852461410
 C   -1.3590655608   -0.5291796111   -0.0102315746
 N   -2.4430160186   -0.9283038905   -0.0426873511
 H    1.0783527640    1.8529705494   -0.0044467250
 H   -0.4003246657    1.7901382919   -0.9898894259
 H   -0.5078919021    1.9421398766    0.7827559488
 H    1.5645587324   -2.4462441742   -0.1860010026
 H    2.7028681767   -1.0700458951   -0.1271743242
 H    0.2951477331   -1.5241451334    1.6898839059
 H    2.5543085675   -0.5487305114    2.5396736630