20

 C    0.2481767257    1.2656851781    0.1926840853
 O   -0.1429731213   -0.0345398419   -0.2111740022
 C    0.5645467022   -0.5255037001   -1.2977350579
 C    0.3198884734    0.0351829830   -2.6999980584
 C    0.5399300604   -1.2320006205   -3.5783817742
 N    1.2920315038   -2.1990741718   -2.7476681574
 C    2.5917700553   -1.5663020951   -2.2954116194
 C    1.9341989660   -1.1504934806   -0.9904156478
 C    0.7459019661   -2.0090319243   -1.3732072540
 H    1.3151685829    1.3052626873    0.4527750044
 H    0.0524648149    2.0116181534   -0.5902762460
 H   -0.3455909763    1.5161659773    1.0747070021
 H   -0.7006088811    0.4236470279   -2.7727998028
 H    1.0050974627    0.8470210550   -2.9646183955
 H   -0.4211832707   -1.6870206422   -3.8386508517
 H    1.0818993080   -1.0338575654   -4.5072335464
 H    3.3607799125   -2.3340935653   -2.1680648342
 H    2.9768295395   -0.7838053701   -2.9609572977
 H    2.3931106720   -1.0352457588   -0.0155260540
 H    0.1754182541   -2.7596587059   -0.8416021521