15

 C    0.0087126355    1.4931102020   -0.0287408025
 N   -0.0482399613    0.0402010968   -0.0629875592
 C   -1.2118495371   -0.6168880874    0.1710043285
 O   -2.2678425633   -0.1049152560    0.4603404928
 N   -1.1032973209   -2.0400761488    0.0640641864
 C   -0.0143034734   -2.8848386987    0.0308897891
 N   -0.3926739701   -4.1265047365   -0.0602039662
 N   -1.7822396900   -4.1336717443   -0.0919261156
 C   -2.1782093025   -2.8963884004   -0.0087743168
 H    0.9636262137    1.8153024102    0.3937250061
 H   -0.1071315025    1.9303890060   -1.0270271468
 H   -0.8058046523    1.8482038313    0.6021196625
 H    0.7100076346   -0.4541423257   -0.5026211706
 H    1.0078781802   -2.5503732933    0.1119853502
 H   -3.1936672004   -2.5369523751    0.0017304720