21

 C    0.4569485872    1.6309151083   -0.0026463803
 C   -0.0604532271    0.1819563573   -0.0422805190
 C    0.4425083943   -0.5045577854   -1.3199021689
 O   -0.1439519712   -1.7629241374   -1.5825956905
 C    0.4621865216   -2.8580844885   -0.9258286649
 C   -0.0221018784   -3.0642209377    0.5095515661
 C    0.3323431690   -1.9757819380    1.4988094312
 O    1.5547140351   -1.2447807434    1.3178171351
 C    0.3110093241   -0.5272142555    1.2492427624
 H    1.5508894820    1.6536813932    0.0527384065
 H    0.1518695763    2.1842778620   -0.8961596912
 H    0.0687139695    2.1650148707    0.8699174737
 H   -1.1582615643    0.2048658667   -0.0916674161
 H    0.1820020911    0.1304285891   -2.1736844106
 H    1.5383635428   -0.5890599654   -1.2841466913
 H    0.2012685629   -3.7452127732   -1.5126837899
 H    1.5564472910   -2.7546504585   -0.9380237439
 H   -1.1124243607   -3.1907817225    0.5104462211
 H    0.4009155769   -4.0109469014    0.8722128133
 H    0.1643738425   -2.2728974432    2.5371323806
 H    0.1348815852    0.0941350328    2.1318927066