17

 O   -0.0143459830   -0.0642486481   -0.1445043791
 C   -0.0637331782    1.1341650999   -0.0320748668
 C   -1.3928299807    1.8964544223   -0.0088876808
 C   -1.6901838138    2.3219809751    1.4104099357
 C   -0.9727487381    3.2338956359    2.0693184206
 C    0.2190668463    3.9453111965    1.4715131827
 C    1.3522420722    2.9339886550    1.2683867964
 O    2.3134717710    2.8946024992    1.9934817569
 C    1.2201003908    1.9659564286    0.0854415390
 H   -1.3177181757    2.7729018288   -0.6665914479
 H   -2.1668881393    1.2334976415   -0.3968335753
 H   -2.5002901373    1.8063046355    1.9162753044
 H   -1.2041110103    3.4538422877    3.1067138483
 H   -0.0441173862    4.3917566289    0.5031148931
 H    0.5857590876    4.7323580690    2.1312658750
 H    2.0731160644    1.2871202039    0.0961510772
 H    1.2697865404    2.5841642003   -0.8242511096