13

 C   -0.0088558797    1.4002926247    0.1605537192
 C   -0.0348219962   -0.0705990854   -0.0240554166
 N   -0.2011372145   -0.7472764211   -1.1269418360
 C   -0.1412553817   -2.0700272032   -0.7456142143
 C    0.0623516389   -2.1139158774    0.5956563387
 O    0.1332286141   -0.8470714579    1.0758069923
 N    0.2026690091   -3.2003615061    1.5098375733
 O    0.1294679240   -4.3218869186    1.0151228402
 O    0.3813273114   -2.9372158248    2.6910944911
 H    0.9482734376    1.7218221083    0.5829082578
 H   -0.1567507938    1.8797601959   -0.8067747975
 H   -0.7979348538    1.7192784785    0.8486332141
 H   -0.2447092054   -2.8904371229   -1.4356295023