20

 C    0.2467251136    1.3260658208    0.2071092308
 O   -0.2918478456    0.1184319885   -0.2864484528
 C    0.5230299691   -0.5085284186   -1.2336178786
 C    1.6840394843   -1.3736845747   -0.6891625189
 O    1.0388935158   -2.5878937453   -1.1350454919
 C   -0.0593067290   -1.8554447548   -1.7320890220
 C   -1.4064382317   -2.2977058560   -1.2169178696
 C   -1.6251809718   -3.7405147812   -0.9478082806
 N   -1.5614197850   -2.7680905140    0.1594455512
 H    1.2006058403    1.1695575667    0.7330365455
 H    0.4142590786    2.0535244326   -0.6023646788
 H   -0.4786464244    1.7375070625    0.9120001575
 H    0.8100786439    0.1948286514   -2.0281461395
 H    2.6582595030   -1.2327039388   -1.1718954300
 H    1.8029401041   -1.3455432112    0.4004127216
 H   -0.0375377962   -1.9453416219   -2.8274415592
 H   -2.2335474529   -1.6936897654   -1.5839325843
 H   -2.6016462879   -4.1846739001   -1.1182564908
 H   -0.7796184605   -4.4074379824   -1.0901915826
 H   -0.6358580178   -2.8271430880    0.5799698931