19

 O   -0.0415249775    1.3846282252    0.0156454050
 C    0.0352619817   -0.0355490785   -0.0028649565
 C   -1.3685902418   -0.5657845389    0.0068626922
 C   -2.2974688358   -0.3856393075    1.2453015687
 C   -2.9929459052   -1.6558700576    0.7684844562
 C   -1.7769085930   -2.0985681163   -0.0283082672
 C   -2.9891893108   -1.6278738530   -0.7754467423
 O   -3.8279702689   -2.4330597420   -1.5185857482
 C   -2.3202439988   -0.3269187145   -1.2069602254
 H    0.8543294907    1.7340933034    0.0111812213
 H    0.5630830907   -0.3965093975   -0.9010240657
 H    0.5818473232   -0.4175244209    0.8754254956
 H   -1.7528741287   -0.5484735924    2.1810859364
 H   -2.8695289567    0.5461282149    1.3106145652
 H   -3.6913151826   -2.2966034952    1.2928312479
 H   -1.2174087372   -3.0223312699   -0.0510671804
 H   -4.7275075093   -2.0993127499   -1.4282389459
 H   -2.8980181661    0.6038515402   -1.2184501242
 H   -1.7943614240   -0.4547394794   -2.1578967828