19

 C   -0.0899531214    1.5660971163    0.0472203946
 C    0.0231052677    0.0563248479   -0.0640544369
 C   -1.1030654617   -0.6799387784    0.6421886441
 C    0.5813279703   -0.6603732661   -1.2380275846
 C    1.7548959193    0.0307991669   -1.9095117821
 O    1.4283499806    1.1828929087   -2.6603062299
 C    2.3989750247    0.1499311577   -0.4985502230
 N    1.3015691450   -0.6716621610    0.1211934893
 H    0.5758084672    2.1006004540   -0.6275084192
 H   -1.1126100622    1.8691270906   -0.2001384439
 H    0.1055409971    1.8832687681    1.0787515986
 H   -2.0671671796   -0.4572501151    0.1723842515
 H   -0.9387735223   -1.7598579203    0.6163915737
 H   -1.1577982423   -0.3728937500    1.6921002808
 H    0.1013626224   -1.5516456049   -1.6325930352
 H    2.3149267011   -0.6838940466   -2.5257264474
 H    2.2206413522    1.4768132779   -3.1211745184
 H    3.3523226469   -0.3741766187   -0.4013236086
 H    2.5009956250    1.1594263131   -0.0918699833