11

 N   -0.1089986576    1.5825689679   -0.0433256980
 C    1.3647647330    1.3119474105    0.0088704963
 C    1.2576771701    0.0260647976    0.8976151682
 O    1.9954047203   -0.8200888737   -0.0295334270
 C    1.2251792545    0.0557046646   -0.9007039628
 C   -0.0347485246    0.0861917150    0.0139579816
 H   -0.4309937002    1.9539325794    0.8538189814
 H    2.1306335122    2.0875212494   -0.0017200854
 H    1.3910091658   -0.1217160594    1.9703638779
 H    1.3134905696   -0.0496053968   -1.9803268471
 H   -0.9045270632   -0.5708058045    0.0093148750