15

 C   -0.1163417788    1.5195737548    0.0472951654
 C    0.0180946670   -0.0181368135    0.0100790687
 N    0.6248329183   -0.5867422373   -1.1950587649
 C   -0.1764402063   -0.4272719067   -2.4031791106
 C    0.4561193669   -1.1140558645   -3.5328212668
 N    0.9605753363   -1.6298249194   -4.4342589354
 C    0.7907982344   -0.4781070179    1.1762452008
 N    1.4035846710   -0.8024575085    2.0997950306
 H    0.8666970595    1.9925494508   -0.0328080574
 H   -0.7435809107    1.8693087759   -0.7767408875
 H   -0.5765165955    1.8431369456    0.9846865520
 H   -0.9834193107   -0.4604217393    0.0983869401
 H    1.5606034700   -0.2187035995   -1.3323005824
 H   -1.1602902670   -0.8819631131   -2.2313095170
 H   -0.3604099744    0.6163381229   -2.7094406758