18

 C   -0.2007126199    1.5043540920    0.0483973633
 C    0.1066382045   -0.0008484336   -0.0257087165
 C    0.7487317852   -0.5324818723    1.2210882371
 N    2.0279318154   -0.8297379492    1.2227615796
 O    2.3182585130   -1.2762483892    2.5071249308
 C    1.1969603214   -1.2337627029    3.2420092787
 C    0.1568308192   -0.7730942360    2.5025418962
 C   -1.2595623505   -0.5870154534    2.9393659554
 O   -1.4003534471   -1.1589150010    4.2294228415
 H    0.7174198055    2.0784903624    0.2017319403
 H   -0.6682786246    1.8469629194   -0.8794095533
 H   -0.8827571913    1.7375869728    0.8722604439
 H   -0.8194072306   -0.5564498980   -0.2192981419
 H    0.7805097824   -0.2008803087   -0.8635172478
 H    1.2762749989   -1.5660989292    4.2639415190
 H   -1.5157626892    0.4854997925    2.9532898484
 H   -1.9400868403   -1.0620287804    2.2125141535
 H   -2.2907976718   -0.9778735850    4.5433046118