19

 C    0.0538680447    1.5651866645   -0.1235073070
 C   -0.0099438971    0.0535590330    0.0223115849
 O    0.6341344611   -0.5048352530   -1.1159406688
 C    0.7032565996   -1.9254639596   -1.2088140063
 C    1.5313481363   -2.5501424668   -0.0681575587
 C   -0.6903281506   -2.5764559045   -1.3145916295
 C    1.4212636808   -2.1611450676   -2.4835139699
 N    1.9772602516   -2.3888642857   -3.4696517995
 H    1.0928670197    1.9019282757   -0.1725183258
 H   -0.4528469056    1.8836177865   -1.0384709679
 H   -0.4303953226    2.0476746098    0.7306794366
 H    0.4909709607   -0.2593818692    0.9494051858
 H   -1.0563781776   -0.2776462128    0.0828003571
 H    0.9971467176   -2.4705701537    0.8818888046
 H    1.7109171530   -3.6094929891   -0.2677243724
 H    2.4943438834   -2.0419854415    0.0192505820
 H   -1.2755809323   -2.0870025274   -2.0963378942
 H   -0.5945992960   -3.6369641010   -1.5604756018
 H   -1.2243397566   -2.4962051878   -0.3644919592