14

 N   -0.0261042729    1.3326740673    0.0083826196
 C   -0.0022670509   -0.0148825574    0.0008816723
 N   -1.1960700167   -0.6442219755    0.0042703564
 C   -1.1409618277   -1.9674919751   -0.0033743453
 C    0.0553324968   -2.6893051407   -0.0142743127
 C    0.0839112832   -4.1541270762   -0.0225461882
 O    1.0911634859   -4.8276146354   -0.0318576533
 C    1.2272225958   -1.9160987791   -0.0167687517
 N    1.2205324612   -0.5954066074   -0.0094177379
 H    0.8399499984    1.8407953475    0.0061765865
 H   -0.9084719872    1.8117269056    0.0161103085
 H   -2.0967291978   -2.4919022701   -0.0007561991
 H   -0.9236333693   -4.6300768804   -0.0191227111
 H    2.1943618211   -2.4131653131   -0.0251009640