18

 C    0.1236202798    1.3566127597    0.0599637197
 O    0.0353897426   -0.0558801244   -0.0097864052
 C   -1.2340866573   -0.5581154078   -0.0159895082
 C   -1.5516832710   -2.0656445720   -0.0744657824
 C   -2.7643704557   -1.7883601175    0.7297578112
 C   -2.3909941164   -0.3336219929    1.0745725250
 C   -3.1829411273    0.5338476330    0.0656326322
 C   -2.4375912043   -0.2856958291   -0.9985609496
 N   -2.8327616419   -1.7441186655   -0.7747623609
 H    1.1859093239    1.6075667158    0.0591067841
 H   -0.3575840193    1.8338334857   -0.8047944886
 H   -0.3361602577    1.7438157602    0.9795650843
 H   -0.9678268977   -2.9571664816   -0.2663306831
 H   -3.4349732799   -2.4656088728    1.2443223449
 H   -2.2165873303   -0.0603578018    2.1133309398
 H   -4.2744395514    0.4749247301    0.0793975253
 H   -2.8628573968    1.5797048787    0.0741027325
 H   -2.3808633193   -0.0206997678   -2.0533665911