19

 C   -0.0594406715    1.5270733194    0.0218996054
 C   -0.0074593445    0.0082580957    0.0108393641
 C    1.2325089673   -0.6509098568   -0.6912508486
 O    2.0175325451   -0.3122798198    0.5044288567
 C    0.7743073405   -0.6717479568    1.1894545689
 C    0.6372768216   -2.1660433241    0.8292034677
 C    0.2624367500   -3.2830995039    1.7420647574
 O    0.3620262920   -4.5600945400    1.1400480452
 C    0.9545957359   -2.1445462969   -0.4700930567
 H    0.9176527351    1.9462943557    0.2723384502
 H   -0.3630123680    1.9118421574   -0.9579427291
 H   -0.7911152105    1.8859150814    0.7542465573
 H   -0.9768269353   -0.4350836591   -0.2333918544
 H    1.6597346413   -0.2974275913   -1.6293179795
 H    0.7155348454   -0.3454749186    2.2286276877
 H    0.8635553440   -3.2218842806    2.6664950976
 H   -0.7847803624   -3.1827612484    2.0586524296
 H    1.2727798597   -4.6640917463    0.8438650301
 H    0.9885023744   -2.9406990069   -1.1982657695