13

 C   -0.0026442300    1.4763428767   -0.0159182612
 C   -0.0432144821   -0.0172584504    0.0033444144
 N   -1.1679100874   -0.6312991904   -0.1593308791
 C   -1.1893476364   -2.0075214476   -0.1392259153
 N   -2.2286818849   -2.7031907039   -0.2873917573
 O    0.0681665216   -2.6670075045    0.0655345241
 C    1.1531178858   -1.9117217062    0.2198488092
 N    1.1992910897   -0.6343000204    0.2052142418
 H    0.6770978245    1.8151369402   -0.8052021082
 H   -0.9991878504    1.8855062498   -0.1760702906
 H    0.4106135854    1.8447762475    0.9292074779
 H   -2.0098892188   -3.6971182269   -0.2368024252
 H    2.0477004029   -2.5131142538    0.3679352196