20

 C   -0.0824572176    1.5485998888   -0.0264530207
 C    0.0391556997    0.0277508031   -0.0896679383
 N    0.7545904394   -0.5009929239    1.0539284664
 C    2.2061558344   -0.2594572845    1.1569416222
 C    2.3950668500   -1.7078522210    1.6856209085
 O    2.4760424870   -1.6729724376    3.0992725083
 C    0.9508925990   -1.9571278879    1.1389243227
 C    3.4593324129   -2.5149976286    1.1066881988
 C    4.3288631519   -3.2133476476    0.6565914508
 H    0.9040662786    2.0243848029   -0.0351294469
 H   -0.6408401881    1.9275274051   -0.8877341943
 H   -0.5966853291    1.8553203213    0.8887533445
 H   -0.9605814032   -0.4241535353   -0.0935363091
 H    0.5230763429   -0.2674122326   -1.0438613829
 H    2.7043715587   -0.1059625460    0.1876977269
 H    2.5061465389    0.5230650974    1.8596730156
 H    2.5735583543   -2.5798283350    3.4100672753
 H    0.2704686103   -2.4802172804    1.8199899491
 H    0.9633199353   -2.4652204467    0.1622323881
 H    5.1024841047   -3.8188639812    0.2528388552