23

 C    0.0792604363    1.6239392552    0.0690216761
 C    0.0105550652    0.1183967346   -0.0571019965
 C   -0.0061896519   -0.4288708786   -1.2862648959
 C   -0.1360499620   -1.8145759542   -1.7451401715
 C   -0.9555654162   -2.7598540683   -1.2678081530
 C   -1.8525340677   -2.5843615842   -0.0772430219
 C   -1.1229822761   -2.8801217128    1.2493332997
 C    0.1797733226   -2.0866283493    1.4216189564
 C    0.0368592292   -0.5605069586    1.3015827321
 H    0.9873152752    1.9388163619    0.6001360924
 H    0.0635411835    2.1183317853   -0.9050339291
 H   -0.7664013218    2.0061278862    0.6561889520
 H    0.0970209752    0.2786001234   -2.1105746684
 H    0.4471014865   -2.0509256238   -2.6346869931
 H   -0.9546097327   -3.7351252529   -1.7502262625
 H   -2.2196515277   -1.5512612092   -0.0553029653
 H   -2.7296135261   -3.2358757625   -0.1608343516
 H   -1.8016466733   -2.6589957754    2.0832475885
 H   -0.8952393833   -3.9515640258    1.3128744619
 H    0.5789389454   -2.3066073465    2.4189641313
 H    0.9306710211   -2.4404083336    0.7090688675
 H    0.8779915270   -0.1022777310    1.8424293364
 H   -0.8504144981   -0.2306435200    1.8653638946