17

 O    0.0150944409    1.4061407643    0.0270255306
 C    0.0320772124    0.0034594609    0.0233191035
 C   -1.3658000739   -0.5847261877   -0.2692889670
 O   -1.5849704077    0.0208972342   -1.5878877445
 C   -0.5939168754   -0.9501098826   -2.0216718959
 C   -1.0987722308   -1.9724996406   -0.9772520735
 C    0.1099734636   -2.7661749564   -0.5678240060
 C    1.1934394498   -2.0162539520   -0.8065496383
 C    0.7371663213   -0.6438496950   -1.2430339745
 H   -0.5554921428    1.6531428993   -0.7150868197
 H    0.4822360686   -0.3270138188    0.9600905411
 H   -2.1735942430   -0.4118469648    0.4397782036
 H   -0.5645733620   -1.1215407167   -3.0977739327
 H   -2.0197554037   -2.4984951466   -1.2244198058
 H    0.0848797411   -3.7664250450   -0.1551054661
 H    2.2237877436   -2.2767253963   -0.5969606619
 H    1.4683543480    0.0125467437   -1.7115326227