14

 N    0.0218802441    1.3605088230    0.0829347380
 C   -0.0234010817   -0.0125767235    0.0100544642
 N   -1.0926774605   -0.7100708595    0.0501676099
 C   -0.6916021371   -2.1090078694    0.0411073089
 C    0.8332370648   -2.1349255057   -0.0686432028
 O    1.5863549837   -3.0595009031   -0.1319346127
 N    1.1891929580   -0.7431293923   -0.0576973973
 C    2.4802962069   -0.2135390369    0.0434674248
 O    3.4935233242   -0.8467860027   -0.0538795467
 H    0.6700618394    1.8209360548   -0.5407200370
 H   -0.9072763914    1.7580280505    0.0355525250
 H   -1.0011513435   -2.6316057512    0.9544850558
 H   -1.1396666055   -2.6495029508   -0.8002682188
 H    2.4581409887    0.8730506267    0.2436041887