20

 O    0.3495866121    0.0798529085   -0.9460457402
 C    0.2024873798    1.1613364051   -0.4169618663
 N    1.1112613411    1.7766013773    0.3855175118
 C    2.4179022618    1.2057267255    0.7037608949
 C    3.5476113872    2.1154521282    0.3221210152
 C    4.4604091283    2.6298820897    1.1492204461
 C    5.5024875285    3.4477771917    0.4266720446
 C    4.8799508043    3.6347046942   -0.9823576335
 C    3.8229948592    2.5101392748   -1.1158213238
 H   -0.7143574006    1.7725422032   -0.5377100204
 H    0.8832711954    2.6844456484    0.7593040406
 H    2.4713453390    0.9655436986    1.7725310348
 H    2.4616335807    0.2631891560    0.1481016477
 H    4.4927487979    2.4493848552    2.2193344199
 H    5.7185907358    4.4016560155    0.9211707456
 H    6.4571659183    2.9038948597    0.3839313132
 H    4.3826771281    4.6088041703   -1.0311112237
 H    5.6245061458    3.6139680476   -1.7817507087
 H    4.2089917733    1.6450674331   -1.6739078452
 H    2.9226823441    2.8359604071   -1.6475092724