17

 C   -0.1170951008    1.5512115909   -0.0378163247
 C    0.0248757426    0.0489369775    0.0363589721
 C    1.3497565911   -0.6553026630   -0.2079251829
 C    2.5466738037    0.1066750339   -0.4237670263
 N    3.5062547298    0.7298408213   -0.5953803235
 C    0.7118014873   -0.6499612175    1.1997549842
 C    1.3580042027    0.1205046522    2.3406344951
 C    0.1394219996   -1.9157774895    1.5949314455
 N   -0.3240723790   -2.9252088176    1.9176254271
 H    0.7875858244    2.0735774621    0.2781484587
 H   -0.3274854347    1.8525839527   -1.0684749747
 H   -0.9485798690    1.8893564485    0.5879227808
 H   -0.8213518756   -0.4992977763   -0.3661074924
 H    1.3196552461   -1.5958120134   -0.7465045446
 H    1.8732549838    1.0108148495    1.9790265338
 H    0.6012097734    0.4242259759    3.0690900446
 H    2.0923802546   -0.5070332075    2.8522142170