13

 O   -0.0501118229   -0.0217926673   -0.0029783667
 C    0.0001399156    1.1830875270    0.0062289903
 C    1.2806531671    1.9610418910   -0.0012870686
 N    2.4169636149    1.3147406217   -0.0189644956
 C    3.5855114705    2.0036198366   -0.0260001199
 C    3.6082912819    3.3694646799   -0.0150005210
 N    2.4355764566    4.0477357875    0.0033147607
 C    1.1719725884    3.4298989262    0.0119496341
 O    0.1522666331    4.0933826751    0.0286262772
 H   -0.9070661852    1.8152594271    0.0208318726
 H    4.5038715497    1.4303940174   -0.0406976906
 H    4.5195329508    3.9556376622   -0.0200788959
 H    2.4161373197    5.0597695255    0.0118708434