18

 O   -0.0310958133    1.4565242083   -0.0369598020
 C    0.0254663010    0.0317717524    0.0247587683
 C    0.6923503751   -0.5165490055    1.3201173136
 C   -0.4898818393   -0.9121231647    2.2107187461
 C   -1.4385396599    0.3076525517    2.4657672569
 C   -2.2730150469   -0.1496215562    1.2703480620
 C   -1.5557387575   -1.4870154630    1.2286834699
 C   -1.3897043519   -0.5224732934    0.0879030637
 H    0.8697457192    1.7811265271   -0.1337732041
 H    0.5423075440   -0.3519485938   -0.8670896362
 H    1.3012189279   -1.3974925891    1.0842866213
 H    1.3467354003    0.2331067833    1.7789110045
 H   -0.2249562881   -1.5031060472    3.0874994382
 H   -1.9924024388    0.1912697814    3.4013470084
 H   -0.9931423302    1.3052899932    2.4215675440
 H   -3.3243089359    0.0601093350    1.1103934038
 H   -1.9324458509   -2.4987359107    1.1560431419
 H   -1.9205761850   -0.7093586386   -0.8386151601