23

 C    0.2605183742    1.2164103569    0.4676247401
 O    0.0845939141   -0.1512353814    0.1838696143
 C    0.4790160187   -0.5272120501   -1.1260637185
 C    2.0101601032   -0.7221716649   -1.2306291366
 O    2.2677539456   -2.1236365141   -1.1715583914
 C    1.0624929970   -2.7910600182   -0.8188743402
 C   -0.0690822514   -1.9458216216   -1.4303994373
 C   -1.4372806727   -2.2273249099   -0.8073631641
 C   -0.1140095361   -2.1585554372   -2.9541399897
 H    1.3168623503    1.5231962549    0.4322577625
 H   -0.3033233456    1.8503641414   -0.2349992035
 H   -0.1156671220    1.3879977353    1.4791435012
 H    0.1097046769    0.2177640355   -1.8464589491
 H    2.4186437369   -0.3345001239   -2.1715220033
 H    2.5127409734   -0.2070787541   -0.4011326129
 H    1.1126815802   -3.8076817212   -1.2215294509
 H    0.9494061957   -2.8498409577    0.2747055373
 H   -1.4273072260   -2.0586094939    0.2702574340
 H   -2.2071676447   -1.5806154140   -1.2416723819
 H   -1.7332662136   -3.2650490124   -0.9975516758
 H   -0.4522706981   -3.1740593189   -3.1855493405
 H   -0.8098203409   -1.4594221751   -3.4301536477
 H    0.8720378045   -2.0264175154   -3.4083592259