12

 N   -0.0479914796    1.3409146641   -0.0915646320
 C    0.0416842138    0.0793755971   -0.0119043920
 N    1.2306955789   -0.6494208923    0.0800004906
 C    1.1379756765   -1.9250929901    0.0149383772
 N   -0.0370637201   -2.6845316381   -0.1106840965
 N   -1.1384095064   -2.0660366243   -0.0986992102
 N   -1.1407924365   -0.7148586406   -0.0135688874
 C   -2.4438337406   -0.1025021172    0.0609082615
 O   -3.4589187984   -0.7250493250    0.0060394265
 H    0.8869899241    1.7445975901   -0.0525408862
 H    2.0403255592   -2.5285049353    0.0690546033
 H   -2.3412488010    0.9831493415    0.1741566951