25

 C    1.3698788496    1.1712134488    0.8434738279
 O    1.1101646721   -0.1383914970    0.4015885199
 C    0.2217849265   -0.2283117434   -0.7107107601
 C    0.9393991881    0.1070509728   -2.0210670589
 C   -0.3347808688   -1.6545962786   -0.6690197609
 C   -1.4152442637   -1.9641942245   -1.7052844558
 C   -1.9257306691   -3.4018246745   -1.5649614244
 O   -2.4548294364   -1.0081338001   -1.5147699342
 C   -3.3703846839   -0.9027418830   -2.5784148899
 H    1.9208485670    1.7724950539    0.1044077875
 H    0.4413897784    1.7080259812    1.0955936985
 H    1.9840875171    1.0916712210    1.7445924331
 H   -0.6122029188    0.4738391117   -0.5659127760
 H    1.7443330866   -0.6106430263   -2.2118150888
 H    0.2446527057    0.0861810761   -2.8659090756
 H    1.3773222065    1.1087192074   -1.9869331733
 H    0.4939476025   -2.3612671539   -0.7962111205
 H   -0.7468486899   -1.8226528665    0.3321441083
 H   -1.0013640869   -1.8368864420   -2.7201188532
 H   -2.6821933703   -3.6393638651   -2.3181891420
 H   -1.1024129073   -4.1123440491   -1.6886980458
 H   -2.3668486928   -3.5518194592   -0.5744983349
 H   -4.0309974306   -0.0616388628   -2.3520062473
 H   -2.8623508215   -0.7041540519   -3.5358133785
 H   -3.9885730502   -1.8039577250   -2.7004038251