23

 C    0.1925161305    1.5218996516    0.0684269966
 C    0.0241522683   -0.0075265236    0.0636213611
 C    0.5526287196   -0.5906105883    1.3880541033
 C   -1.4667181699   -0.3667879063   -0.1083651608
 C    0.7906173741   -0.6074996684   -1.0959355257
 C    1.0933757982   -2.0948766588   -1.3942620758
 C    2.3718886241   -1.6321665784   -2.1770225262
 C    1.9855706639   -0.1848463474   -1.8557596514
 O    0.6663898962    0.0183057775   -2.3858951191
 H    1.2360045329    1.8035826489    0.2448688247
 H   -0.1188956803    1.9506079747   -0.8865242303
 H   -0.4123138597    1.9661837126    0.8654134969
 H    0.0253330150   -0.1409390689    2.2357725827
 H    0.4035109318   -1.6732971477    1.4433503204
 H    1.6217855695   -0.3878134537    1.5122549134
 H   -1.8584410511    0.0413270629   -1.0447939568
 H   -1.6162224695   -1.4517038370   -0.1231876259
 H   -2.0592444194    0.0406615687    0.7175640930
 H    1.3383807103   -2.6863437324   -0.5098849459
 H    0.3232914742   -2.6076266826   -1.9750076751
 H    3.2974966061   -1.9507125325   -1.6913489204
 H    2.4155359079   -1.8740823216   -3.2415807008
 H    2.6174560573    0.6920646607   -1.7688535180