19

 O   -0.1094500650    1.4132607211    0.1759811618
 C   -0.0220948951    0.0069250779   -0.0135209206
 C   -1.4254637571   -0.5437414844   -0.0117446374
 C   -2.2170191144   -0.5375326026    1.3414913296
 C   -2.6555399298   -1.9717589419    1.0509704337
 C   -3.0860792246   -2.0661355914   -0.4002503492
 O   -3.4912872167   -0.8927783014   -1.0703416913
 C   -2.3453863310   -0.0316005946   -1.1245066154
 C   -1.6325378753   -2.0869832369   -0.0891384303
 H    0.7822068064    1.7726889243    0.1948831666
 H    0.4689333288   -0.2365906632   -0.9709809287
 H    0.5643874469   -0.4700791845    0.7876700445
 H   -1.5377070533   -0.4819040112    2.1958236734
 H   -2.9997781729    0.2194668958    1.4511664086
 H   -2.9421992699   -2.7202939897    1.7814258583
 H   -3.6100777876   -2.9554892282   -0.7294000670
 H   -2.6752042193    0.9981878139   -0.9659548988
 H   -1.8592079137   -0.1041317657   -2.1107752984
 H   -0.9096247664   -2.8496302872   -0.3496817995