19

 C    0.1673581731    1.4132947029    0.0712239688
 O   -0.2339718456    0.0972569840   -0.2523233591
 C    0.5943367570   -0.5189887209   -1.1927385601
 C    1.8790855252   -1.1903825226   -0.6335826808
 N    1.1891088785   -2.5016214411   -0.6613474556
 C    0.0892265441   -1.9743537010   -1.5140592455
 C   -1.3116835374   -2.3631411300   -1.0515649232
 C    0.2782377720   -2.2827714405   -2.9402626933
 N    0.4585354841   -2.5464109278   -4.0521936111
 H    1.1638456360    1.4382842273    0.5352754761
 H    0.1819727368    2.0584908677   -0.8201241419
 H   -0.5623548112    1.8041091856    0.7831853007
 H    0.7402044762    0.1252588615   -2.0685980302
 H    2.7340924174   -1.0984074559   -1.3146158122
 H    2.1811436889   -0.8767341858    0.3705734586
 H    1.7140212997   -3.2726267899   -1.0590390634
 H   -1.4347530394   -2.0693377410   -0.0095452268
 H   -2.0758815993   -1.8690646401   -1.6578628001
 H   -1.4428493261   -3.4454036424   -1.1393474108