20

 C    0.2179814868    1.6424510979   -0.0196955886
 C    0.0988244000    0.1187691990   -0.0266731125
 C    0.7503208812   -0.6018344776   -1.1884655023
 N    2.2285356340   -0.5417555548   -1.1234492713
 C    1.5294350061   -1.7825064491   -0.7150019257
 C    1.6935263674   -3.0424061151   -1.5231360410
 C    1.4231207166   -1.8569138842    0.7970438981
 C    0.7613077133   -0.5325183219    1.2069381499
 O    0.7489287428   -0.0709583276    2.3172624863
 H    1.2591823523    1.9357756268   -0.1791728637
 H   -0.3947346265    2.0928739421   -0.8063524790
 H   -0.1065316844    2.0367916629    0.9466381635
 H   -0.9637821665   -0.1675061636    0.0164722372
 H    0.2698338699   -0.6094220996   -2.1624651745
 H    2.6168889610   -0.6607409203   -2.0562279603
 H    1.6477017916   -2.8304586585   -2.5969399207
 H    2.6562271371   -3.5238188823   -1.3155202275
 H    0.9054917253   -3.7671371589   -1.2907237050
 H    0.7751723407   -2.6859508972    1.1115585092
 H    2.3838337013   -1.9734125178    1.3054932080