17

 N   -0.0565917032    1.2157520477    0.4020376676
 C   -0.0122452732    0.0176804194    0.0039500683
 O    1.1037569878   -0.5955267544   -0.4858115502
 C    0.8730944076   -1.9622273788   -0.8805337650
 C   -0.6093955926   -2.2642944014   -0.6165155323
 C   -0.9858010547   -2.9745714416    0.7029311551
 N   -0.2270900791   -2.2804502598    1.7684926701
 C   -1.5011103396   -1.7054331801    1.2810092160
 C   -1.1746026104   -0.9397918388   -0.0203442487
 H    0.8642384505    1.6510943929    0.3228204246
 H    1.1365284682   -2.0494064460   -1.9393972220
 H    1.5370175602   -2.5988826801   -0.2900601889
 H   -1.1412072746   -2.6457737201   -1.4877947282
 H   -1.3263666443   -3.9946945153    0.8283178544
 H   -0.4258633984   -2.7542017561    2.6482633694
 H   -2.3233208688   -1.5144587570    1.9579089717
 H   -2.0519095254   -0.5204434206   -0.5107389920