20

 C    0.0043216050    1.4382756370    0.1196567904
 C    1.2832144121    0.6990871649   -0.0276531789
 N   -0.0255776510   -0.0281742975    0.0354811001
 C   -0.3099457747   -0.5775113441   -1.3302941049
 C    0.9000452721   -0.3121682374   -2.2151552364
 C    1.2798027987    1.0801230297   -2.6348759256
 C    1.8960060469    0.5111537883   -1.3851502690
 C    3.0277344960   -0.4762566484   -1.7282872952
 C    2.0143089341   -1.3143160057   -2.5803045338
 H   -0.2823442790    1.8440085062    1.0876631225
 H   -0.3637219930    2.0232190164   -0.7193403768
 H    1.9349913260    0.5766743106    0.8332636437
 H   -0.4639398831   -1.6558057195   -1.2224746114
 H   -1.2448458417   -0.1509752554   -1.7105062691
 H    1.9070940021    1.2150670053   -3.5139595810
 H    0.5319345290    1.8542006590   -2.5176832026
 H    3.8901112845   -0.0521526715   -2.2526136800
 H    3.3892007220   -1.0237921464   -0.8546792336
 H    1.8418845952   -2.3089967716   -2.1625600873
 H    2.2323171790   -1.4210535500   -3.6481673111