21

 O   -0.9142810195    0.5797699594    1.1023943470
 C   -0.2636825692    0.0875413918   -0.0738815103
 C   -1.2518724302   -0.8100067378   -0.8101624283
 C   -1.4585029765   -2.2155277186   -0.1934734234
 C   -1.1483793244   -2.5326651874    1.3188142733
 C   -2.5736596860   -3.0637769885    1.4974053019
 C   -3.5763941740   -2.0070525151    1.1610866531
 O   -3.5041756157   -0.6536619453    1.4857336574
 C   -2.8975958256   -2.7076443512    0.0168729854
 H   -0.2724911928    1.0213489794    1.6656625997
 H    0.0333515582    0.9305557515   -0.7138835399
 H    0.6460818976   -0.4705422825    0.1924617025
 H   -2.2058292439   -0.2743773836   -0.8525055691
 H   -0.9075811277   -0.9137095881   -1.8453050983
 H   -0.9088496198   -2.9431583744   -0.7966941720
 H   -0.3868842913   -3.3089134590    1.4175549123
 H   -0.8700208646   -1.6940583282    1.9615669854
 H   -2.8300040707   -3.9539205281    2.0611974250
 H   -4.6034956862   -2.3382135713    1.2936620024
 H   -2.5907715103   -0.3319887110    1.4825683300
 H   -3.4612964375   -3.2728064020   -0.7185811841