19

 O    0.5617919412    1.1787766165   -0.1848563896
 C    0.2843474584   -0.1702360358    0.0608679636
 C    0.1355691275   -0.6492896565    1.5588599663
 C   -1.3068446165   -1.0282585043    1.2321617969
 O   -1.9454133360    0.1701946713    0.7404379536
 C   -1.1761261272   -0.6250990812   -0.1832033033
 C   -1.8194592098   -1.0697508917   -1.4389826520
 C   -3.3197373621   -1.2008170070   -1.5239729857
 C   -2.6249887962   -0.0863026913   -2.2603650135
 H   -0.1708352137    1.6726149482    0.2058807581
 H    1.0199619159   -0.7593752526   -0.4927456876
 H    0.7741565882   -1.5040932682    1.7952838679
 H    0.2602043222    0.1267371120    2.3181847235
 H   -1.9538559288   -1.7696468803    1.6859174812
 H   -1.2294415696   -1.7922911621   -1.9956272693
 H   -3.7233113997   -2.0287096445   -2.0956601376
 H   -3.8860630482   -0.9333753298   -0.6398469921
 H   -2.7345322371    0.9171367476   -1.8656935178
 H   -2.5462577584   -0.1430807502   -3.3399681325