18

 C    0.1039616908    1.4686915836   -0.5462696350
 C    0.0306585095    0.0151761182   -0.1349387277
 C    1.2166423338   -0.8466288078   -0.2448675995
 O    0.7885542655   -0.3396091379    1.0248754480
 C   -1.3482846826   -0.6573737535   -0.1481703307
 C   -2.3302132134   -0.0418256602    0.8843886635
 O   -3.5302257221   -0.7734811761    0.9709464370
 C   -1.9542431307   -0.6278242234   -1.4815661711
 N   -2.4682464006   -0.5800676538   -2.5163280838
 H    1.1387961398    1.8155662257   -0.5092954415
 H   -0.2758712911    1.6045626070   -1.5635098763
 H   -0.4864732541    2.1002870211    0.1245229755
 H    1.1005740071   -1.9204004869   -0.3837138445
 H    2.1471918150   -0.4273175146   -0.6233131007
 H   -1.2163573643   -1.7067580238    0.1362601888
 H   -1.8521425008   -0.0970719446    1.8656662831
 H   -2.5111839935    1.0152135358    0.6470904320
 H   -4.0190840383   -0.6520840087    0.1490383028