18

 C    0.0004720779    1.4882127147    0.0959347191
 C    1.4570629686    2.0076775501   -0.1667744205
 C    2.0428567220    0.8907220779   -0.9921248579
 N    1.8362391765    0.6036083510   -2.4586721157
 C    2.0711794693   -0.7556602882   -1.8596506799
 C    3.1448829808   -0.2022351712   -0.8597739998
 O    2.5535341598   -0.8125462961    0.3201154479
 C    1.3923339958   -0.4128913714   -0.4904623761
 C    0.0605112944   -0.0846530652    0.1520501306
 H   -0.4277176290    1.9167921914    1.0060211462
 H   -0.6491622072    1.7966587380   -0.7304168543
 H    1.4744968002    2.9920705233   -0.6407773088
 H    2.0079365219    2.0736591657    0.7772979534
 H    0.8455914483    0.6994530387   -2.7006950406
 H    2.0851623622   -1.6785815780   -2.4419694691
 H    4.2303434502   -0.1623645502   -0.9458248885
 H    0.0765758321   -0.4503207177    1.1824352877
 H   -0.7990497640   -0.5424193228   -0.3436033037