14

 C    0.0501243463    1.4943593416   -0.0493755348
 C   -0.0401747403    0.0127092630   -0.0613978456
 C   -1.0959840449   -0.8490463756    0.0870583444
 C   -2.4575939643   -0.5495938774    0.2962398595
 N   -3.5851966618   -0.3363596266    0.4603071574
 C   -0.4956357613   -2.1528173918   -0.0249651300
 N   -1.1392681418   -3.3523666633    0.1224094256
 N    0.7983376287   -2.0669015328   -0.2322130428
 O    1.0781010372   -0.6818326013   -0.2448470743
 H    0.7158646111    1.8317272216    0.7512811369
 H    0.4572954611    1.8626175928   -0.9962571897
 H   -0.9383889155    1.9297056631    0.1051117737
 H   -2.1177895488   -3.3607005182   -0.1217394546
 H   -0.6254188158   -4.1558656051   -0.2077738158