18

 C   -0.1284887370    1.5545984593    0.0312264334
 C    1.3692710325    1.4930181753   -0.3691632897
 N    1.4565953282    0.1858352767    0.3149188191
 C   -0.0054423408    0.0556768983    0.4107727048
 C    2.2597343212   -0.8447913820   -0.1068421501
 C    2.1023886650   -2.2022177099   -0.1402685500
 C    3.3481487111   -2.7201112184   -0.6363971902
 C    4.1501557582   -1.6556407296   -0.8720041370
 O    3.4926597729   -0.4905501089   -0.5478339223
 H   -0.3203775925    2.2018899093    0.8882499115
 H   -0.8318669325    1.7943528835   -0.7658313480
 H    1.5324089628    1.4232999516   -1.4526637969
 H    2.0333430782    2.2592272786    0.0399853279
 H   -0.3691687491   -0.2484725904    1.3973177812
 H   -0.4234183041   -0.6229107966   -0.3471985866
 H    1.2281317312   -2.7577511486    0.1559651961
 H    3.6002272037   -3.7568062423   -0.7982571736
 H    5.1497862710   -1.5308637557   -1.2504457595