16

 N   -0.0348969396    1.4702623684   -0.3156823084
 C   -0.0197682720    0.0904342726    0.1540412893
 C   -1.4235276191   -0.4993968408    0.0677394179
 C   -1.8867910640   -1.1176636246   -1.2338545610
 C   -1.6107262441   -2.0221134371   -0.0530635631
 C   -0.4618272169   -2.8848909324   -0.0514063418
 N    0.4577868227   -3.5865775439   -0.0504506443
 C   -2.4245120131    0.1685481094    0.8662121196
 N   -3.2370416487    0.6733925058    1.5152620195
 H    0.8251790085    1.9404825365   -0.0574038859
 H   -0.1024938318    1.5072561559   -1.3276204709
 H    0.6648018817   -0.5801537607   -0.3878872481
 H    0.2980532356    0.0880976259    1.2016709097
 H   -2.9212185994   -0.9940666745   -1.5285453473
 H   -1.1688690020   -1.1318757249   -2.0458416767
 H   -2.4730044377   -2.4304942857    0.4617900215