21

 O   -0.1348438722    1.5049611060   -0.1018256927
 C    0.0387402751    0.0959399885   -0.0096347898
 C   -1.3539665393   -0.5387156532    0.0010591730
 C   -2.0718173132   -0.2735123683   -1.3531453967
 C   -1.8670272084   -1.5628678716   -2.1122963808
 C   -1.4607103100   -2.5493327649   -1.3161621239
 C   -1.3288924239   -2.0945787433    0.1223036979
 C   -0.1454705061   -2.7100319601    0.8680263559
 O   -0.3882031675   -4.1093101737    0.9464476754
 H    0.7330767817    1.9086131734   -0.1907426035
 H    0.6174614171   -0.2886344159   -0.8642652677
 H    0.5858660770   -0.1631913884    0.9093032254
 H   -1.9006674634   -0.0885990785    0.8351726763
 H   -3.1427274530   -0.0737914790   -1.2080970076
 H   -1.6616672310    0.6082753981   -1.8549575941
 H   -2.0706587404   -1.6567881677   -3.1736857633
 H   -1.2797847235   -3.5773582301   -1.6057334067
 H   -2.2213422964   -2.4229288013    0.6765862069
 H    0.7959811093   -2.5062726423    0.3353054179
 H   -0.0628190248   -2.2683070201    1.8742001541
 H    0.3767409928   -4.5250680174    1.3543913540