17

 C    0.1634824734    1.4560900760    0.0204205039
 C   -0.0559153541   -0.0127033686    0.0174169137
 C   -1.1500858026   -0.8180827281    0.0514810827
 C   -2.5890275565   -0.4092659422    0.1127422633
 C   -0.6607494599   -2.1773498127    0.0105425016
 C    0.6950630377   -2.0858123370   -0.0395237045
 N    1.7264376826   -3.0174147426   -0.0117069294
 O    1.0894855274   -0.7914716993   -0.0362065552
 H    0.7620570717    1.7782327095    0.8814983846
 H    0.6868414179    1.7940095225   -0.8828008176
 H   -0.7954288853    1.9773305266    0.0656885228
 H   -3.1506637284   -0.7895251195   -0.7489473871
 H   -3.0791870345   -0.8032560082    1.0110421824
 H   -2.7016585112    0.6781606539    0.1258918459
 H   -1.2487758760   -3.0817337787    0.0177854531
 H    1.4313668123   -3.9290126969   -0.3334471758
 H    2.5399706357   -2.7063532547   -0.5283053642