17

 O    0.1653733297    1.3131392100   -0.2637486717
 C   -0.0177959788   -0.0306161339    0.1644770237
 C   -1.4499383131   -0.4635579342    0.1209373713
 C   -2.6149679587   -0.0725511853    1.0166851754
 N   -3.3884039734   -1.2696923563    0.4964612609
 C   -3.6133429540   -0.8681187955   -0.9505192158
 C   -2.1172300158   -0.9836291974   -1.1831957635
 C   -2.0276175301   -1.8473738144    0.0397172404
 H   -0.2214494215    1.3879633613   -1.1424725136
 H    0.6001139860   -0.7301051399   -0.4232302167
 H    0.3565685669   -0.0604094502    1.1939400067
 H   -2.3892187465   -0.2199907211    2.0767462510
 H   -3.1160616226    0.8916210054    0.8770894573
 H   -4.1810393015   -1.6519031242   -1.4589185696
 H   -4.1162187501    0.0967293739   -1.0826459623
 H   -1.5553578265   -1.0728217519   -2.1059601547
 H   -1.6554678999   -2.8408738464    0.2463901310