20

 C    0.0195647744    1.4629987267    0.4525176817
 C    0.0594439592   -0.0187253140    0.1440046815
 C   -1.2254649733   -0.6058920381   -0.4074080600
 C    1.3660600438   -0.6145697643   -0.3627295100
 O    2.4986225954    0.1834335283   -0.4935587406
 C    0.8870564447   -0.9469704376    1.0251100517
 O    1.7236186180   -0.4160432621    2.0263474542
 C    1.1473743465   -0.1147881026    3.2150031520
 N    1.8570590030    0.3413139544    4.1504391921
 H    0.9977575386    1.8418843118    0.7504602695
 H   -0.2929895503    2.0198575814   -0.4373750106
 H   -0.6979736644    1.6843697573    1.2510550605
 H   -1.5048637699   -0.1121651975   -1.3449868566
 H   -1.1260778315   -1.6764930962   -0.6151944915
 H   -2.0551780211   -0.4802877346    0.2982955709
 H    1.3071484194   -1.3916215575   -1.1220322380
 H    2.9379257886    0.2076067031    0.3660673007
 H    0.5165673044   -1.9443679745    1.2516817303
 H    0.0694139075   -0.3171929731    3.2336684483
 H    1.2834431970    0.5129113688    4.9734341741