21

 C    0.5051755433    1.6145204590   -0.4327615265
 C    0.0122696518    0.2261024920    0.0166416090
 C    0.2867899095   -0.8206834447   -1.0441837874
 C    1.3033742318   -1.6152680046   -0.7137715013
 C    1.8653377105   -1.2603744423    0.6414608883
 C    0.7635946793   -0.3584176254    1.2446664104
 C    1.1678827600    0.5425166968    2.4339533443
 O    0.4380906250   -0.2738746575    3.3707389285
 C   -0.1163430849   -1.0700633293    2.3065644947
 H    1.5848469731    1.6104905953   -0.6163201771
 H    0.0139093559    1.9127532287   -1.3646746296
 H    0.2868936940    2.3826651829    0.3156576984
 H   -1.0603643283    0.3065530783    0.2362763389
 H   -0.2564574887   -0.8491139534   -1.9828684252
 H    1.7177206035   -2.4010039751   -1.3356626575
 H    2.0759102725   -2.1309012119    1.2735558156
 H    2.8186707990   -0.7204959985    0.5401713373
 H    2.2392619333    0.5800172822    2.6685122428
 H    0.7779786602    1.5685351699    2.4014313328
 H   -1.1970381480   -0.9039318286    2.1938659066
 H    0.0654979172   -2.1418106040    2.4551937870