16

 O    0.0710132447    1.3977616631    0.0128805377
 C    0.0233081442    0.0264229861    0.0336745357
 C    0.0726665717   -0.8198023931    1.3604297786
 C   -1.4309962584   -0.5249902781    1.5901250874
 C   -1.3294648497   -0.8032104696    0.0714685705
 C   -0.3141147157   -1.9557964124    0.3695118625
 N    0.7247975620   -2.0004359538   -0.6652862929
 C    0.9067319668   -0.6762559710   -0.9874295128
 O    1.5596202947   -0.1468385680   -1.8598567196
 H    0.6433798563    1.6266816743   -0.7361763880
 H    0.8879390208   -0.8414678134    2.0851061057
 H   -1.9893431342   -1.2523389979    2.1871712775
 H   -1.6789796511    0.4974324541    1.8756930269
 H   -2.1225677922   -0.7962893188   -0.6784558941
 H   -0.6488636326   -2.9217269561    0.7383707513
 H    0.7989259926   -2.7335977154   -1.3530215665