18

 C   -0.0368229512    1.5117311935    0.0605681185
 C   -0.0184395329    0.0180078071    0.0070783003
 C    0.0116252598   -0.7646025370   -1.0783850723
 C    0.0087177312   -2.2500415323   -0.7472006174
 C    1.2162465383   -2.9598864788   -1.3476175658
 O    1.1604811448   -3.7071469796   -2.2909454614
 C    0.0333542524   -2.2443362223    0.7847730829
 N    1.2505192594   -1.6284146595    1.3595704018
 C   -0.0026462673   -0.8294673022    1.2405781878
 H    0.8535796319    1.8967626650    0.5730827593
 H   -0.0720666353    1.9500497120   -0.9399553254
 H   -0.9053834818    1.8771781920    0.6227724917
 H    0.0648606379   -0.4121173447   -2.1024961677
 H   -0.8849305497   -2.7489434746   -1.1396582323
 H    2.1735217376   -2.7170689229   -0.8426050965
 H   -0.4535478672   -3.0445224751    1.3305237551
 H    1.3447787814   -1.9542795027    2.3204798250
 H   -0.5042355792   -0.5122978181    2.1492012762