15

 N    0.0317340190    1.4211166135    0.0746488404
 C   -0.0431022074    0.0312979105    0.0255706676
 C   -1.2018674970   -0.6758582700    0.0035373594
 N   -2.4589249294   -0.0548262299   -0.0476815081
 C   -1.1159497437   -2.1193688978   -0.0669835409
 N   -2.1825959189   -2.8265402009   -0.1865438288
 N    0.1738304043   -2.7132799612    0.0025478909
 N    1.2302043170   -2.0234705198    0.0755044150
 N    1.1392916419   -0.6755949936    0.0527647864
 H    0.8219103166    1.8053869267   -0.4305487676
 H   -0.8295086641    1.8303878412   -0.2732673414
 H   -2.6574894953    0.5173148102    0.7663483647
 H   -3.1638489526   -0.7842321226   -0.1285674097
 H   -1.9336595670   -3.8149796623   -0.2317596911
 H    2.0233179066   -0.2169083941    0.2075815730