17

 C    0.2441587301    1.6200703414    0.2138888027
 C   -0.1003223703    0.1491881702   -0.0708928611
 C    0.5705860409   -0.3741336927   -1.3006881439
 C   -0.0204975664   -0.8258165184   -2.4703252820
 N    1.0408258625   -1.1861312368   -3.2911447600
 C    2.1824325224   -0.9426397241   -2.6012065101
 N    1.9374945651   -0.4551786615   -1.4044521562
 C   -1.3648158980   -0.9454543261   -2.8640171570
 C   -2.5170534266   -1.0502145152   -3.2036968099
 H    1.3262551720    1.7471159656    0.3032908710
 H   -0.1061101804    2.2684443831   -0.5954942271
 H   -0.2225266324    1.9549236179    1.1453503583
 H    0.2071757430   -0.4627372338    0.7862116085
 H   -1.1829568874    0.0265830147   -0.1779421131
 H    0.9562491637   -1.5608973910   -4.2213089118
 H    3.1598624903   -1.1400397274   -3.0160768293
 H   -3.5343118484   -1.1383809859   -3.4944771992