22

 C   -0.2551351782    1.6220026793   -0.0531688542
 C    0.0251691692    0.1284398990   -0.0213753478
 C    1.1179203085   -0.5625597306   -0.8828514828
 C    2.4072583177    0.1915702114   -0.5056466951
 C    2.3828991543   -0.2686379777    0.9710647187
 C    3.1989106925    0.4731954322    2.0031343950
 C    2.4772326202   -1.7914365317    0.7357394118
 N    1.0981786352   -1.7231772445    0.1486121188
 C    0.8178837792   -0.5549964821    1.0943875063
 H    0.6288349056    2.2281542408    0.1623625726
 H   -0.6405793024    1.9290122789   -1.0319967495
 H   -1.0149746559    1.8802799866    0.6925339627
 H   -0.9064105469   -0.4339871179   -0.1447506827
 H    0.9482484120   -0.8366582815   -1.9239457259
 H    3.2989149833   -0.1613876699   -1.0325085151
 H    2.3344585397    1.2715069211   -0.6516109611
 H    2.9082367144    1.5279645141    2.0638492663
 H    3.0736915814    0.0356265339    2.9997680616
 H    4.2673751681    0.4400421999    1.7591131562
 H    3.2702898910   -2.1769867731    0.0850095394
 H    2.4291360290   -2.3886788407    1.6520960288
 H    0.4183967720   -0.7817423576    2.0856950361