21

 C    0.1457615940    1.5909289808    0.0913080433
 C    0.0384548581    0.0826734493   -0.0476474074
 C    0.6778034354   -0.6234831110   -1.2713722710
 C    1.1913517207   -1.6724906504   -0.2571322794
 C    2.6480699609   -2.1413601285   -0.3917501766
 C    3.0539321547   -3.0474175908    0.6809073349
 N    3.3509945790   -3.7653143004    1.5368581266
 N    0.9301149626   -0.7131616396    0.8267381124
 C    0.4183995580   -1.1980623251    2.0932673627
 H    1.1838103636    1.9152905354   -0.0286882405
 H   -0.4693567847    2.0938870346   -0.6628840999
 H   -0.2009900757    1.9204381330    1.0767331119
 H   -1.0152442151   -0.2297492922    0.0617620444
 H    0.0100918372   -0.9766074853   -2.0572876374
 H    1.4867071463   -0.0363337971   -1.7152233761
 H    0.5288445820   -2.5531993723   -0.2179338103
 H    2.7836515048   -2.6541569833   -1.3515310269
 H    3.3065505244   -1.2665594339   -0.3842456071
 H    1.1642372886   -1.8325980042    2.5799079302
 H    0.2139391140   -0.3508498166    2.7559057826
 H   -0.5145980190   -1.7822899422    1.9844689535