16

 O    0.7822530191   -0.1464814626    0.5690494668
 C   -0.1547641962    0.3398184496   -0.4159755197
 C   -1.5167182014   -0.2377060085   -0.2005731909
 C   -1.7326762591   -1.4937259758    0.3055913477
 O   -0.8762545280   -2.4466835608    0.7420744759
 N   -3.0847784345   -1.7331191411    0.3480937645
 C   -3.7416148678   -0.6226223778   -0.1333035320
 O   -5.1007201593   -0.6776886809   -0.1614769725
 C   -2.8197015668    0.3248196043   -0.4801450572
 H    0.4676384662    0.1700098032    1.4242015075
 H   -0.1842865354    1.4385854743   -0.4112270680
 H    0.2889481213    0.0375921850   -1.3728671754
 H   -0.0064499338   -2.0118263613    0.7557988648
 H   -3.5243134322   -2.5595740040    0.7146009354
 H   -5.4243770133    0.1440759751   -0.5418734457
 H   -3.0272233988    1.2997783314   -0.8944593311