17

 C    0.2156261758    1.3990840311   -0.0612418261
 N   -0.0437154816   -0.0247591131   -0.0519832027
 C    0.6454201476   -0.7512215180   -0.8219137266
 N    0.5058424594   -2.1407190109   -0.8950339196
 C    1.2653841242   -2.8863088152   -1.9050710078
 C    2.7102698939   -2.7275709784   -1.7728854504
 C    3.8989722595   -2.5838565029   -1.6768944745
 C   -0.3341805322   -2.8428365668   -0.0440807270
 O   -0.4949744456   -4.0409553916   -0.0975587775
 H    0.9980557521    1.7021427312   -0.7753805918
 H   -0.7067411274    1.9380224633   -0.3055577060
 H    0.5175051541    1.7239218215    0.9409952713
 H    1.4208716193   -0.3722205789   -1.4999465198
 H    0.9755714613   -3.9325241425   -1.7737588659
 H    0.9459073629   -2.5796736697   -2.9088944214
 H    4.9513977519   -2.4717254386   -1.5864880253
 H   -0.8286407252   -2.1771850603    0.6755588811