19

 C    0.2923858599    1.5595191487   -0.2617623590
 C   -0.0949897336    0.1165728208    0.1053404231
 C    0.5409288013   -0.3670949785    1.3624358646
 C    0.0475925959   -0.8785322336    2.5277157430
 N   -1.2757132854   -1.1798900109    2.9161849177
 C    1.1822336195   -1.1776459404    3.3626511566
 N    1.0554814156   -1.6676757416    4.6720493782
 C    2.2804230270   -0.8230151376    2.6432542775
 O    1.9073508382   -0.3331374908    1.4207574570
 H    1.3760361035    1.6482063367   -0.3738545627
 H   -0.1757155414    1.8606948666   -1.2040514514
 H   -0.0217371921    2.2597585126    0.5183223640
 H   -1.1830441905    0.0437630735    0.2217094078
 H    0.1640261945   -0.5480213844   -0.7309290797
 H   -1.9515713112   -0.9259134425    2.2060498325
 H   -1.5249796631   -0.7031658341    3.7777077573
 H    0.3345776465   -2.3801198076    4.7218253993
 H    1.9208468343   -2.0455182124    5.0363268706
 H    3.3382997311   -0.8483378945    2.8431858336