15

 C    0.0602171565    0.6325018088    0.6378790500
 O   -0.1317450966    0.6721888813   -0.7782762099
 C    0.4430974447   -0.3223997301   -1.4773969420
 C    0.7564892938   -1.6436142860   -1.2085107082
 O    0.5644210825   -2.3277422795   -0.0363115523
 C    1.2932308130   -2.1153002863   -2.4249467291
 O    1.7453670407   -3.3810409811   -2.5946922622
 N    1.3156920574   -1.2013092560   -3.3778445044
 N    0.8012126342   -0.0950300614   -2.7677378730
 H   -0.3606238317   -0.2790037023    1.0699664547
 H    1.1263611271    0.6888358741    0.8858938751
 H   -0.4568478582    1.5074946189    1.0338445502
 H    1.0133764749   -3.1755370730   -0.1223603771
 H    2.0689892011   -3.4512323106   -3.5011682822
 H    0.6421888606    0.7457062431   -3.2929733596