18

 O    0.3169135949    0.0257650727   -0.0712027713
 C    0.1295692020    1.2109504044   -0.0554781066
 C   -1.0970425266    2.1529321456   -0.0978410974
 C   -0.0669153736    3.3151033995    0.0559698534
 N    0.9823141192    2.2880869954    0.0419395947
 C   -0.0322220927    4.3181996923   -1.0849657627
 C    1.3155381941    5.0014571672   -1.4186082892
 C    1.1800123641    4.2791260599   -2.7736540131
 O   -0.0743700055    3.6824959997   -2.3797952796
 H   -1.6297856180    2.1435281479   -1.0490683801
 H   -1.7907679707    2.0211843251    0.7334518036
 H   -0.1375086706    3.8521062238    1.0107541475
 H    1.9745430500    2.3284872744    0.2221604261
 H   -0.8743754768    5.0139575072   -0.9597328305
 H    1.2889336998    6.0908179861   -1.4585334905
 H    2.1612672593    4.6877418697   -0.8034751533
 H    1.0632662355    4.9298758561   -3.6481018726
 H    1.9396904556    3.5197950930   -2.9907944584