16

 O    0.1095893323    1.4021831968   -0.2179821102
 C    0.0425801889    0.0232981499    0.0260437952
 C    0.2034498376   -0.9113517040   -1.1996213335
 O   -1.1551728250   -1.3826218874   -1.0725220121
 C   -1.3830469951   -0.5522276352    0.0894023680
 C   -1.4487718907   -1.3953138058    1.3703066090
 O   -2.3979738982   -2.0061949543    1.8024138196
 N   -0.1923249406   -1.3541298328    1.9230798168
 C    0.7462025752   -0.4173016084    1.3328343033
 H    1.0289340586    1.6458659735   -0.3752602632
 H    0.3635956042   -0.3735825641   -2.1412654607
 H    0.9330531122   -1.7246999317   -1.1024814236
 H   -2.2331853829    0.1234295889   -0.0256192318
 H   -0.0167155332   -1.8250685563    2.7974079994
 H    1.7206482809   -0.8853270631    1.1454689881
 H    0.9017010659    0.4642188140    1.9685973456