17

 C    0.1456374592    1.4015787771   -0.0961343987
 C   -0.1072588553   -0.0396827539    0.3292762664
 N   -1.3563862477   -0.5400478753   -0.2675219261
 C   -1.6728021363   -1.8712299961   -0.0742906261
 C   -2.7133397363   -2.5699397142    0.4364941616
 N   -2.5083472847   -3.9432630549    0.2212656457
 C   -1.3661004764   -3.9791716625   -0.3699160438
 O   -0.6610629041   -5.0379759621   -0.7720479183
 O   -0.7785325912   -2.7916463679   -0.6072344840
 H    1.0858089116    1.7663059096    0.3271029136
 H    0.1975375128    1.4798231185   -1.1855608005
 H   -0.6538866182    2.0648235700    0.2543104473
 H    0.7015089599   -0.6850247235   -0.0250491603
 H   -0.1236666982   -0.1179000789    1.4284709815
 H   -2.1471700942    0.0492325022   -0.0395025648
 H   -3.5948519135   -2.1991484641    0.9334465134
 H   -1.1745645172   -5.8167731339   -0.5225625967