15

 O   -0.1578877978    1.4551024512   -0.5084862630
 C   -0.2995103208    0.0849327229   -0.7327816185
 C   -1.1260964192   -0.5588730880    0.3702187801
 O   -1.4583571083    0.0850761728    1.3384183565
 C   -1.4891571500   -2.0213401267    0.2242433174
 C   -2.2552160124   -2.4199088754   -0.9902045451
 O   -0.8688150448   -2.6842361105   -0.8949347369
 C   -1.6305054553   -2.7788550011    1.4386121105
 C   -1.7361440061   -3.4029718609    2.4587633462
 H   -0.5282426515    1.6148741540    0.3739077000
 H   -0.7584961667   -0.1051535199   -1.7132656635
 H    0.6721727962   -0.4376610572   -0.7529996269
 H   -2.9119322647   -3.2832865865   -0.9085900383
 H   -2.5494662366   -1.6588242236   -1.7110533198
 H   -1.8290156018   -3.9529262112    3.3630571614