18

 C    0.1445655363    1.5357294938    0.2108945612
 C   -0.0560615061    0.0387642798   -0.0407617854
 C    0.6982508745   -0.4597237656   -1.2813063277
 N    2.1774928660   -0.3665572638   -1.2332803225
 C    2.3635158507   -1.8140558973   -1.5397821791
 C    0.8555038470   -2.0106559575   -1.3818066052
 O    0.1029832240   -2.9304663915   -1.2980497644
 C    0.1023885150    0.0955520920   -2.5620295025
 O    0.7651302550    0.5647464360   -3.4533448610
 H    1.2095250564    1.7633543345    0.3120009516
 H   -0.2541709967    2.1436565699   -0.6087940145
 H   -0.3597986750    1.8445582988    1.1308409721
 H    0.2949496767   -0.5339130464    0.8236220094
 H   -1.1192373080   -0.2012106906   -0.1650251205
 H    2.5114864911    0.2267561612   -1.9888511580
 H    2.7048338104   -2.0387368540   -2.5589446524
 H    2.9926953459   -2.3576747827   -0.8274027199
 H   -1.0041573531    0.0304214535   -2.6286418911