16

 C    0.0454765747   -1.2207462149   -0.0099968764
 C    0.0182381990   -0.0193024498   -0.0240260783
 C   -0.0000688035    1.4389146563    0.0077745418
 C   -0.1777301985    2.1259901072    1.4241247381
 N    1.1279601458    2.8498668002    1.3211944418
 C    2.1601608381    1.8015377263    1.2083572493
 C    1.3814121597    2.1464687868    0.0080877345
 C   -0.9104061588    1.9829679213   -0.9923558344
 C   -1.6505700377    2.4544336585   -1.8126802704
 H    0.0640220940   -2.2826500531   -0.0154505720
 H   -1.0100571383    2.8289013495    1.4346880367
 H   -0.2480264217    1.4386360914    2.2716023284
 H    3.1695840343    2.1946192085    1.2750630427
 H    2.0046741567    0.8426814343    1.6972981729
 H    1.7865770135    2.6543849108   -0.8598746541
 H   -2.3087105074    2.8615030766   -2.5400341905