16

 C    0.0372455995    1.5709956183    0.1060243921
 C    0.0868017123    0.0534985716    0.0313154876
 O   -1.2096187266   -0.5109747379    0.0654688807
 C    0.8267150840   -0.6629917388   -1.0942987526
 C    2.2954602917   -0.7386460020   -0.7834154249
 N    1.3027314465   -1.7620718931   -0.2239101702
 C    1.0871957342   -0.7276430431    0.9406486528
 C    2.4645480569   -0.1710772700    0.5886955347
 O    3.3686413540    0.3173788349    1.2037818061
 H    1.0315013280    2.0171886629    0.0218919119
 H   -0.5949853772    1.9623985771   -0.6963019051
 H   -0.3898656833    1.8944318300    1.0632136870
 H   -1.6725850485   -0.1513590003    0.8300584743
 H    0.4585050842   -0.8551541267   -2.0968803213
 H    3.0374429121   -0.9993767263   -1.5274921230
 H    0.8225948420   -1.0630217366    1.9404869900