19

 C   -0.0879553487    1.5111453704   -0.0879387162
 C   -0.0084486041    0.0103215739    0.0822106638
 C    1.2946331734   -0.7471789059   -0.1382881792
 C    0.7040066896   -0.6128328043    1.2373174509
 C    1.3679770097    0.1256365621    2.3915435824
 C    1.6561277183   -1.0177443893    3.3719213553
 C    0.6225608037   -2.0790952772    3.0070356260
 O    0.2807520350   -3.0371608623    3.6356365000
 O    0.1006624027   -1.7860336508    1.7823093686
 H    0.8294281255    2.0046322123    0.2481591101
 H   -0.2356676882    1.7747086370   -1.1404092659
 H   -0.9222233500    1.9337579843    0.4823921977
 H   -0.8974955812   -0.5334174623   -0.2256298220
 H    1.2396108141   -1.7203559924   -0.6125689274
 H    2.1890290246   -0.1740937286   -0.3646816073
 H    2.2611657105    0.6695941752    2.0806015469
 H    0.6714725704    0.8451629002    2.8357348331
 H    2.6490487730   -1.4541622847    3.2156267082
 H    1.5739257320   -0.7551014076    4.4270499051