18

 C   -0.0168578122    1.5614427187    0.1022634621
 C   -0.0563143975    0.0681529310   -0.0149925657
 C   -0.7997872722   -0.8084500199    0.9041053369
 N    0.6989243843   -0.8352456117    0.9895177344
 C    1.0977647389   -1.6487668878   -0.1402511435
 O    1.7040014456   -2.6792122787   -0.1664813479
 C    0.5037414878   -0.7269503116   -1.2078647124
 C   -0.3618445737   -1.3936992993   -2.2780308892
 O    0.4217284086   -2.2800291171   -3.0519182102
 H    0.9524337402    1.9562649115   -0.2184029525
 H   -0.7914020083    2.0173603601   -0.5247066699
 H   -0.1894974650    1.8756233559    1.1352881842
 H   -1.2454369714   -0.3575279685    1.7851805404
 H   -1.3132613646   -1.6988465722    0.5518082360
 H    1.3150541749   -0.1763387561   -1.6974559480
 H   -1.2171305094   -1.9086794145   -1.8129708020
 H   -0.7697360167   -0.6475896348   -2.9681960343
 H    0.8833079307   -2.8681659551   -2.4400885282