17

 C    0.0647680951    1.4401019327    0.0713291729
 O   -0.0144692126    0.0276276905    0.0401405599
 C    0.5589577831   -0.5623668156   -1.0420630662
 C    0.6311135219   -1.9335375305   -1.2169713171
 C    0.1451836717   -3.0759470488   -0.3919884487
 O    0.9365327115   -4.2131899641   -0.7245148218
 N    1.2512040335   -2.1075512723   -2.4125054489
 N    1.6059192088   -0.9640668566   -3.0122054449
 C    1.1755013088   -0.0065914931   -2.1860462870
 H    1.1079241154    1.7836670737    0.0647750419
 H   -0.4614859764    1.8900828778   -0.7813451469
 H   -0.4144638571    1.7596744220    0.9982808706
 H    0.2260044749   -2.8123280102    0.6728639647
 H   -0.9201977367   -3.2745447642   -0.5943320614
 H    0.5196090879   -4.9900461948   -0.3412944025
 H    1.5257310262   -2.9946052923   -2.7998613825
 H    1.3279763140    1.0306379057   -2.4399679120