21

 C   -0.0883351699    1.5625822305    0.0422602970
 C    0.0338638406    0.0382389395    0.0098461429
 C    0.8760892252   -0.5065536726   -1.1918170447
 C    1.9788252858   -1.3235305151   -0.4912854893
 C    2.2796488759   -0.4815727008    0.7518605383
 C    0.8040424152   -0.5550427311    1.2215512234
 O    0.4246186081    0.0625481475    2.4223632352
 C    0.6095975243   -2.0873474411    1.1838041135
 O    1.3822569566   -2.5164836419    0.0569526582
 H    0.8922913532    2.0500420565    0.0636463645
 H   -0.6134969083    1.9186308643   -0.8504260944
 H   -0.6432388921    1.8917946368    0.9241169605
 H   -0.9767058556   -0.3839590312   -0.0056529187
 H    0.2991580103   -1.1362411968   -1.8726781146
 H    1.3073159579    0.3152634182   -1.7743144916
 H    2.8136512762   -1.6278544550   -1.1228524683
 H    2.9796773882   -0.9677309000    1.4377236480
 H    2.6174173000    0.5338272577    0.5354031911
 H    0.9247909862   -0.3375241528    3.1417546924
 H    0.9917994432   -2.5591569632    2.1028239028
 H   -0.4417506509   -2.3749723695    1.0620543137