16

 C   -1.2024171659    0.6702105773   -0.1913220906
 C    0.2813928412    0.4221440637   -0.0582529323
 O    0.9708050451    0.9009575501    0.8114058885
 C    0.9095995501   -0.4798896050   -1.1212589433
 C    2.1033798325   -1.3429326593   -0.6823066015
 C    1.1847583685   -2.5391686943   -1.0484026239
 O    0.1002242339   -1.6550793736   -1.4068849673
 C    1.6243406922   -3.3658895724   -2.1753103252
 N    1.9854153202   -4.0184078574   -3.0579001593
 H   -1.4173844541    1.1466193035   -1.1551349999
 H   -1.7376088055   -0.2840886524   -0.1895110105
 H   -1.5483533812    1.3080782850    0.6222600811
 H    1.0709019063    0.1135587816   -2.0324660100
 H    3.0075506363   -1.2513208883   -1.2811586487
 H    2.3438419002   -1.2560241118    0.3763041733
 H    0.9086914601   -3.1948535468   -0.2151684403