18

 C   -0.1519781302    1.4599931992   -0.1169441034
 N    1.1876530645    0.8544178878   -0.0143587162
 C    0.0094361914   -0.0019757126    0.0110130691
 C   -0.3498933910   -1.0126494546    1.1309086405
 N   -0.4371116867   -2.0487054281    0.0573688681
 C   -1.5014016885   -2.9652904270   -0.3585364431
 C   -1.4590392523   -2.7043226292   -1.9057735242
 N   -0.9489400523   -1.3089452678   -2.0715870950
 C   -0.4075005487   -1.0814757860   -0.9451687956
 H   -0.4533599757    2.0437869018    0.7483948520
 H   -0.4914048078    1.8416750862   -1.0759680240
 H    1.6299589542    0.8085817873   -0.9293886572
 H    0.4180201180   -1.2112491492    1.8811881288
 H   -1.3124592052   -0.7976574719    1.6117293377
 H   -1.2954654383   -4.0040924207   -0.0908184193
 H   -2.4723906271   -2.6735552315    0.0718924810
 H   -0.7773760547   -3.4105316211   -2.3971880014
 H   -2.4394201899   -2.8038752827   -2.3774079379