18

 C   -0.0401751089    1.5348925659   -0.0008500846
 C    0.0649320137    0.0139231138    0.0644394933
 C    0.8285336093   -0.4991820606    1.2728978645
 O    1.3094711328    0.2688198674    2.0977514061
 C    0.9370927878   -1.9636063775    1.4294194176
 C    2.2056598586   -2.5252386038    2.0896089135
 C    0.9566335337   -2.4965047925    2.8873104360
 O    0.7727096396   -1.6439796356    3.9536553308
 H    0.9512490621    1.9937940949   -0.0294840118
 H   -0.5920026516    1.8447475941   -0.8925569631
 H   -0.5543842079    1.9287445157    0.8793572655
 H   -0.9289402150   -0.4552677390    0.0791725050
 H    0.5542667421   -0.3919086344   -0.8323145228
 H    0.4503475324   -2.5722758039    0.6756639704
 H    2.5760154662   -3.4695584020    1.7063263834
 H    2.9632325504   -1.7876170175    2.3335766305
 H    0.4240885071   -3.4297089249    3.0406152924
 H    1.1056357376   -0.7715902001    3.6774821032