19

 C   -0.2014786020    1.5149243887    0.0484940979
 C   -0.0550326725    0.0329201883    0.0281318491
 C   -0.0500973694   -0.8613390122   -0.9628093679
 C    0.1453768202   -2.2023896626   -0.2351853295
 C   -0.9356000855   -2.0585958736    0.9141853810
 C    0.1076246997   -0.8627035872    1.2638357672
 C    1.1939512016   -1.9260656568    0.7952771073
 C    2.1440660987   -2.3492775665   -0.3676357775
 O    1.0150946191   -3.1195235159   -0.9610862554
 H    0.6630398099    1.9940259459    0.5256534407
 H   -0.2969750767    1.9184834302   -0.9633767730
 H   -1.0842577343    1.8251476508    0.6225270177
 H   -0.1439631400   -0.7414194123   -2.0330345816
 H   -1.9494130044   -1.7528611581    0.6428071193
 H   -0.9381881966   -2.8629836928    1.6537368410
 H    0.1182804205   -0.4089451854    2.2554878664
 H    1.2266730032   -2.7338212789    1.5309672720
 H    2.4618806315   -1.5562306121   -1.0499959207
 H    2.9755535671   -3.0079666696   -0.1072491240