18

 C   -0.1325563404    1.5258067711    0.0353016375
 C    1.3991266806    1.5113380862   -0.2265317527
 C    1.4507823320    0.1429681686    0.5027334956
 C   -0.0728503159   -0.0114652253    0.2545045665
 N    2.3606044701   -0.8821414738    0.0416323248
 C    2.5124302230   -1.4192386332   -1.1936607239
 C    3.5173838708   -2.3430052264   -1.0422599805
 N    3.9287698157   -2.3301560725    0.2551946534
 N    3.2298258601   -1.4479598914    0.9091769177
 H   -0.3824520712    2.0583187745    0.9563752791
 H   -0.7751915094    1.8939867598   -0.7656267814
 H    1.6226380935    1.4010593014   -1.2914601277
 H    2.0109503932    2.3185609692    0.1803461228
 H    1.6725658032    0.2637182327    1.5636395074
 H   -0.6681254742   -0.4530252383    1.0558526773
 H   -0.2695842719   -0.5564838504   -0.6730953643
 H    1.9206317419   -1.1146720607   -2.0398314947
 H    3.9591610986   -3.0011033515   -1.7728259571