12

 N   -0.0694558047    1.3343456537   -0.0205684803
 C    0.0581360240   -0.0257003706   -0.0196451261
 O    1.1295178358   -0.5983327731   -0.0396039727
 C   -1.2145440889   -0.7337599329   -0.0066690469
 C   -2.2368736961   -1.3713759954    0.0054575016
 C   -3.4893516363   -2.1152908783    0.0187356144
 O   -3.2210492609   -3.5075044011    0.0420455856
 H    0.7695385115    1.8883703077    0.0340262373
 H   -0.9646355035    1.7794233367    0.0803769272
 H   -4.0748936404   -1.7997775247    0.8982529808
 H   -4.0749776025   -1.8291460194   -0.8706795362
 H   -4.0679099881   -3.9653543426    0.0457756154