16

 C   -0.0336901598    1.5867680258    0.0048530163
 C    1.5109044337    1.6900259104    0.0464168282
 C    1.7355316129    1.0672812913    1.4463839556
 C    1.2565944337   -0.3118327220    0.9617841478
 O    2.3129334701   -0.5736604629    0.0232922433
 C    1.9053725822    0.4269797413   -0.8928717040
 O    0.6583233679   -0.0878361252   -1.3248535697
 C    0.0231680147    0.0503280334   -0.0431995197
 H   -0.5059483469    2.0284050260    0.8847953198
 H   -0.5065248631    1.9699679905   -0.8999852060
 H    1.9845202232    2.6395453973   -0.1926770057
 H    2.7741630775    1.0066852047    1.7730624730
 H    1.1318161895    1.5475139950    2.2192194611
 H    1.1312273049   -1.1383465113    1.6571434855
 H    2.6088800557    0.5489452292   -1.7123552639
 H   -0.8837443163   -0.5467028836    0.0153783584