18

 C    0.3018797106    1.1561987510    0.4469309924
 N   -0.3920175915    0.1919998608   -0.4012188771
 C    0.4608016761   -0.4746026714   -1.3790823755
 C    1.3630927130   -1.5858252952   -0.7775076520
 O    0.6140880635   -2.4819916677    0.0122582484
 C    0.2734591280   -3.7088544798   -0.6179068146
 C   -0.3767194572   -1.0156107009   -2.4668324514
 N   -1.0131512730   -1.4591067820   -3.3234339750
 H    1.1452170866    0.7500718874    1.0295048582
 H    0.6829299184    1.9761287056   -0.1718233055
 H   -0.4168451344    1.5815236411    1.1522710822
 H   -0.8282576723   -0.5280419229    0.1669292946
 H    1.1172083757    0.2803525189   -1.8321498734
 H    1.9165499984   -2.1044798134   -1.5719515214
 H    2.0923034061   -1.1037174457   -0.1165310446
 H   -0.3700383987   -3.5640953062   -1.4930171344
 H    1.1750211884   -4.2574347924   -0.9258154613
 H   -0.2630941077   -4.3023705672    0.1257755003