20

 C    0.1421645406    1.9467594013    0.6439011016
 C   -0.0433968650    0.4567709384    0.5254806547
 O    1.1230159071   -0.3213765476    0.1821249577
 C    0.5560464267   -0.4951796964    1.4655535769
 C    1.3206221426   -0.2760060262    2.7503631511
 C    0.3890301015   -0.4060610337    3.8907565451
 N    0.9127549166   -1.6410708269    3.2798420719
 C    0.1403603344   -1.8779938339    1.9922731994
 C   -1.3136615932   -2.2948279109    2.1147069528
 H    1.0366135957    2.1845126842    1.2252637510
 H    0.2434295575    2.4038718084   -0.3458126802
 H   -0.7246382598    2.4007783615    1.1365262768
 H   -0.9414320823    0.1374842242   -0.0070972281
 H    2.3369306690    0.0936420427    2.8297751173
 H    0.7802476168   -0.2367689901    4.8893836407
 H   -0.6559314237   -0.1332291263    3.7659341107
 H    0.6993564863   -2.6362100568    1.4345595182
 H   -1.9223067754   -1.5503826168    2.6357734843
 H   -1.7480868374   -2.4446508262    1.1207022267
 H   -1.3903034779   -3.2403719989    2.6609903715