20

 C    0.0049484231    1.7565261129   -0.1085880754
 C    0.0279242565    0.2448356531    0.0594721423
 C    1.0690081910   -0.6686330529   -0.6449844729
 C    2.1785038775   -0.2094719800    0.3252836592
 C    0.8863833640   -0.5087574129    1.1362704307
 O    0.7219251845   -1.7421657372    0.3074499535
 C    0.7139226738   -0.6368034038    2.6037609109
 C    0.1169844602    0.4829444596    3.3801242047
 N   -0.6308945589   -0.7653042316    3.1878655214
 H    0.9825487342    2.2217206342    0.0391248889
 H   -0.3387368273    2.0177474217   -1.1156263641
 H   -0.6933353501    2.2182193508    0.5972889265
 H   -0.9741479749   -0.1878596745   -0.0198741452
 H    1.1405560548   -0.9385826268   -1.6987717066
 H    2.9803548006   -0.9338127687    0.4727779495
 H    2.5451034376    0.8174336356    0.2750053003
 H    1.4600927003   -1.2663381934    3.0839144298
 H    0.4526793647    0.6656613803    4.3967333386
 H   -0.1913257263    1.3724890718    2.8383726625
 H   -1.3304618151   -0.6486751583    2.4581372754