14

 O   -0.6273477601    0.6514152891   -0.5508893913
 C    0.1929545146    0.9497062139    0.2802854331
 C    1.3144665016    1.8683215360    0.0407042028
 C    1.7675526881    3.0494966995    0.9063845682
 N    2.6240573468    1.8544489827    0.7417698284
 C    3.3088626735    2.0272868211   -0.6025256187
 C    1.9971641641    2.5709727160   -1.1918940542
 C    1.8133672630    3.8627056426   -0.3682113662
 O    1.5860828199    5.0055891280   -0.6299753968
 H    0.1736317592    0.5476956260    1.3162419417
 H    1.4554470759    3.3172241684    1.9069911665
 H    4.1813477051    2.6882123264   -0.5880258166
 H    3.5845165564    1.0356357666   -0.9639437763
 H    1.7163086419    2.5214488137   -2.2384936907