20

 C    0.0851128200    1.5353836005    0.2195346873
 C   -0.0512319680    0.0115150007    0.1954431136
 C   -1.3910981630   -0.4554549826   -0.3954004373
 C   -1.4935225589   -1.9596547039   -0.4193171948
 O   -1.7419121551   -2.6381731295    0.8177155297
 C   -2.7432260711   -2.7323938437   -0.2024721433
 C   -4.0958296924   -2.1198322576    0.0895881274
 C   -2.8153552590   -4.0421487311   -0.8397821360
 N   -2.8979248820   -5.0707644019   -1.3604065286
 H    1.0457732201    1.8391212202    0.6457589781
 H    0.0199082467    1.9566676267   -0.7898157672
 H   -0.7064001454    1.9949256273    0.8217263305
 H    0.7716195369   -0.4244311468   -0.3854798005
 H    0.0431626291   -0.3894655803    1.2112985599
 H   -2.2146410488   -0.0249065585    0.1819147028
 H   -1.4924100652   -0.0863297348   -1.4247873824
 H   -0.7338658390   -2.4535296336   -1.0289600791
 H   -3.9839490904   -1.1517826700    0.5777420186
 H   -4.6654671654   -1.9922988420   -0.8356292562
 H   -4.6658857692   -2.7769471789    0.7524171574