17

 O   -0.0186648198    1.4607235630   -0.1157007768
 C    0.0001735520    0.0590817634    0.0249214679
 C    0.2348015357   -0.5778125519    1.4161875344
 C   -0.4785721742    0.1548186459    2.5635857429
 C   -1.7741294723   -0.5397401335    2.0998150614
 C   -2.4381278919    0.1056389842    0.8683566609
 C   -1.3808060878   -0.6127866376    0.0132731036
 N   -0.9740351717   -1.5040618554    1.2011434921
 H    0.8887703022    1.7782866713   -0.1598016942
 H    0.6568865931   -0.4090425009   -0.7211907040
 H    1.2104144862   -1.0292782050    1.6117252809
 H   -0.1485357082   -0.2053274907    3.5409359605
 H   -0.4531667102    1.2477134587    2.5518537885
 H   -2.4242056132   -0.9684933865    2.8653167556
 H   -3.4361993050   -0.3009263828    0.6877361142
 H   -2.4765228487    1.1959237324    0.8141879078
 H   -1.7022635964   -1.0879276947   -0.9154051558