19

 C   -0.0025683468   -1.1392535633   -0.0432178479
 C   -0.0012094695    0.0635542269   -0.0017780388
 C   -0.0141940835    1.4960027021    0.0233117022
 C   -0.6361663224    2.4420541232    1.1099385958
 C   -0.0506289651    3.3951290274    0.0246009936
 C    1.2094671957    2.4782161478    0.0002611815
 C   -0.6609234855    2.4456641065   -1.0213882036
 C   -0.6595963938    2.4177356871   -2.5065613579
 C   -1.9720950988    2.3920188845   -1.7174287560
 H    0.0000895537   -2.2006444468   -0.0733832719
 H   -1.7232026319    2.4103052462    1.2063445494
 H   -0.1361342635    2.4408487063    2.0819222779
 H   -0.0734192136    4.4842206469    0.0221896485
 H    1.8334334208    2.4794394541    0.8977300824
 H    1.8048439545    2.4794311799   -0.9148753856
 H   -0.4141382568    3.3252891117   -3.0496564866
 H   -0.3608231526    1.5022298525   -3.0080334738
 H   -2.5285298317    1.4597581912   -1.7047154140
 H   -2.5927519193    3.2826037157   -1.7397756352