20

 C   -0.0502348288    1.6270122910    0.2706845459
 C    0.0365477967    0.1195954532    0.2049487840
 N    1.1293278711   -0.6423328363   -0.4025406015
 C    2.4213781108    0.0546580106   -0.0574834406
 C    2.1926436539   -0.0976465018    1.4645022619
 C    0.8463089457   -0.7389455877    1.1196983219
 C    0.2434136902   -1.9749370640    1.7068768550
 C    0.8811484559   -2.5215652221    2.9706999399
 O   -0.7179313288   -2.5042950054    1.1921856845
 H    0.8369240260    2.1029092405    0.6934759235
 H   -0.2112987247    2.0403586088   -0.7309690541
 H   -0.9065044017    1.9148504984    0.8885966621
 H   -0.9043886621   -0.3632162248   -0.0493890642
 H    3.2573695023   -0.5351692723   -0.4364223583
 H    2.4987124991    1.0701103884   -0.4558166512
 H    2.8955139225   -0.7952862677    1.9222967731
 H    2.1604905026    0.8099165821    2.0752559667
 H    1.8767587485   -2.9228854539    2.7477086457
 H    1.0158604188   -1.7324083593    3.7187899359
 H    0.2572470020   -3.3191083776    3.3752508998