20

 C   -0.0049882906    1.4524125633    0.0194228363
 C   -0.0592194328   -0.0441308707    0.0063553502
 C    0.9605397384   -1.0699089386   -0.3991648933
 C    0.6063836980   -0.9572704401    1.0564180225
 C   -0.3105421539   -2.1923111834    0.9613380690
 C    0.0643318475   -3.4698598829    1.6578718876
 C   -1.7626753734   -1.6857980246    0.8225465910
 C   -1.1970841092   -0.9889476557   -0.4234803244
 N   -0.1411548631   -2.1019561499   -0.5823237144
 H    0.9843567224    1.8075752155    0.3273374774
 H   -0.2109616275    1.8687188306   -0.9733133042
 H   -0.7382028799    1.8743556510    0.7171352662
 H    1.8931388534   -1.0255339685   -0.9484998997
 H    1.1812541490   -0.5719368455    1.8897910309
 H   -0.0691044114   -3.3747177034    2.7420148369
 H   -0.5550902845   -4.3003969590    1.3060432040
 H    1.1131924065   -3.7211552181    1.4676771924
 H   -2.4434264452   -2.4996428947    0.5557196562
 H   -2.1882478268   -1.0761130735    1.6239579098
 H   -1.8073979167   -0.7305165617   -1.2902037544