21

 C   -0.9517781066    1.0742627494   -0.7892850282
 O   -0.5449013562   -0.2338092608   -0.4743241905
 C   -0.1570212791   -0.3769760787    0.8722496263
 C    0.1894183164   -1.8264283019    1.1412251473
 O   -1.0098958421   -2.5824152440    1.1478952946
 C   -0.8206947888   -3.9789815451    1.1373313117
 C   -0.3098961776   -4.5245498564    2.4502452669
 C    0.4694164360   -5.7667508579    2.5122854440
 O    1.1086599253   -4.4991731903    2.6549428999
 H   -1.2278199294    1.0862385354   -1.8466193710
 H   -1.8226710585    1.3880101130   -0.1916362338
 H   -0.1447914690    1.8073784204   -0.6255051431
 H    0.7230455531    0.2514032641    1.0945703836
 H   -0.9688682860   -0.0641257064    1.5497523626
 H    0.8699548440   -2.1910922701    0.3568635650
 H    0.7155722878   -1.9044183248    2.1031298985
 H   -1.8050876789   -4.4129096077    0.9255308065
 H   -0.1293000693   -4.2804424667    0.3337016424
 H   -0.8898077359   -4.2315500802    3.3266769911
 H    0.4346280331   -6.3807001896    3.4107889312
 H    0.6987022716   -6.3045001716    1.5927419149