23

 C    0.1205412273    1.5598928999   -0.0396309584
 C    0.0245511658    0.0436460635   -0.0260982170
 O    0.6846115067   -0.4602514636   -1.1687367986
 C    0.6489079323   -1.8669184658   -1.2606084372
 C    1.3618520323   -2.2732569413   -2.5458190065
 C    1.5281414329   -3.8022335199   -2.7122202817
 C    0.1820071032   -4.5485539925   -2.8255783469
 C    2.3706667557   -4.0914075540   -3.8723910432
 C    3.0470420061   -4.3193931949   -4.8398750528
 H    1.1668784365    1.8779703660   -0.0275492801
 H   -0.3496563689    1.9655734005   -0.9399192375
 H   -0.3817233064    1.9822440483    0.8358216295
 H    0.4838967071   -0.3652511566    0.8904397629
 H   -1.0314748754   -0.2772074758   -0.0242002702
 H    1.1470712518   -2.3232004577   -0.3857273103
 H   -0.3955499377   -2.2198441937   -1.2539281974
 H    0.8173802043   -1.8691479278   -3.4064286985
 H    2.3501759841   -1.8033299446   -2.5492388393
 H    2.0489237638   -4.1811081949   -1.8205083639
 H    0.3476956496   -5.6173370776   -2.9826703713
 H   -0.4132441837   -4.4264106609   -1.9165988989
 H   -0.3975926235   -4.1679191650   -3.6722520582
 H    3.6528446562   -4.5252522917   -5.6871593243