16

 C   -0.0463162481    1.5198853346    0.0106661811
 C    1.4156507735    1.9052817432   -0.0012778085
 C    2.1986024081    0.8130649546   -0.0146876308
 C    1.3615525613   -0.3879198647   -0.0131011857
 C    1.6602939745   -1.7465227169   -0.0232671626
 N    0.7112410610   -2.6895734963   -0.0192409260
 C   -0.5642222526   -2.2928532724   -0.0048769889
 C   -0.9756032183   -0.9555878300    0.0062647110
 C    0.0119829583    0.0116677818    0.0019924687
 H   -0.5696063673    1.9085771338    0.8946793721
 H   -0.5864408082    1.9180250807   -0.8588979943
 H    1.7532543729    2.9336488168    0.0010215877
 H    3.2814121009    0.8009887778   -0.0251468438
 H    2.6903471510   -2.0969873165   -0.0350423286
 H   -1.3086456079   -3.0857597387   -0.0019977441
 H   -2.0318933391   -0.7067502675    0.0177366228