16

 C    0.0208053041    1.4989911659    0.0102633381
 C    1.3538532463    0.7535441564   -0.0072719132
 C    0.0651694973    0.0125392492    0.0016158152
 C   -0.5924915677   -0.9944393220    0.9760836517
 O   -1.6962593051   -1.0846695035    0.0132570444
 C   -0.6120742056   -0.9837646213   -0.9704755876
 C    0.1828726759   -2.2723095036   -0.6796746740
 C    0.1967953086   -2.2793257378    0.6552503453
 H   -0.2678383017    2.0043435794    0.9264978275
 H   -0.2861942480    2.0143707012   -0.8943444058
 H    1.9353268241    0.7723299740   -0.9236705517
 H    1.9536619521    0.7622834426    0.8973842195
 H   -0.8899280368   -0.7595787835    1.9972644810
 H   -0.9299600147   -0.7377187947   -1.9828214289
 H    0.6136375355   -2.9529771709   -1.3986772110
 H    0.6423083656   -2.9675114714    1.3579243695