17

 O    0.6371054344    0.1428336998   -0.4781921565
 C    0.6268327491    1.3344952551   -0.5275697676
 O    1.0148629780    2.0995758503    0.5252056081
 C    0.9798384333    3.4945266061    0.3283441915
 C    2.1947502499    4.2943625883    0.7368475761
 C    3.4993815762    3.5431141750    0.9595339920
 C    3.7272706320    2.7695416618   -0.3606152549
 O    2.8101288339    3.2955152781   -1.3395365292
 C    1.8720814866    4.1231611600   -0.7226193729
 H    0.3085128139    1.9357034325   -1.3964086257
 H    0.0053612946    3.9368685655    0.5176688238
 H    2.0347031710    5.2283292871    1.2618608135
 H    4.2975159336    4.2678287322    1.1429437552
 H    3.4571477795    2.8628990609    1.8136998363
 H    4.7399403026    2.8921767392   -0.7568843978
 H    3.5319633132    1.7015756809   -0.2281143256
 H    1.5022322881    4.9055450873   -1.3757792663