19

 C    0.0244852538    1.5565064960    0.0185171594
 C    0.0399974453    0.0253285546    0.0292155153
 C    0.7828677463   -0.5083722445    1.2563540881
 O    2.1162464363   -0.0225482320    1.1996890517
 C   -1.4106233381   -0.5577548760   -0.0206119055
 C   -2.1571335503   -0.0610062643   -1.1821781686
 C   -2.7634001600    0.3459038922   -2.1357608274
 C   -1.4286439563   -2.0261721779   -0.0052050755
 C   -1.4428435730   -3.2273698583    0.0052633577
 H    1.0464635259    1.9343566139    0.0812707572
 H   -0.4425087228    1.9429477575   -0.8899021464
 H   -0.5332519922    1.9462562409    0.8793862361
 H    0.5693112740   -0.3366690745   -0.8595835768
 H    0.2720190118   -0.1610781425    2.1716446001
 H    0.7603919698   -1.6059309438    1.2579415689
 H    2.6013202771   -0.3925016149    1.9424953767
 H   -1.9289588503   -0.2053092179    0.8850310187
 H   -3.3049974372    0.7006841054   -2.9775035329
 H   -1.4617653900   -4.2891714639    0.0106178033