14

 C    0.0123419194    1.4899693279   -0.0008483673
 N   -0.0115783240    0.0357953616   -0.0620559244
 C    0.5593102886   -0.7100047302   -1.0346069887
 C    0.6300882861   -2.0745847663   -1.0425899387
 C    1.2433046215   -2.7437642452   -2.1427166727
 O    1.4001391697   -3.9176844060   -2.3325221689
 O    1.7348984903   -1.8621963675   -3.1491566454
 N    1.6330241259   -0.4838651825   -3.0717073421
 N    1.0871199387    0.0478326124   -2.0894340968
 H    1.0133204888    1.8796357447    0.2169145758
 H   -0.3242026018    1.9212258417   -0.9448256439
 H   -0.6675404423    1.8050892845    0.7926240231
 H   -0.3404562370   -0.4611991543    0.7486850777
 H    0.2341053259   -2.6835918509   -0.2393858276