25

 C   -0.0779953603    1.5806705832    0.0867740698
 C    0.0348129607    0.0543188909    0.0077376353
 C    0.7445225538   -0.4806768547   -1.2524834004
 C    2.2124677052   -0.0278281738   -1.3124857808
 C    0.6356865817   -2.0124373002   -1.3392579675
 C   -0.8088545334   -2.5668583211   -1.4530639190
 C   -0.6789962060   -3.7721196110   -2.4184415709
 O    0.7058991562   -3.9229288683   -2.7089839862
 C    1.3007339808   -2.6457355562   -2.5744013620
 H    0.8999025916    2.0654130864    0.1615588543
 H   -0.5824641530    1.9856175002   -0.7980106149
 H   -0.6581656183    1.8820164853    0.9646558596
 H    0.5614088316   -0.3214989162    0.8962991434
 H   -0.9745227102   -0.3706533833    0.0534922781
 H    0.2245384500   -0.0656248312   -2.1306217342
 H    2.7017267652   -0.3652011192   -2.2309908404
 H    2.3011013384    1.0614589923   -1.2814341517
 H    2.7797364303   -0.4317324339   -0.4649459259
 H    1.1111317793   -2.4463553290   -0.4496881496
 H   -1.2132715454   -2.8619292063   -0.4824137981
 H   -1.4826761848   -1.8105098411   -1.8691379186
 H   -1.0311732182   -4.7143580274   -1.9884166542
 H   -1.2453775250   -3.5917898777   -3.3451595234
 H    1.1163126437   -2.0244343556   -3.4704044145
 H    2.3790182262   -2.7924437719   -2.4761738685