17

 O   -0.1154988122    1.3668677963   -0.1489726141
 C   -0.0528928757   -0.0120721997   -0.0200079740
 C   -0.3704823457   -0.6343032315    1.3501049227
 C   -1.3537166538   -0.7593613872    0.2515214380
 C   -2.7427281103   -0.1725403930    0.0612974831
 C   -3.0172147201   -1.5042753020   -0.6746323830
 O   -1.6877744153   -1.9994153693   -0.3579782155
 C    0.9785252877   -0.6488165204   -0.8567854137
 O    1.6775165365    0.0143600644   -1.5951861004
 H    0.5635475936    1.5765188927   -0.8121040630
 H    0.1904620880   -1.5191985876    1.6356903992
 H   -0.5734001917    0.0744738099    2.1462183870
 H   -3.3121190971   -0.0270719492    0.9809078677
 H   -2.7758577724    0.7351431615   -0.5413917748
 H   -3.7915991750   -2.1461702494   -0.2442795352
 H   -3.1677414279   -1.4216232014   -1.7562221332
 H    1.0711343712   -1.7479301843   -0.7843384506