21

 C    0.0243104821    1.5738960201    0.0421790030
 C    0.0148351498    0.0451264636    0.0428040266
 O    0.7332744032   -0.4742251975    1.1620565674
 C   -1.4060947639   -0.5273814794   -0.0295049740
 C   -1.4331753044   -2.0558510816   -0.0918651548
 C   -2.8647223003   -2.6204894018   -0.1369393699
 O   -3.6108079141   -2.1070457289   -1.2409613556
 C   -2.8584736029   -4.0865057158   -0.1321133967
 C   -2.8279134408   -5.2877635562   -0.1729554469
 H    1.0493423143    1.9477975189    0.1120994591
 H   -0.4324257852    1.9737857063   -0.8688327677
 H   -0.5425515251    1.9656519120    0.8965588270
 H    0.5823457042   -0.3137133725   -0.8258236868
 H    0.3188730217   -0.1238818587    1.9588163130
 H   -1.9688669276   -0.1833097336    0.8522792524
 H   -1.9250770151   -0.1150517796   -0.9013791444
 H   -0.8929800920   -2.4076546953   -0.9811724247
 H   -0.9088037179   -2.4736832171    0.7730699935
 H   -3.4086060876   -2.2653975474    0.7480928765
 H   -3.2958303236   -2.5570621070   -2.0329507422
 H   -2.8149735948   -6.3496028586   -0.1936327549