16

 C    0.0327095737    1.5202754610    0.0495536987
 C    0.0637403268    0.0085956544   -0.0851241115
 C   -1.1136859663   -0.6279252761    0.4795883486
 N   -2.0796379521   -1.0975629046    0.9055561059
 C    0.6993296932   -0.7517123489   -1.1954376599
 C    1.9417545333   -0.0626780557   -1.7541724214
 C    2.4242987280   -0.0448911570   -0.2999748489
 N    3.4061921029    0.3365981982    0.3796607385
 N    1.2931602198   -0.8125318144    0.2080367390
 H    0.8907749607    1.9934273025   -0.4278724834
 H   -0.8807042749    1.9120788529   -0.4061938779
 H    0.0358958017    1.7982142233    1.1068926763
 H    0.2222691050   -1.6244159323   -1.6251286985
 H    2.5428377078   -0.7346947046   -2.3721983744
 H    1.8216917513    0.8907770987   -2.2744856695
 H    4.0965331190    0.8120217624   -0.2039059114