17

 C   -0.0651365394    1.4213971388   -0.0794279306
 C    0.0342272017   -0.0654616577   -0.0235148097
 O   -0.5322505769   -0.8257111038   -1.1068107511
 C   -0.4235998421   -1.9934145926   -0.2493798991
 C   -0.2739551092   -1.0813894526    1.0153510501
 C    1.2229924320   -0.8570167659    0.5427946612
 C    2.3981267598   -0.3031752110    1.2857410360
 C    1.1050113418   -2.1971730551   -0.1197713291
 O    1.8472759183   -3.1321428516   -0.2312865721
 H    0.5049674586    1.8096404423   -0.9294098150
 H   -1.1092856373    1.7257705688   -0.1945344770
 H    0.3295665135    1.8725082725    0.8346278382
 H   -1.1392948883   -2.7855333322   -0.4496559530
 H   -0.6709640000   -1.0918609294    2.0200074499
 H    2.8840818867   -1.0891896552    1.8723694586
 H    3.1420602203    0.1030507407    0.5923972731
 H    2.1068214904    0.5004646941    1.9688002797