17

 C   -0.0519905836    1.4619525665   -0.0377057370
 C    1.3472593464    0.8430885365   -0.0289309607
 C    2.2715874176    0.4195437093   -1.1218426747
 C    2.1631935652   -0.8502091365   -1.5234473228
 C    0.9191182076   -1.6308436859   -1.0854517748
 O    0.9384024960   -2.0929642720    0.2809493636
 C    0.1490362899   -1.1530320131    1.0531593280
 C    0.1094178744   -0.0158213063    0.0664103179
 O   -0.1581722886   -0.7157860744   -1.1399727571
 H   -0.3253229374    2.0436620098    0.8359452518
 H   -0.4868848813    1.8045351436   -0.9702960260
 H    1.8537746948    0.9896948381    0.9238773417
 H    3.0513385194    1.0832194961   -1.4841206719
 H    2.8371933028   -1.3029562483   -2.2428181876
 H    0.7110283360   -2.4837834824   -1.7360016278
 H   -0.8350612852   -1.5851280245    1.2722309007
 H    0.6760542860   -0.9239379666    1.9827952869