17

 C   -0.0069314529   -1.1813746135    0.0408039043
 C   -0.0205837914    0.0221756789    0.0379211992
 C   -0.0355546816    1.4552314950    0.0323566692
 C   -0.7142152771    2.4041010051    1.0573042790
 C   -0.0578067899    3.3497690822    0.0287872612
 C    1.2187464978    2.4348738006   -0.0205734069
 C    1.7151381395    2.4431040335   -1.4552992138
 C    0.5957716476    2.4285868539   -2.1830315591
 C   -0.5138441025    2.4124016760   -1.1469805350
 H    0.0054107957   -2.2431016910    0.0429503043
 H   -1.8068473861    2.3803550958    1.0841850102
 H   -0.2951345680    2.3999611884    2.0669998601
 H   -0.0637122900    4.4414257668    0.0160929990
 H    1.9205685747    2.4337421706    0.8138587913
 H    2.7474613935    2.4460435090   -1.7748230107
 H    0.4689597017    2.4164918167   -3.2561428285
 H   -1.5610585013    2.3885857721   -1.4496479837