20

 C    0.1070568683    1.5018523879   -0.0306497631
 N    0.1353311443    0.0362625705    0.0364453502
 C   -1.0431462396   -0.7273825525    0.6066992811
 C   -0.0773792260   -1.9347412265    0.7016232952
 C    0.6754807121   -0.6943992154    1.2690378993
 C    2.1313802902   -0.5642799306    1.6160917896
 O    2.9340936601   -0.8710640186    0.4888002233
 C   -0.6142115242   -0.4013000109    2.0843035412
 O   -0.7424510726    0.8756263980    2.6498287340
 H    1.1372284915    1.8582000833   -0.1444353860
 H   -0.4295221622    1.7791689729   -0.9452598716
 H   -0.3459816847    2.0140500170    0.8203192089
 H   -2.0328304618   -0.6878639905    0.1478996171
 H   -0.3254720557   -2.7349069951    1.4006810273
 H    0.2959055632   -2.2939290535   -0.2543577179
 H    2.3299930511    0.4542362276    1.9875691878
 H    2.3975628257   -1.2628429293    2.4180479696
 H    2.4341305064   -0.5763550816   -0.2835768459
 H   -0.8828112441   -1.1756542557    2.8177815723
 H   -1.6062529320    0.9341478528    3.0697257674