23

 C   -0.0260395302    1.5873171823    0.0796464481
 C   -0.1112813607    0.0592621072    0.0751748172
 C    0.7580007330   -0.5854389424    1.1541259066
 C    0.7422693766   -2.1068669055    1.1424573038
 O    0.2231667335   -2.7371626254    0.2464296996
 C    1.4060275358   -2.8077826062    2.3264253107
 C    0.3713306060   -3.0101042072    3.4526154772
 C    2.0150721053   -4.1399119499    1.8863530144
 O    2.6916966326   -4.6957148147    3.0057701348
 H    0.9999198150    1.9302174886   -0.0965764218
 H   -0.6588254006    2.0203595037   -0.7010605864
 H   -0.3513421450    2.0042183317    1.0396155824
 H   -1.1500842717   -0.2600413475    0.2163450106
 H    0.1874980960   -0.3356793415   -0.9011087909
 H    1.8094235404   -0.2779479634    1.0416995028
 H    0.4741074259   -0.2391954279    2.1577783664
 H    2.2120992064   -2.1704618279    2.7113257189
 H   -0.4786103522   -3.5961825775    3.0878213034
 H    0.8361613991   -3.5513151570    4.2787971985
 H   -0.0086251540   -2.0563035896    3.8308228824
 H    1.2161393795   -4.7988994264    1.5213667177
 H    2.7074670154   -3.9707608650    1.0474317951
 H    2.9911117940   -5.5772227085    2.7664389787