23

 C    0.0076433699    1.5411766977    0.0648767791
 C   -0.0422173306    0.0218204570   -0.1098980721
 C   -1.4497569591   -0.5577309151    0.1030058728
 C   -1.4774062238   -2.0489061628   -0.0175237741
 C   -1.6087202067   -2.8620010249   -1.2692966886
 C   -2.5685142274   -3.0925094655   -0.1136933176
 C   -1.8381965288   -3.7835582191    1.0377177157
 C   -1.3670312261   -5.2186944922    0.9238189951
 O   -0.7554769246   -2.8054420934    0.9715852017
 H    1.0204335233    1.9263657910   -0.0889348237
 H   -0.6525521420    2.0462971420   -0.6495610816
 H   -0.3103636034    1.8349454806    1.0715064467
 H    0.3086816844   -0.2503780338   -1.1130368825
 H    0.6440609230   -0.4585211105    0.5968322402
 H   -1.8168958995   -0.2709069835    1.0971576944
 H   -2.1460874867   -0.1310975199   -0.6300182532
 H   -2.0556421145   -2.3503382586   -2.1165547414
 H   -0.8479096329   -3.5931517997   -1.5266612176
 H   -3.6410058755   -2.9842399584   -0.2089829483
 H   -2.3826494315   -3.6388409108    1.9807674384
 H   -0.8746017756   -5.4056910790   -0.0339816751
 H   -0.6570072153   -5.4481259463    1.7248951892
 H   -2.2178752064   -5.9022515247    1.0174838624