20

 C   -0.1364946613    1.5378154273   -0.0189098482
 N   -0.0899791827    0.0978597252    0.0972520262
 C   -1.2381964431   -0.5978380563    0.7065031834
 C   -0.2363350047   -1.6018764363    1.3496777193
 C    0.8316148681   -0.5008341961    1.0800111749
 O   -0.4655419035   -1.9363404975    2.7065383307
 C   -0.4316162224   -3.3522580626    2.8873753367
 C   -0.1586093556   -3.9104729674    1.5192709636
 C   -0.0488002473   -2.9121987853    0.6509343681
 H    0.8166291296    1.9108403089   -0.4092557164
 H   -0.9231768617    1.8293158735   -0.7232688255
 H   -0.3342305468    2.0450288329    0.9449734588
 H   -1.7398516734   -0.0173665627    1.4981021864
 H   -1.9853986616   -0.9788072782    0.0015989081
 H    1.8089839593   -0.8009823876    0.6863120761
 H    0.9708851298    0.1096724976    1.9872705472
 H    0.3503028622   -3.6155452560    3.6163173906
 H   -1.3912466588   -3.6973657911    3.3021969686
 H   -0.0722113096   -4.9700816479    1.3160630672
 H    0.1458376336   -2.9749672705   -0.4115986658