20

 C   -0.0315789085    1.6413122191   -0.0125404946
 C    0.0185643954    0.1293652769   -0.0622064018
 C    0.6792358767   -0.6876073721   -1.1345657027
 N    1.1838881831   -0.6908215221    0.2568725019
 C    2.4968900015    0.0287168545    0.2838225888
 C    3.5554245373   -0.9461935699    0.7950215654
 C    2.7952046208    0.5431685503   -1.1431190603
 C    1.6663723250   -0.0011945104   -2.0283788135
 O    1.6187523919    0.0494445534   -3.2316197933
 H    0.8178466431    2.1346533887   -0.4865056833
 H   -0.9380165900    1.9901213638   -0.5172010492
 H   -0.0830129220    1.9820569746    1.0276211953
 H   -0.8934810232   -0.3221240661    0.3276077707
 H    0.1902255422   -1.5763371352   -1.5212111356
 H    2.4098065417    0.8594583830    0.9917466790
 H    3.6491154811   -1.8021418774    0.1180262592
 H    4.5323499290   -0.4565218139    0.8650819938
 H    3.2803232754   -1.3265518585    1.7819849079
 H    2.8467283503    1.6329771000   -1.2316190870
 H    3.7441255693    0.1559288912   -1.5274257809