18

 O   -0.1818499416    0.2245543663    0.7804258902
 C    0.3707813447    0.6683860094   -0.1945437815
 C    1.3776004278    1.7659808515   -0.1386072266
 N    2.2972713055    1.8567383266   -1.2935142072
 C    1.3471193262    2.9404382319   -1.0784390011
 C    0.2902501991    3.1658192463   -2.1364661363
 C    0.8565105281    3.9802949882   -3.3201753332
 C   -0.1364268704    4.2355179618   -4.3552587361
 C   -0.9766206963    4.4299704893   -5.1923470703
 H    0.1743413607    0.2749280064   -1.2148257931
 H    1.7564918869    1.9581493400    0.8624034649
 H    3.2305110879    2.1031312654   -0.9765858503
 H    1.7360276887    3.8597759934   -0.6380033575
 H   -0.0829423519    2.2102803188   -2.5121497407
 H   -0.5610640041    3.6984653614   -1.6988122131
 H    1.2550881592    4.9351239948   -2.9515295964
 H    1.7074301635    3.4350710753   -3.7469047023
 H   -1.7094946839    4.6076345432   -5.9397266494