19

 O   -0.0752875506    1.3493510855    0.0663729803
 C   -0.0140705069   -0.0549185344    0.0694993822
 C   -0.2126478355   -0.6637381850    1.4177179590
 C    1.1734932866   -0.6971807999    0.7644870704
 C    1.7275772240   -1.9435361827    0.1912832536
 C    1.2856784691   -2.4909723679   -0.9470056660
 C    0.1859672856   -1.9175372013   -1.7559895692
 C   -1.2503184858   -2.0063983268   -1.2630836106
 C   -0.5211534767   -0.6916134009   -1.2049457513
 H    0.5739377734    1.6686436266   -0.5704456893
 H   -0.3464573836    0.0331749295    2.2369702586
 H   -0.7568534114   -1.5962613926    1.5073224929
 H    1.8905856029   -0.0140712037    1.2111174410
 H    2.5402060100   -2.4191228954    0.7350099022
 H    1.7441612347   -3.4044216662   -1.3169718605
 H    0.3178762986   -1.9814991163   -2.8325060206
 H   -2.0338343495   -2.1117528488   -2.0055904409
 H   -1.4298728362   -2.5492795144   -0.3423514250
 H   -0.8386276588    0.0549736146   -1.9247649367