21

 C    0.0559632169    1.5704357334   -0.1939797890
 C    1.3320684981    0.7802044192   -0.0585963247
 C    2.1725196971    0.8532652399    1.2147342134
 C    1.4800124451    0.1952989021    2.4220953784
 C    0.8427716789   -1.1388785723    2.0116653863
 C   -0.4233265480   -0.5802565352    1.3291871011
 C   -0.8472065987    0.4210359200    2.4068493788
 O    0.3742885106    1.0030821091    2.8723512775
 C   -0.0128634619    0.0731656198    0.0016366341
 H   -0.2127545119    2.2182003079    0.6324303601
 H   -0.2041844675    1.9645532050   -1.1706956545
 H    1.9061766748    0.6461634501   -0.9702082226
 H    3.1212486049    0.3276311903    1.0485384308
 H    2.4249478484    1.8894997819    1.4675701949
 H    2.1827278106    0.1076551041    3.2564574423
 H    1.4745099464   -1.7250277537    1.3403182150
 H    0.5936333024   -1.7462162597    2.8873905553
 H   -1.1947359608   -1.3352305777    1.1598832210
 H   -1.5041538840    1.2141281044    2.0377497909
 H   -1.3601497282   -0.0916205075    3.2342139209
 H   -0.2881863032   -0.5036481111   -0.8761249701