18

 C   -0.1808872959    1.5044648791   -0.0760126173
 C    0.1363344047    0.0071743524    0.0527367294
 C    0.7378488511   -0.5431234095   -1.2007971727
 C    0.0183661808   -1.0619889024   -2.3994761865
 C    1.0286390883   -1.9713938944   -1.7008597726
 C    2.4326373183   -1.4320956618   -1.9750223010
 O    2.0444888720   -0.0957560338   -1.5703915672
 C    0.7036521898   -3.2408640012   -1.1533973132
 N    0.4430110815   -4.2743247733   -0.6997396004
 H    0.7231809654    2.0723308725   -0.3128577461
 H   -0.9123705702    1.6856890904   -0.8696486403
 H   -0.5913892723    1.8917742489    0.8603607987
 H    0.8342921268   -0.1584839477    0.8809251497
 H   -0.7736514410   -0.5593260828    0.2795075872
 H   -1.0153986931   -1.3510690947   -2.2422376793
 H    0.2545448702   -0.6782533733   -3.3880036519
 H    3.1889984236   -1.8388021206   -1.2971850240
 H    2.7882712400   -1.4717525577   -3.0101955125