18

 O    0.1105800591   -0.0135406873   -0.0691127126
 C   -0.0042566660    1.1970283106   -0.0160615248
 C   -1.1956360873    2.0246519685    0.0894924621
 C   -0.7967567518    3.3231678143    0.0754722251
 N    0.5508068059    3.4789497695   -0.1085080706
 C    1.1956314692    2.1789242055   -0.0615357443
 C    2.2552830924    1.8865696842    1.0461584610
 C    3.0702524003    1.0901982034   -0.0066593881
 C    2.2642147650    1.8003832122   -1.1260936537
 H   -2.2084379472    1.6588641589    0.1459807374
 H   -1.4191457822    4.2060127215    0.1645050685
 H    1.0247937887    4.2958447464    0.2433850656
 H    2.7642170989    2.8065664319    1.3528782061
 H    1.9033157981    1.3575888609    1.9341104096
 H    4.1532835942    1.2252138588   -0.0039812725
 H    2.8309682037    0.0274371016    0.0338063127
 H    1.9144981929    1.1933192878   -1.9631129534
 H    2.7693596661    2.6924612414   -1.5071696082