20

 O   -0.1397027322    1.4989161028   -0.1563376205
 C   -0.0384719040    0.0855695882   -0.2365061945
 C   -1.3431968800   -0.4991691977    0.3014429070
 C   -1.3771011594   -2.0067887287    0.2649954571
 N   -1.5613165437   -2.7139035780   -1.0435905942
 C   -2.5988900501   -2.8212528552    0.0070032083
 C   -2.5144090168   -4.1035075336    0.8272506520
 C   -1.1612888802   -3.9833387995    1.5001978004
 C   -0.5520648314   -2.8332846339    1.2076456001
 H    0.6783072551    1.8788369944   -0.4895098057
 H    0.1181297873   -0.2489455210   -1.2741275487
 H    0.8127301291   -0.2875601104    0.3549112627
 H   -1.4850385724   -0.1438817145    1.3291772920
 H   -2.1722578515   -0.0920587575   -0.2901155136
 H   -1.8860484601   -2.0318688223   -1.7296311076
 H   -3.5623277854   -2.3540606737   -0.1702294322
 H   -3.3296309997   -4.1698764188    1.5598642466
 H   -2.5795618748   -4.9955484713    0.1926628810
 H   -0.7482705591   -4.7720619020    2.1190975385
 H    0.4219589091   -2.5251808074    1.5694144310