20

 C    0.1779168564    1.5016701794    0.2433143769
 C    0.0265193548   -0.0086070149   -0.0126631575
 C   -1.4008691690   -0.4769968321   -0.0329206151
 C   -2.2063897711   -0.6535129015   -1.1428084570
 C   -1.9682800724   -0.4440224810   -2.5995947703
 O   -2.7138016649   -1.4305882635   -3.3166985712
 N   -3.4487212427   -1.0450379293   -0.7068662874
 C   -3.4532125752   -1.1489932960    0.6583165918
 C   -2.2040135644   -0.7901740843    1.1060811519
 H    1.2327380140    1.7960000070    0.2666372166
 H   -0.3206517313    2.0836554035   -0.5387685895
 H   -0.2745628180    1.7824203199    1.1996406118
 H    0.5157735824   -0.2610275775   -0.9617445749
 H    0.5746868960   -0.5566709547    0.7636509952
 H   -2.2891557908    0.5640217402   -2.9135763764
 H   -0.8909568186   -0.5170937917   -2.8096075045
 H   -2.7089943317   -1.1865485980   -4.2471134806
 H   -4.1723183569   -1.3491521125   -1.3354642134
 H   -4.3304707178   -1.4816435792    1.1896505101
 H   -1.8851845887   -0.7596511838    2.1376713337