21

 C    0.4147148875    1.5261085853   -0.3046317047
 C   -0.0687291000    0.1189275097    0.0697998067
 C    0.0874042745   -0.9136714155   -1.1034819142
 C    1.4826527122   -1.6025631956   -0.9393688320
 C    1.7060913557   -1.5052704812    0.5461945536
 C    2.8413993401   -1.1348115814    1.5201911004
 C    1.8731673454   -0.0655719779    2.1558576929
 C    0.8048045999   -0.5087734760    1.1332685293
 O    0.5788476814   -1.9093717301    1.3366372553
 H    1.4530197938    1.5148121132   -0.6556012337
 H   -0.2020147336    1.9433959630   -1.1063446555
 H    0.3597196333    2.2085023919    0.5496362449
 H   -1.1198527384    0.1777335493    0.3748936139
 H   -0.6948497222   -1.6706193397   -1.0251271550
 H   -0.0182027415   -0.4306739236   -2.0792579656
 H    1.4830435626   -2.6216764767   -1.3386014408
 H    2.2697373633   -1.0460181951   -1.4617817147
 H    3.1885126450   -1.9425260323    2.1684620990
 H    3.6994861769   -0.6744652111    1.0244257270
 H    1.6011044283   -0.2003679888    3.2050894190
 H    2.2263609959    0.9561902126    2.0011764743