21

 C   -0.1596416701    1.5323324665    0.2417975137
 C   -0.0185402456    0.0229189338    0.0197257853
 C   -1.3583538171   -0.7142595774   -0.0516332856
 C   -2.2416134964   -0.3387784680   -1.2716332588
 N   -2.7684174295   -1.6176267744   -1.7923573369
 C   -2.5621440783   -2.6657486691   -0.7949005678
 C   -1.2240715343   -2.2456982491   -0.1616030431
 C   -3.6418324310   -2.7394918391    0.2171082806
 N   -4.5137203375   -2.7711353765    0.9767070932
 H    0.8202152185    2.0155171790    0.3013250310
 H   -0.7138530832    2.0095944357   -0.5734713944
 H   -0.6935303102    1.7451779912    1.1745044819
 H    0.5411979535   -0.1654358620   -0.9065255739
 H    0.5800009893   -0.4073587537    0.8326848169
 H   -1.9237498395   -0.4931978410    0.8621198250
 H   -3.0379045320    0.3572980018   -0.9812742739
 H   -1.6491831117    0.1523268032   -2.0544242395
 H   -3.7287644575   -1.5556159562   -2.1045795054
 H   -2.4988940244   -3.6471537955   -1.2777998274
 H   -0.4222021936   -2.5151727308   -0.8565871867
 H   -1.0336054693   -2.7330644082    0.7963583757