18

 C   -0.0547385859    1.5003944699    0.0377590737
 C   -0.0657662666    0.0054615158   -0.0315224102
 C    0.7937046821   -0.9612724079   -0.9293027566
 C    1.9076224971   -0.9083537619    0.1068994529
 N    0.6821140823   -0.8949357967    1.0199164122
 C   -0.0240334127   -1.8763519182    0.0351651947
 C   -1.2317650380   -0.9682045484   -0.0078944934
 C   -2.5802355111   -0.9758217464    0.5345752090
 O   -2.3236544251   -1.0168146621   -0.8925326643
 H    0.9651090539    1.8967026645    0.0067474214
 H   -0.6094418382    1.9209842917   -0.8073439145
 H   -0.5255391620    1.8446857764    0.9640500141
 H    0.8294052881   -1.0028127180   -2.0224422581
 H    2.5331737280   -1.7971196274    0.2378916229
 H    2.5188270129   -0.0029874438    0.1767175473
 H    0.0626895602   -2.9541821228    0.1712285793
 H   -2.9947756119   -1.8908366696    0.9539774903
 H   -3.0316965832   -0.0525412650    0.8936921293