18

 C   -0.1386973066    1.4988708766   -0.0711764783
 N    0.0550036685    0.0648331659    0.0264312252
 C    0.7136628532   -0.5565881875   -1.1501245513
 C    1.3564359212   -1.8899676869   -0.6492234651
 C    1.5276822118   -1.5339331197    0.7950935391
 C    0.7756938434   -0.4364046617    1.1285694834
 C    0.9419373560   -0.2706268330    2.5167987954
 N    1.7499076478   -1.2233879463    3.0054246522
 N    2.0765131127   -1.9937390670    1.9444133366
 H    0.8082189221    2.0568616348   -0.1884405145
 H   -0.7783354551    1.7253681107   -0.9299902835
 H   -0.6440835527    1.8642043038    0.8271834437
 H   -0.0050817067   -0.7082388597   -1.9604725081
 H    1.5136868610    0.1062491757   -1.5223974101
 H    0.6704339667   -2.7374753559   -0.7812767070
 H    2.2762044492   -2.1223715514   -1.1938562349
 H    0.5403174596    0.4754438477    3.1852955286
 H    2.7000271378   -2.7690301961    2.0871786986