17

 C   -0.0361774599    1.4811136932    0.0913081017
 C    1.3595421595    2.1417182019   -0.0118940348
 C    2.1893502326    1.4411086818   -1.0487569542
 C    1.9750838675    0.0960796052   -1.3093623951
 N    2.9155486417   -0.2705844356   -2.2166961864
 N    3.7264045524    0.7466820315   -2.5735680720
 C    3.2894269511    1.7847892756   -1.8546759242
 C    0.9342465638   -0.6877930091   -0.6798647692
 C   -0.0055428584   -0.0318412318    0.0178931135
 H   -0.5324278507    1.8046958611    1.0118445053
 H   -0.6691601815    1.8436686850   -0.7343117531
 H    1.2470090739    3.2081576024   -0.2307596098
 H    1.8621505211    2.0797863582    0.9648851500
 H    3.0383605624   -1.1665227218   -2.6576575908
 H    3.7854666898    2.7400837637   -1.9515632708
 H    0.9262635630   -1.7691038099   -0.7748010198
 H   -0.8114243983   -0.5792305116    0.4969955299