17

 O    0.1171348477    1.3004445433    0.4608607709
 C   -0.0246780044    0.0399296842   -0.1846993471
 C   -1.4231702112   -0.4490785035    0.0311975982
 N   -1.6482778649   -1.7608549418    0.2370611671
 N   -2.9839728115   -1.7922134250    0.3122346781
 C   -4.1766652538   -2.5877123367    0.6317249327
 C   -4.9670218851   -1.2230691579    0.4805906360
 C   -3.5994931238   -0.6059193229    0.2061002112
 C   -2.6122506664    0.3393637509    0.0114876190
 H    0.9677261787    1.6670496174    0.2020924567
 H    0.1753064567    0.1367947875   -1.2647156872
 H    0.6742226563   -0.7106841986    0.2109163960
 H   -4.4080425292   -3.3642005233   -0.1020340574
 H   -4.1700174487   -3.0122986936    1.6389757221
 H   -5.6803439498   -1.1997788781   -0.3462771988
 H   -5.4628606881   -0.8892850644    1.3947156535
 H   -2.6773478125    1.4062073826   -0.1121178711