18

 C   -0.2848200712    1.5023778666    0.0936473376
 C   -0.0224543210    0.0092875695    0.0584607145
 O   -1.3008487144   -0.6487858892   -0.0017168515
 C   -1.2760127175   -1.9806495247   -0.0388518079
 N   -0.2087340813   -2.6645158444   -0.0238722571
 O   -2.5706782075   -2.3854427213   -0.0920965901
 C   -2.8183906384   -3.7763747084   -0.1403090348
 C   -4.3262463553   -3.9696969353   -0.1977259358
 O   -4.8416701385   -5.0530944100   -0.2418463742
 H    0.6655644524    2.0421373159    0.1398908626
 H   -0.8228210408    1.8260355452   -0.8016962566
 H   -0.8796269932    1.7742486563    0.9700762000
 H    0.5693426960   -0.2856151702   -0.8137791561
 H    0.5129248941   -0.3370775392    0.9480507342
 H   -0.3737359235   -3.6644410310   -0.0573335043
 H   -2.3645936947   -4.2384687556   -1.0281176319
 H   -2.4252166388   -4.2895743418    0.7482518732
 H   -4.9050054963   -3.0216837120   -0.1955108820