14

 O   -0.1574394503   -0.0050467572    0.0057180255
 C   -0.0322540438    1.1891969825   -0.0329610729
 N    1.1800033012    1.8610388970   -0.0026492074
 C    1.4705545256    3.3199157926   -0.0349263991
 C    2.9907684470    2.9470845955   -0.0155325823
 C    2.5414931550    1.4769992688    0.0412606403
 O    3.0734453213    0.4139875362    0.1048155790
 C    0.9733793201    4.0294987777   -1.1993218950
 C    0.5573819951    4.6224648222   -2.1577627184
 H   -0.8781394549    1.9014758095   -0.1003750870
 H    1.1446509258    3.8164983168    0.8845653378
 H    3.5304842250    3.2095114314   -0.9257497338
 H    3.5438337533    3.2886328796    0.8602741490
 H    0.1908117297    5.1439527675   -3.0079771458