20

 O   -0.0416626415    1.3297329796    0.2288769791
 C    0.0215409435   -0.0415531298   -0.1330035965
 C   -1.3710093476   -0.6378029451   -0.1343354428
 C   -2.3348232664   -0.0900217919   -1.1893367866
 C   -3.6549389629   -0.7253215544   -0.6949023684
 C   -3.1071384842   -1.4796831459    0.5035784705
 C   -1.7239783798   -2.1212614980    0.1975675472
 C   -1.3863281323   -1.8042484425    1.6579841741
 N   -2.1237326851   -0.5299874546    1.2360325025
 H   -0.6282573507    1.3748119025    0.9951604155
 H    0.4462156335   -0.0837234570   -1.1424471529
 H    0.7048365003   -0.5952168667    0.5267574660
 H   -2.3430037791    1.0018113669   -1.1774879932
 H   -2.0477509755   -0.4148661557   -2.1943990370
 H   -4.3999414103    0.0165307456   -0.3946875618
 H   -4.1187662967   -1.3958322747   -1.4241196728
 H   -3.8031250467   -1.9976135707    1.1665886230
 H   -1.5053793648   -3.0205979682   -0.3903681799
 H   -1.9152087262   -2.3649436710    2.4339559541
 H   -0.3450800577   -1.6518730983    1.9471967300