25

 C    0.0743142329    1.6621118175   -0.0222212196
 C   -0.0232876124    0.1326223353   -0.0062547612
 C    0.7301841502   -0.5003088492   -1.1832934528
 C    0.7310650628   -2.0576694504   -1.2522299623
 C    1.4702348547   -2.6583317837   -0.0326964823
 C   -0.7055038204   -2.6542831806   -1.3064318365
 C   -1.5788264312   -2.1716973576   -2.4667376421
 C    1.4600597879   -2.4470754070   -2.4663035679
 C    2.0656672945   -2.7617164409   -3.4570223652
 H    1.1166314545    1.9929814419    0.0446038893
 H   -0.3434075264    2.0762305474   -0.9466491764
 H   -0.4706771098    2.1046945546    0.8173607270
 H    0.3745060763   -0.2418511001    0.9440625897
 H   -1.0798516623   -0.1592734937   -0.0331290599
 H    0.3197891868   -0.1100288819   -2.1213221242
 H    1.7761662852   -0.1702898056   -1.1579397666
 H    0.9346692298   -2.4366637178    0.8949368013
 H    1.5458485123   -3.7450342647   -0.1283670391
 H    2.4838304299   -2.2549792839    0.0472003112
 H   -0.6066511883   -3.7446285108   -1.3589817559
 H   -1.2002105185   -2.4381352371   -0.3524038825
 H   -1.8022293745   -1.1025696448   -2.3955647179
 H   -1.0862207276   -2.3490892841   -3.4273755656
 H   -2.5340560840   -2.7056845473   -2.4733375261
 H    2.6004471275   -3.0409269055   -4.3308257544