13

 C   -0.0354529145    1.5325214727    0.0039186342
 C   -0.0142302017    0.0418847437    0.0493178255
 N   -0.0337586324   -0.6608272570   -1.0570505122
 O   -0.0054725583   -2.0147609489   -0.6703224004
 C    0.0302674323   -2.0945310423    0.6499480171
 C    0.0270598278   -0.8384352970    1.1754167870
 N    0.0592175514   -0.5162357389    2.5713223370
 O    0.0926282461   -1.4530627060    3.3613790302
 O    0.0511072955    0.6726172032    2.8738904380
 H    0.8500970619    1.9421682789    0.4963373119
 H   -0.0671394554    1.8649751611   -1.0347355950
 H   -0.9046690955    1.9185904316    0.5423379959
 H    0.0552166827   -3.0740187912    1.0994355809