15

 O   -0.0856349070    0.0326840414    0.1456667607
 C    0.0344866884    1.2360968466    0.1785897499
 C    1.2756275741    1.9392946395   -0.0133274067
 C    2.2967956328    2.5637950556   -0.1731480910
 C    3.5449326558    3.2930112266   -0.3576214710
 N    3.3543747328    4.7398138793   -0.2685761957
 C    3.4178296365    5.3086972770    1.0749197438
 C    4.5393402099    5.5030341689    0.1152943426
 H   -0.8343149888    1.8997528995    0.3655389275
 H    4.2823771663    2.9139885426    0.3753969818
 H    3.9499868244    3.0611570388   -1.3512103912
 H    2.7157315555    6.1116273537    1.2767280783
 H    3.5884649600    4.6309398265    1.9097058874
 H    5.4608618062    4.9563536514    0.3099562854
 H    4.6725119931    6.4496050025   -0.3994636520