20

 O   -0.2895378186    1.3543253970   -0.1742310102
 N   -0.0814116826   -0.0275562596    0.0100422204
 C   -1.1788480683   -0.6726465817   -0.0067315093
 C   -2.5868154325   -0.1291817128   -0.1345828181
 C   -3.4590467730   -1.1951746035    0.5633933949
 C   -2.7128073296   -2.5220512874    0.3577954073
 C   -2.7400815805   -3.1355377609   -1.0753424386
 C   -1.1962459008   -2.9897871652   -1.1683490441
 C   -1.1965163714   -2.1723939035    0.1637394100
 H    0.6032822753    1.7039258828   -0.0854573402
 H   -2.6707227434    0.8698162953    0.2970503374
 H   -2.8463083284   -0.0331827886   -1.1971813761
 H   -3.5215667872   -0.9703981743    1.6344218892
 H   -4.4830576346   -1.2243056901    0.1777134125
 H   -2.9270945147   -3.2514065116    1.1411129683
 H   -3.1280909133   -4.1541593181   -1.1468974491
 H   -3.2845854558   -2.5188337654   -1.7968855390
 H   -0.6703801374   -3.9415637062   -1.0613779631
 H   -0.7974492671   -2.4734107714   -2.0445880364
 H   -0.4757480562   -2.4999986447    0.9141776644