18

 O    0.1427737868    1.4473520668   -0.0430594596
 C    0.0158908085    0.0594142937   -0.0121233964
 C   -0.4120422638   -0.7358042186    1.1966029115
 C   -0.9665561466   -0.0415998121    2.4194319637
 O   -1.6774103009    1.1719090925    2.1103421481
 C   -2.6368592383    1.1692371027    1.1205150269
 N   -3.4601738584    2.1220762860    1.0208476212
 C   -2.6373158326    0.0157523476    0.1438506923
 C   -1.3031755543   -0.6856434618   -0.0321246604
 H   -0.2648597678    1.8200029338    0.7461525861
 H    0.8014284161   -0.3894111058   -0.6131851038
 H    0.1281872625   -1.6490078317    1.4312342121
 H   -1.6334188213   -0.7168915139    2.9730639703
 H   -0.1716634518    0.2735697883    3.1017066408
 H   -3.3235857045    2.7899155307    1.7824174097
 H   -3.3719350281   -0.7196121381    0.4998069170
 H   -3.0262129973    0.4036620573   -0.8004885141
 H   -1.3504586982   -1.5665397573   -0.6656231154