20

 C   -0.0709023535    1.5922241643    0.0410413239
 C    0.0042663697    0.0568663178    0.0122955100
 C    0.5269519370   -0.5288663460   -1.3374960328
 N    1.9387146651   -0.8622156098   -1.5009705289
 C    3.0013217423    0.0416715508   -1.0877600651
 C    2.7239310057   -1.2037105913   -0.3102015963
 C    2.1016174236   -1.0925486042    1.0517471812
 O    1.9436428117    0.2133128376    1.6151948414
 C    0.7626635555   -0.4912340056    1.2140739689
 H    0.9186218469    2.0503453564   -0.0149965076
 H   -0.6679910272    1.9586766268   -0.8001232557
 H   -0.5406426384    1.9430459603    0.9659163229
 H   -1.0240281671   -0.3137350190    0.1065201924
 H   -0.0112877844   -1.4659663054   -1.5238006188
 H    0.2564537836    0.1531380175   -2.1513026633
 H    3.8577367851    0.0807077352   -1.7562825177
 H    2.7592652351    0.9755473736   -0.5910787870
 H    3.3726233072   -2.0679911130   -0.4359665615
 H    2.4265656612   -1.8469199081    1.7673018140
 H    0.1500990309   -0.8152149978    2.0554650700