16

 C   -0.0309017572    1.4446222815   -0.0067340192
 N   -0.0257926349   -0.0146370375    0.0030005848
 C   -1.1949216885   -0.7169085643   -0.1037296836
 C   -1.2073042076   -2.0800808595   -0.0961933198
 O   -2.4096820222   -2.7286025349   -0.2064019939
 C    0.0326055510   -2.7599650022    0.0260967731
 C    1.1995345005   -2.0654543958    0.1326627808
 C    1.2429299872   -0.6190959439    0.1275943333
 O    2.2473140461    0.0782628320    0.2187302446
 H    0.5786048387    1.8135077777   -0.8351625848
 H   -1.0564982761    1.8006092192   -0.1076177455
 H    0.4100070441    1.8247365920    0.9179431569
 H   -2.1080261099   -0.1434662734   -0.1942550775
 H   -2.2549094393   -3.6773499179   -0.1858271324
 H    0.0429931530   -3.8482284726    0.0340332656
 H    2.1548101450   -2.5662114203    0.2267235878