21

 O   -0.1110041821    1.3331262483    0.0134372155
 C    0.0417477406   -0.0409849540    0.0004241867
 C    0.7070043817   -0.9441833725   -1.0867587408
 C    0.1091922530   -1.9047675962   -0.0181554874
 C    0.6924564242   -0.9663312628    1.0778054117
 C   -1.1628222948   -1.0047238012   -0.0175369277
 C   -2.2627947282   -1.0779971015    1.0706741278
 C   -3.2850215480   -1.4592601273   -0.0365222303
 C   -2.2479893272   -1.0555377561   -1.1217698815
 H    0.7611755653    1.7415367755    0.0214840034
 H    0.2450770803   -0.9497647674   -2.0760176745
 H    1.7989613137   -0.9126754425   -1.1507881103
 H    0.1441418299   -2.9922734566   -0.0290610475
 H    1.7834449379   -0.9363070491    1.1571630997
 H    0.2172565545   -0.9920481741    2.0604339369
 H   -2.1222841845   -1.7994589072    1.8801139708
 H   -2.4669329388   -0.0982016261    1.5134119354
 H   -3.5042309282   -2.5301501890   -0.0489742831
 H   -4.2318195290   -0.9150110999   -0.0373455458
 H   -2.4462517440   -0.0668318320   -1.5470297304
 H   -2.0964893362   -1.7602652180   -1.9438730286