17

 C   -0.0691700163    1.4888926895   -0.0820557626
 C    0.0836509575   -0.0141296287    0.0296718399
 C    1.2383054779   -0.6921722327   -0.8088108089
 N    1.0278238444   -2.1337586205   -0.4696125210
 C    0.3921500917   -2.0152692155    0.6259240693
 C    0.3261165729   -0.6888586262    1.4209104623
 C   -1.1733238317   -1.0152400858    1.5939197033
 C   -1.3065656374   -0.7864053488    0.1285552621
 N   -1.0543838794   -2.2121231405    0.7280791169
 H    0.8890865410    1.9889976648    0.0960893678
 H   -0.4084987019    1.7705450821   -1.0861481414
 H   -0.7949297429    1.8794818732    0.6378249903
 H    1.1409361306   -0.6003839940   -1.8960337462
 H    2.2070068359   -0.2524173535   -0.5219088830
 H    1.0560336669   -0.3328160677    2.1418794642
 H   -1.8743468988   -0.9350253359    2.4124604903
 H   -2.1819858305   -0.6884192398   -0.5017951135