16

 C    0.1103102757    1.5166428025   -0.2874988370
 C    0.0299492284    0.0297007753   -0.0024302444
 C    1.2637008871   -0.8301191349   -0.1192539648
 C    0.6809857453   -0.5212754475    1.2392834072
 N   -1.2019807047   -0.6007260316   -0.4125419017
 C   -2.3888926386   -0.4053595223    0.2270784408
 O   -2.5394951119    0.2349070539    1.2447980901
 H    1.0693995457    1.9242155095    0.0452772214
 H    0.0098974225    1.7185254938   -1.3599408667
 H   -0.6894660925    2.0415718904    0.2420985000
 H    1.1453992800   -1.8391299287   -0.4997865900
 H    2.1874550682   -0.3442349464   -0.4134076472
 H    1.2043403083    0.1777490990    1.8815477674
 H    0.1644198978   -1.3157159456    1.7630568555
 H   -1.2272193241   -1.0573641305   -1.3118205382
 H   -3.2216835871   -0.9223205670   -0.2935342824