15

 C   -0.0543205066    1.5100898333    0.0639542987
 C   -0.0157414085    0.0237079117   -0.0522274564
 C   -0.0635899573   -0.8014250103   -1.1516194525
 C    0.0181814863   -2.1503948767   -0.6858399993
 O   -0.0510281601   -3.3389372965   -1.3875940791
 C    0.1070978001   -2.1026155873    0.6813084261
 O    0.1910770972   -3.0852849020    1.6128806070
 N    0.0806338245   -0.7906825150    1.0665754691
 H    0.8525130934    1.9194239323    0.5290259874
 H   -0.1411856567    1.9542532784   -0.9304945577
 H   -0.9091131659    1.8621304990    0.6565787445
 H   -0.1511569134   -0.4792681687   -2.1783793774
 H    0.6710492941   -3.3635818230   -2.0240462315
 H    0.1600341839   -3.9186585187    1.1275353753
 H    0.1230728690   -0.4819214766    2.0220834760