17

 C    0.1159704012    1.4771849138    0.0346638243
 O    0.9914952731    0.4300337528   -0.3893189962
 C   -0.3354345539    0.0812202869    0.0141736807
 C   -0.4238174165   -0.7426501659    1.2696399883
 O   -1.7942959894   -0.9197382552    1.7076620926
 C   -1.6947336726   -2.3645106267    1.6860320007
 C   -0.2781003994   -2.2609028042    1.1341877591
 C    0.4799983094   -3.0718905040    0.1849674946
 O    0.8231129673   -3.0089253897    1.5819804329
 H    0.3717654128    1.9438616267    0.9847868954
 H   -0.2109761279    2.1581185486   -0.7491673624
 H   -0.9909227203   -0.2430023815   -0.7950058221
 H    0.2148593474   -0.3157548788    2.0543513999
 H   -1.7537255738   -2.8018260552    2.6901459893
 H   -2.4531664207   -2.8209610096    1.0395811299
 H    0.0793785030   -4.0267539372   -0.1521364998
 H    1.1871647003   -2.5896075709   -0.4873154373