16

 O    0.2831088658    0.2799009751    0.9826014338
 C   -0.1287655392   -0.1363741885   -0.3099805919
 C   -1.5230523741   -0.5762065053   -0.3684118893
 C   -2.6813929653   -0.9100300095   -0.3945887611
 C   -4.0637565595   -1.3010737546   -0.4098843398
 C   -4.5085616092   -2.4896024154   -1.2380292309
 N   -4.4863464578   -2.5655121879    0.1978199959
 C   -3.6444895409   -3.4195362011    0.9035887996
 O   -3.4455748723   -4.5710232188    0.6120108919
 H   -0.3256648805    0.9658503395    1.2760898855
 H    0.0303341816    0.6544213801   -1.0604040516
 H    0.5328127006   -0.9661161388   -0.5816463129
 H   -4.7787020286   -0.4921980640   -0.2757304351
 H   -5.4889568098   -2.4631520070   -1.7048148233
 H   -3.7416105618   -3.0411260208   -1.7739444711
 H   -3.2367654590   -2.9349979831    1.8089626402