21

 C    0.0483820599    1.5312167606    0.0999409296
 C   -0.1219131173    0.0197234048   -0.0917606153
 C    0.7050928622   -0.5443694060   -1.2461665933
 C    2.2471680895   -0.5162256663   -1.1468948709
 C    2.4983427704   -1.4844377240    0.0161700105
 O    1.4640168730   -2.4758876103   -0.1647941048
 C    0.7571132299   -2.0812351934   -1.3527433234
 C    1.7099428530   -2.2578618496   -2.5398630305
 O    2.6555590074   -1.1806623826   -2.3520365707
 H    1.0787592286    1.7920199221    0.3638890534
 H   -0.2060422935    2.0790057177   -0.8142219320
 H   -0.5999412229    1.9009280444    0.9001505550
 H    0.1237849664   -0.5085619673    0.8347598658
 H   -1.1787192659   -0.2002328011   -0.2901863728
 H    0.3994662533   -0.0868596594   -2.1930009874
 H    2.7536286773    0.4463552914   -1.0888641942
 H    3.4869579783   -1.9481650976   -0.0661083928
 H    2.3999124485   -1.0201444555    1.0055983625
 H   -0.1814176985   -2.6333490106   -1.4022642345
 H    2.2250444064   -3.2237090809   -2.4998667716
 H    1.2137382742   -2.1518786463   -3.5132982325