15

 O    0.0759573871    1.3953740020    0.0014657299
 C    0.0218866144    0.0313591745    0.0299721174
 C    0.0339454634   -0.8242990868    1.3475203954
 N   -1.4244816818   -0.5050924432    1.5610590624
 C   -1.3206735508   -0.8085316486    0.0905877725
 C   -0.3055381762   -1.9744386532    0.3518196367
 N    0.7345573890   -2.0059276485   -0.6734845965
 C    0.9125422515   -0.6779787865   -0.9849220825
 O    1.5714959083   -0.1452397807   -1.8490140902
 H    0.6630234400    1.6168629288   -0.7390005011
 H    0.7726777764   -0.8131208196    2.1502979607
 H   -1.8806762268   -1.2887949575    2.0411754516
 H   -2.1775613368   -0.7697805399   -0.5844767847
 H   -0.6471682188   -2.9369832472    0.7249216269
 H    0.8415695810   -2.7388217137   -1.3577357785