18

 C   -0.2223055904    1.5564230701   -0.1075576512
 C   -0.0060901079    0.0501983890   -0.0348183480
 C    1.2608798582   -0.5046868422   -0.7239484072
 O    1.7949402867   -0.9835957715    0.5264406441
 C    0.6162162059   -0.5734410579    1.2489062982
 C    0.9442025757    0.3335118548    2.4399042496
 C    1.6245954995   -0.3821464582    3.5118378436
 C    2.1750185820   -0.9898902631    4.3901474000
 H    0.6839538700    2.1131148529    0.1510947152
 H   -0.5067771610    1.8486095373   -1.1239958799
 H   -1.0235683268    1.8829871981    0.5637232646
 H   -0.9210470135   -0.4658090536   -0.3371695205
 H    1.0947788064   -1.3201977860   -1.4390302548
 H    1.9153693078    0.2448904487   -1.1880501992
 H    0.0628854507   -1.4481997674    1.6160146628
 H    1.5653584156    1.1693742878    2.0994915212
 H    0.0077104340    0.7643111459    2.8193861590
 H    2.6704621272   -1.5215731645    5.1639781126