15

 C    0.1169866741    1.5067659954   -0.2212383108
 C   -0.0302318459    0.0430805533    0.1095068215
 O    1.1579334504   -0.7594185683    0.1253001240
 C    0.4389131055   -0.6006602590    1.3475652252
 C    1.1356085900    0.1385129153    2.4800753319
 C    1.9997319244   -0.7378856068    3.2641231674
 C    2.6963217245   -1.4777313551    3.9050019564
 H    0.9584488909    1.9651386925    0.3017355687
 H    0.2815884645    1.6325481396   -1.2963790355
 H   -0.7971241619    2.0500429415    0.0419397906
 H   -0.8703416959   -0.4426884340   -0.3922988543
 H   -0.0826483417   -1.5018424754    1.6745541386
 H    1.7224217457    0.9672209371    2.0725351008
 H    0.3717025038    0.5799123226    3.1347962702
 H    3.3216905315   -2.1245816088    4.4686718152