18

 C   -0.0119928897    1.4536894531   -0.0278080658
 C    0.0342526728   -0.0478294720   -0.0568185307
 C    0.5828620331   -0.9634194737   -1.1788004711
 C    0.0742630169   -1.9253466191   -0.0897998139
 O    0.0098690121   -3.3060421601   -0.0996065611
 C    0.5553385629   -0.9940282426    1.0868268753
 C   -0.8243645336   -1.0544740164    1.7730203451
 C   -1.1516596077   -1.0359371541    0.2655780180
 H    0.9948464976    1.8802947755   -0.0986243809
 H   -0.5984003049    1.8464929064   -0.8658279308
 H   -0.4660435997    1.8203349603    0.8991913911
 H    0.0371353569   -0.9600132666   -2.1288089717
 H    1.6652014802   -0.9298309985   -1.3522569687
 H    0.9067522100   -3.6521495436   -0.1608619471
 H    1.5543461069   -0.9682101930    1.5282608564
 H   -1.0623895212   -1.9764838518    2.3099677389
 H   -1.1270413771   -0.1801516566    2.3577014135
 H   -2.1190190955   -1.0554722273   -0.2398169065