15

 N   -0.4463632659    1.0348920838   -0.5606292279
 C   -0.4521305330   -0.2192460345   -0.4491077427
 O   -0.6026926866   -0.7769152600    0.7789474087
 C   -0.7309124741   -2.1909214062    0.8236633933
 C   -2.1612294484   -2.6043347387    0.5767800387
 O   -2.5773573152   -2.6955087460   -0.7867969396
 C   -2.5167625558   -3.9049796096   -0.0305374070
 C   -1.4988752902   -4.8619529091   -0.4128836115
 N   -0.6975929564   -5.6416736418   -0.7054259979
 H   -0.2996165646    1.2975715236   -1.5330107028
 H   -0.3361633676   -0.9570094814   -1.2527626385
 H   -0.0663189991   -2.6766209574    0.0995650321
 H   -0.4254842171   -2.4906675835    1.8302167060
 H   -2.8978384235   -2.1497883847    1.2389606317
 H   -3.4795817425   -4.3506766345    0.2110706874