18

 C   -0.0172811980    1.5529433644    0.0892669354
 C    1.3717237588    2.1102424582   -0.1047482811
 C    2.2961067082    1.4408068638   -0.7939075518
 C    1.9694218776    0.1723904836   -1.4810453713
 C    1.8781312142   -1.1886921231   -0.8286646609
 C    1.8574242382   -1.2673628633    0.6521013619
 C    0.8068968196   -0.6017060587    1.1270809832
 C   -0.0005397392    0.0153250868   -0.0007089948
 N    0.6603295305   -0.4584705797   -1.2579923775
 H   -0.4135935676    1.8459087938    1.0681377255
 H   -0.7096399768    1.9707244863   -0.6548135697
 H    1.6007056496    3.0802527042    0.3273668654
 H    3.2948795682    1.8439013552   -0.9372919605
 H    2.2598087566    0.1549816011   -2.5325937199
 H    2.1636660275   -2.0591521104   -1.4150085614
 H    2.6088802443   -1.7891242285    1.2312836519
 H    0.5649091222   -0.4467883532    2.1726030560
 H   -1.0338810640   -0.3553849704   -0.0081567104