14

 C   -0.0768609706    1.5118430802   -0.0038087602
 C    1.4310466566    1.8683367886   -0.0200194509
 O    2.1749001822    1.4329932222    1.1133100587
 C    2.2653323524    0.6407550897   -0.0951659718
 C    1.2858017515   -0.4720849022   -0.1069440792
 C    0.0326762410    0.0232146987   -0.0405687849
 O   -0.8382728087   -1.0098277617    0.0760407240
 C   -0.0169411714   -2.1085230734    0.0430130210
 N    1.2508795725   -1.8553466214   -0.0580670642
 H   -0.5634328269    1.8940817529    0.9000359517
 H   -0.5935793665    1.9400409772   -0.8707256477
 H    1.7401192158    2.8187125994   -0.4464326915
 H    3.2443732570    0.5995504507   -0.5591142790
 H   -0.5075084849   -3.0674054708    0.0936828041