20

 C   -0.5274489205    1.4994914964    0.1946939602
 C   -0.1783707104    0.0208120621    0.2118253159
 O   -1.3402602328   -0.7136222010   -0.1267964014
 C   -1.1554819540   -2.1133521670   -0.2077352239
 C   -1.1903150479   -2.7874599240    1.1936291693
 N   -2.5890182947   -3.1250296069    1.3553245842
 C   -3.3293534020   -3.1289917550    0.2032206956
 O   -4.4961433059   -3.4361436722    0.1057946352
 C   -2.3790725933   -2.6997206026   -0.9188983772
 H    0.3515075241    2.1010907048    0.4443499436
 H   -0.8845894027    1.7966895822   -0.7951383995
 H   -1.3153251731    1.7158375373    0.9215344245
 H    0.6258732152   -0.1982175431   -0.5106809511
 H    0.1965959311   -0.2692861093    1.2068393358
 H   -0.2115657820   -2.3359274331   -0.7236463516
 H   -0.5434925707   -3.6766267410    1.2185987739
 H   -0.8463314387   -2.0991576185    1.9719142682
 H   -2.9915075033   -3.4473775196    2.2203865504
 H   -2.8497058294   -1.9723204442   -1.5807398823
 H   -2.1198013993   -3.5849182252   -1.5088136798