13

 C    0.0371029891    1.3961077044    0.0270891995
 O    0.0869943722   -0.0392802196    0.0083784645
 C    0.6038024221   -0.6103836042   -1.0684912907
 N    1.0372080797    0.1120916197   -2.0458110424
 O    1.5648275211   -0.5600450930   -3.1398428616
 N    1.6309411741   -1.9648688704   -3.1954318243
 N    1.2129476054   -2.6426190351   -2.2540539628
 C    0.6493555636   -2.0710328097   -1.0764006618
 N    0.2257254317   -2.7898315589   -0.1204590579
 H    1.0433446985    1.8159686159   -0.0517333977
 H   -0.5701790059    1.7696620707   -0.8015745753
 H   -0.4149508822    1.6528797070    0.9839728605
 H    0.3641629206   -3.7767158068   -0.3575228601