17

 N    0.1786636216    1.3010339923    0.5016638595
 C   -0.0275023239   -0.0432969566    0.0108037280
 C   -1.5051263008   -0.4311880544   -0.1672603450
 O   -2.2112468874    0.7026014854   -0.6518991766
 C   -1.4731912657   -1.4876995273   -1.2699186017
 N   -2.4615992744   -2.2419577426   -1.5281086299
 N   -0.2514557559   -1.3520959200   -1.9174491118
 C    0.5909549370   -0.3978520930   -1.3477348163
 N    1.6740102726    0.0966771944   -1.7802674525
 H    1.1432543961    1.5610101680    0.3115618863
 H   -0.4054409433    1.9327194120   -0.0384820786
 H    0.4105172556   -0.7549718051    0.7260740550
 H   -1.9625492698   -0.8244261382    0.7457311229
 H   -3.0850785972    0.3965328091   -0.9202122347
 H   -2.2988192744   -2.8323161584   -2.3462044112
 H   -0.0393774441   -1.8259548810   -2.7836701779
 H    1.9397558739   -0.2697914246   -2.6954499853