17

 O    0.0364935843   -0.0041295561    0.1117240082
 C    0.0206882213    1.1996802336    0.0331782019
 C   -1.2298485351    2.1067152505    0.1326212739
 O   -0.7699926570    3.4493975128    0.2650535550
 C    0.5079768949    3.5179265801   -0.3775217866
 C    1.5268151662    4.4879824199    0.2389877588
 C    2.8696449883    3.6941929279    0.1734499973
 C    2.4152251779    2.2478679323    0.1858034935
 C    1.1220435681    2.1671245336   -0.1326738417
 H   -1.8369374425    1.9726602713   -0.7786068102
 H   -1.8471896074    1.8451648984    0.9962150401
 H    0.3613599054    3.7178228172   -1.4535161249
 H    1.5756321360    5.4571695786   -0.2618393132
 H    1.2451838891    4.6535071902    1.2835340875
 H    3.4260711355    3.9233420526   -0.7465352131
 H    3.5446361727    3.9255950262    1.0038260623
 H    3.0514812325    1.4182500910    0.4729352810