21

 C   -0.0224169686    1.5697001130   -0.0490874765
 C    0.0516716612    0.0447491882   -0.0215126195
 C   -1.3360753219   -0.5468233476    0.2504719233
 C    0.7105912683   -0.6780754649   -1.1994946620
 C    2.2617222696   -0.7441118370   -1.0994566660
 C    2.9762401643    0.1758673451   -0.1671158112
 C    2.3680941918    0.1593410404    1.0241784549
 C    1.1239154975   -0.6888255349    0.9263208731
 C    1.3932780703   -1.6542854213   -0.2760869711
 H    0.9509998058    2.0233143481   -0.2419327051
 H   -0.7092253969    1.8948684206   -0.8397030668
 H   -0.4037391756    1.9671451064    0.8993347715
 H   -2.0516019596   -0.2463979246   -0.5237978371
 H   -1.3091513038   -1.6404601098    0.2756271372
 H   -1.7234421053   -0.1931740204    1.2130863539
 H    0.2369706323   -0.8655074239   -2.1577498758
 H    2.7498063147   -1.1314561077   -1.9868707512
 H    3.8302951431    0.7782944257   -0.4514866175
 H    2.6110867930    0.7773493631    1.8798300315
 H    0.7185858493   -1.0836748421    1.8580539811
 H    1.4225664806   -2.7371636562   -0.2769047166