21

 C    0.0416317861    1.5395364049    0.0632165982
 C    0.0218780280    0.0292805590    0.0647036936
 C    0.7561533020   -0.8393662600   -1.0174583895
 C    0.5206263235   -1.9346335756    0.0464964106
 C    0.7905205470   -0.8514265862    1.1130484615
 O   -0.9129155364   -2.0737348988    0.0616714176
 C   -1.3464576398   -0.6854122428    0.0419726100
 C   -2.3125075505   -0.4524144654    1.1977126025
 O   -3.3547001434   -1.4087074764    1.1708506137
 H    1.0670982471    1.9202461739    0.0239145074
 H   -0.4964812326    1.9393517825   -0.8040634229
 H   -0.4301316001    1.9480050284    0.9637426348
 H    0.2743706207   -0.9730906242   -1.9894818508
 H    1.8058467253   -0.5624432313   -1.1344760075
 H    0.9850463866   -2.9190409812    0.0341393747
 H    1.8431046395   -0.5702596002    1.1852827263
 H    0.3630925114   -1.0013391726    2.1061567221
 H   -1.8799297020   -0.4995214302   -0.9004616530
 H   -1.7762191810   -0.4731044433    2.1589782710
 H   -2.7810611223    0.5333236729    1.0995840245
 H   -2.9168641990   -2.2636928534    1.0743428452