16

 C   -0.3379441228    1.3614569659    0.0625306401
 N    0.1425123941   -0.0158808433   -0.0156317496
 C    0.0433694263   -0.7636973338    1.2292829919
 C   -1.3456674204   -0.9829462162    1.6743143845
 N   -2.4382401112   -1.1047719456    2.0292987511
 C    0.0254659053   -0.7572313583   -1.1825626458
 N   -0.1896360962   -2.0149257840   -1.1610492241
 C    0.3339385965   -0.0415677754   -2.4886416491
 O    0.1390896961   -0.5695135719   -3.5518042000
 H   -0.2248533461    1.8695013920   -0.8944379952
 H   -1.3977465871    1.4046160004    0.3480815403
 H    0.2455195061    1.9100522663    0.8084965662
 H    0.5229069078   -1.7341760284    1.0899836533
 H    0.5708538000   -0.2110763148    2.0146576269
 H   -0.1461886036   -2.3725142432   -2.1171755211
 H    0.8037759850    0.9590014503   -2.4215845494