17

 C   -0.1139999698    1.4952050909   -0.3454971032
 C   -0.0074976514    0.0403272562   -0.0133619583
 N    0.2405125278   -0.8557192780   -0.9673483776
 N    0.2674051865   -2.0413328623   -0.3261814842
 C    0.0351245132   -1.9361134337    1.0097233244
 C    0.0481290747   -3.1299891677    1.9142645821
 C    1.4578321040   -3.6999800832    2.0191537415
 O    1.7734233470   -4.7974367709    1.6416328128
 C   -0.1413208796   -0.5887678135    1.2494275769
 H    0.6342137028    2.0850695673    0.1951863154
 H    0.0388966729    1.6427865847   -1.4164979883
 H   -1.0978684733    1.8960317367   -0.0782739190
 H    0.4399042490   -2.8807817861   -0.8544929722
 H   -0.2780135258   -2.8173254834    2.9122596134
 H   -0.6180633536   -3.9243746424    1.5628841125
 H    2.2009926450   -2.9957578297    2.4545577362
 H   -0.3485098894   -0.1269763747    2.2020790077