17

 C   -0.0579172510    1.5293590894    0.0389561768
 C    0.0195786132    0.0202052965    0.0668376012
 C   -1.0579872193   -0.7216098999   -0.6975298073
 C   -1.0792175920   -2.2412320089   -0.5191093171
 O   -1.5863878800   -2.9593199906   -1.3555584858
 C   -0.5360258371   -2.7825334267    0.7456807508
 C    0.2388158862   -2.0517094446    1.5566355050
 C    0.6624393624   -0.6763883173    1.2032091862
 O    1.3336455494   -0.5242204162   -0.0682786851
 H    0.7758398991    1.9669083482    0.5932401111
 H   -0.0106737821    1.8943830034   -0.9927611821
 H   -0.9970634265    1.8816932581    0.4777189045
 H   -2.0427591647   -0.3568768682   -0.3735693275
 H   -0.9889768274   -0.5077414919   -1.7688445535
 H   -0.7942286378   -3.8129570435    0.9668829299
 H    0.6076506160   -2.4643139633    2.4917309078
 H    1.0996861817   -0.0808053346    2.0023082050