14

 C   -0.7048009076    0.6085804951    0.8826232766
 C    0.2843587851    0.0170083924   -0.0913462035
 O    1.4449296018    0.3527211096   -0.1519322382
 C   -0.1824514164   -1.0734284442   -1.0337788001
 N   -1.4359193872   -1.7761369058   -0.7610534505
 C   -1.3657307993   -0.9466935018   -1.9650564291
 C   -2.2135901024    0.2206413059   -2.0193423856
 N   -2.8876443976    1.1566920023   -2.0952974502
 H   -0.1735235218    1.2627015313    1.5742307206
 H   -1.4666226466    1.1866689926    0.3481121107
 H   -1.2333783927   -0.1835676100    1.4199736170
 H    0.6558102591   -1.6235876051   -1.4556057540
 H   -1.3722147874   -2.7612657417   -1.0028817855
 H   -1.2466753168   -1.4319668605   -2.9306891784