24

 C   -0.0363322735    1.5638211605    0.0116532745
 C   -0.1335887149    0.0390636092   -0.1007000196
 C    0.7010331372   -0.5209634441   -1.2539486074
 C    2.2365520705   -0.5693516394   -0.9790033340
 C    2.1066982391   -2.0807257920   -0.6474904860
 C    0.7324650325   -2.0801439490   -1.3601836711
 N   -0.3349416659   -2.8186623955   -0.7150784182
 C   -1.4519985145   -3.2251190175   -1.5641315036
 C   -0.4581161053   -4.2250791114   -1.0889948595
 H    0.9963580168    1.8919590790    0.1729675207
 H   -0.3966277481    2.0515740856   -0.9014182111
 H   -0.6357734626    1.9385219169    0.8474130036
 H    0.1775637916   -0.4252992481    0.8424486916
 H   -1.1804110117   -0.2536013739   -0.2417123595
 H    0.4135114568   -0.0134108223   -2.1815534787
 H    2.8300570055   -0.3889017750   -1.8792021261
 H    2.6135497035    0.0800832547   -0.1848727795
 H    2.8739424062   -2.7580031097   -1.0301428782
 H    1.9830403247   -2.2584852238    0.4237690194
 H    0.8518573694   -2.3793263790   -2.4170086498
 H   -2.4374401040   -3.1663516989   -1.1109230815
 H   -1.4176862344   -2.9525290113   -2.6180713289
 H    0.2402301173   -4.6201472574   -1.8254649460
 H   -0.7038756959   -4.9098751876   -0.2824074910