17

 O    0.3268369358    0.8337937442    0.9599752503
 C    0.0453808333   -0.2675410442    0.1000347930
 C   -1.4598942815   -0.4401543945   -0.0595378847
 O   -2.0101842659    0.7138506343   -0.6744438387
 C   -2.2136830896    0.5874259031   -2.0606791151
 C   -0.9842362168    0.3927616056   -2.9573529412
 O   -1.1607809413    0.4161620632   -4.1599429485
 C    0.3866068026    0.2130630315   -2.4208799071
 C    0.8142578702   -0.0768901687   -1.1847870731
 H   -0.1436164524    1.5867607169    0.5785256058
 H    0.4449648739   -1.1493869625    0.6172373971
 H   -1.7018673637   -1.3489473660   -0.6283881244
 H   -1.9064908506   -0.5224485454    0.9365903438
 H   -2.9033014340   -0.2420807437   -2.2849768073
 H   -2.7018224858    1.5079115956   -2.3941573175
 H    1.1255032810    0.3149750322   -3.2123310161
 H    1.8909502248   -0.1467874616   -1.0411376863