15

 C   -0.0906610736    1.5016811762    0.0164009807
 C    0.0243128321    0.0164731745   -0.0062220182
 C    0.8989211136   -0.9856525925   -0.8121572395
 C   -0.1825314023   -2.0014929537   -0.8078011886
 N    0.8334692817   -2.0013698479    0.2989305353
 C   -0.0490555929   -1.0259975150    1.0673439072
 C   -1.1182024210   -1.0476909616   -0.0219090849
 C   -2.5134221644   -0.8484475627    0.0394039597
 N   -3.6593293028   -0.6781477637    0.0862606401
 H    0.8516279444    1.9615333436    0.3339695689
 H   -0.3471260775    1.8961682894   -0.9723377329
 H   -0.8725836234    1.8156238346    0.7150373667
 H    1.7722373381   -0.8640757675   -1.4408848699
 H   -0.3791845957   -2.8647331199   -1.4305371754
 H   -0.1506033063   -0.9817645839    2.1444496008