23

 C   -0.1697822301    1.5815890553   -0.1595676065
 O   -0.0607979043    0.1980126047    0.0731814931
 C   -1.2909590069   -0.5190115644    0.0204842299
 C   -1.7269747968   -0.7628478219   -1.4297616679
 C   -1.1219888209   -1.8347045889    0.7803101767
 C    0.1434999995   -2.7314856575    0.5378720326
 C    0.3550188512   -2.7978602387    2.0580535294
 C    0.5810545928   -1.4226440996    2.6136991943
 C   -0.8264355148   -1.8504679726    2.2885394394
 H    0.8245588596    2.0121486591   -0.0149837275
 H   -0.5024486250    1.8167621256   -1.1813228566
 H   -0.8674940268    2.0588400448    0.5466024535
 H   -2.0676934024    0.0752009739    0.5339163390
 H   -2.6967204866   -1.2699003100   -1.4594853054
 H   -1.8270582798    0.1738974747   -1.9851602112
 H   -0.9928145422   -1.3888852134   -1.9467479711
 H   -2.0213519660   -2.4300873317    0.5908901882
 H   -0.1019786454   -3.6917869777    0.0794483421
 H    0.9568011858   -2.2662124980   -0.0256071875
 H    0.6179520751   -3.6918861167    2.6099890760
 H    0.8015744850   -1.3892049840    3.6765659611
 H    1.0758461695   -0.6626058491    2.0209011718
 H   -1.5906034904   -1.8979782540    3.0563897965