21

 C    0.0392419366    1.5170614694    0.0552440311
 C   -0.0370701140    0.0080685262   -0.0679808953
 C    0.7906838572   -0.6046154285   -1.2021781039
 C    0.1601521744   -1.9891225021   -1.5137531381
 C   -1.1533652588   -2.0857200961   -0.6993238501
 C   -1.0194814387   -2.6741234333    0.7443539796
 C   -1.0151184756   -1.2437505324    1.3120815509
 O    0.2864441509   -0.6267254720    1.2153054541
 C   -1.4215629555   -0.6779920750   -0.0712476926
 H    1.0680800318    1.8300663503    0.2630045044
 H   -0.2863279137    2.0020937405   -0.8713167599
 H   -0.5923143766    1.8711179342    0.8750033635
 H    0.7432686361    0.0476713561   -2.0814074097
 H    1.8415248541   -0.6700703592   -0.9048923171
 H   -0.0415835979   -2.0823933221   -2.5851708778
 H    0.8338516021   -2.8106200387   -1.2526470072
 H   -1.9683029057   -2.5227420587   -1.2783615320
 H   -1.9169368191   -3.2252105653    1.0435945322
 H   -0.1350427686   -3.2790926144    0.9639470654
 H   -1.5003462487   -1.0380441902    2.2696603708
 H   -2.3257319902   -0.1173500487   -0.3011268983