16

 C   -0.3124434401   -1.0768288538   -0.5996627753
 C   -0.1731654664    0.0702749759   -0.2649308161
 C    0.0239464976    1.4422907420    0.1489782716
 C    0.0854678172    1.7859351160    1.6796100264
 C    1.2670517558    2.7593325088    1.3991660995
 C    1.4313650699    2.0747958618    0.0422378546
 C    2.6255041823    1.5015026532   -0.5726968743
 O    1.9630369376    2.6567256777   -1.1225080148
 H   -0.4465889492   -2.0870414200   -0.8977456339
 H   -0.6945057849    2.1006516804   -0.3529702789
 H   -0.8214917110    2.2100706331    2.1111052287
 H    0.3922044999    0.9177299279    2.2649657373
 H    0.9344160544    3.7949294298    1.2820698391
 H    2.1177800316    2.7346918353    2.0828193584
 H    3.6040224691    1.6930372381   -0.1343852708
 H    2.5388939362    0.5918418839   -1.1637640515