21

 C   -0.0870121478    1.5736347822   -0.0369318768
 C    0.0296611315    0.0452522478   -0.0296503532
 C    0.6774486683   -0.4875379908   -1.3213907286
 C    1.0160518944   -1.9531150887   -1.2510432522
 C    1.2305268401   -2.6103358270   -0.1110890161
 C    1.1901087509   -1.9474272582    1.2321407778
 O    2.5257622349   -1.5646785855    1.6912897515
 C    2.2426679495   -0.1690614719    1.4671085725
 C    0.7456296357   -0.4648244264    1.2206874828
 H    0.9021646772    2.0458155788   -0.0488639944
 H   -0.6314224655    1.9247726147   -0.9198369615
 H   -0.6181341323    1.9354112685    0.8498485496
 H   -0.9863518474   -0.3731507247    0.0070996486
 H    0.0082904496   -0.2960346576   -2.1692453755
 H    1.5927384058    0.0823857945   -1.5439041130
 H    1.1060592552   -2.4807536836   -2.1981420548
 H    1.4963882003   -3.6643220219   -0.1287309884
 H    0.7107627548   -2.5920642574    1.9783251252
 H    2.4852007484    0.4439107367    2.3424239298
 H    2.7905401231    0.2252465170    0.5994591507
 H    0.1524054129   -0.2215202966    2.1066452961