17

 C    0.0800523778    1.5559793449    0.1302677085
 C   -0.0077177079    0.0411690263   -0.0000935425
 C    1.0547828209   -0.5903406038   -0.9787185686
 C    1.6769088419   -1.3332159299    0.2102917955
 C    0.6590742296   -0.7357415732    1.1509019231
 N    0.6310086838   -2.1511194547    0.7980748327
 C    0.8804251932   -3.1810351276    1.6856486111
 O    1.7672030242   -3.9943615094    1.5785201840
 H    1.1031704013    1.8759848957    0.3585751348
 H   -0.2222617486    2.0441591285   -0.8017789753
 H   -0.5721097578    1.9244909518    0.9295586376
 H   -1.0381454428   -0.2731149707   -0.1887451142
 H    0.6777536388   -1.2256281446   -1.7829620320
 H    1.7201456446    0.1700383467   -1.3947737284
 H    2.7116308575   -1.5990067543    0.3851505580
 H    0.7715543128   -0.4343641363    2.1870754830
 H    0.1093914608   -3.2269544693    2.4792409325