23

 C    0.2177449894    1.5526299928    0.1966862301
 C    0.0263755905    0.0570940992    0.0240725303
 C    0.9025343125   -0.6709884773   -0.9667060888
 C    1.1241846982   -0.8554298277    0.5149749394
 C   -1.3954663234   -0.4524869068    0.2006690425
 O   -1.7637216393   -0.1861582739    1.5545332180
 C   -2.4009405536    0.1590036708   -0.7535697572
 C   -2.6621296156   -0.4577367107   -2.1011719791
 C   -3.7046426137   -0.5639743290   -1.0166842715
 H    1.2802705603    1.8126161737    0.1705948562
 H   -0.2769720817    2.1213464510   -0.5987648013
 H   -0.1910013574    1.8814860308    1.1565011342
 H    0.4797845348   -1.4990225838   -1.5258852491
 H    1.6240973674   -0.0855324748   -1.5266899118
 H    1.9997060320   -0.3997822315    0.9647534492
 H    0.8394476114   -1.8023315110    0.9611771467
 H   -1.3870679762   -1.5433353800    0.0242463678
 H   -2.7184723344   -0.2968982748    1.6145675869
 H   -2.4666593006    1.2414364413   -0.6967755403
 H   -2.8530134312    0.2025054207   -2.9395839541
 H   -2.1162158118   -1.3577515644   -2.3627058427
 H   -3.8504835179   -1.5372329211   -0.5569301079
 H   -4.6117776497    0.0225469164   -1.1104143775