16

 O    0.1264579324    0.0669941970   -0.7726757675
 C    0.0474174121    1.1175309591   -0.2187856012
 C   -1.0410457440    1.8831389003    0.5457026508
 N   -0.1550192201    3.0823694905    0.5472878407
 C    0.2395976660    3.6119163503    1.8702742096
 C    1.3909888528    2.7314434022    2.3884309684
 C    2.0243571635    2.1488694774    1.1197536627
 O    3.1095518019    1.6503232478    1.0078796384
 C    0.9938855729    2.3238152771   -0.0124423163
 H   -1.9886233642    2.0227690147    0.0156396002
 H   -1.2528948070    1.4512294731    1.5351400022
 H    0.5776634947    4.6464147611    1.7459895802
 H   -0.6277868799    3.6310946918    2.5345011036
 H    2.1382331875    3.2560826663    2.9864833457
 H    1.0278722289    1.8879525939    2.9895649335
 H    1.4700013224    2.7215278674   -0.9135795609