23

 C    0.3524889763    1.5245623104    0.1748864940
 C   -0.0137434835    0.0370061566    0.0777541552
 C    0.5768086167   -0.7605375738    1.2575239589
 C   -1.5284543469   -0.1278197411    0.1179504309
 O   -2.3303136233    0.7583226590   -0.0367601327
 C    0.5275300636   -0.5423361688   -1.2519625149
 C    0.1919920752   -1.9888808790   -1.7294088159
 C    0.1764170515   -1.4503908582   -3.1858519817
 C    0.0023518293   -0.0159578417   -2.6182911932
 H    1.4385253626    1.6533107441    0.1244173698
 H   -0.1046394982    2.0960073820   -0.6359962695
 H    0.0000916396    1.9544036326    1.1171791198
 H    0.2317374102   -0.3653721422    2.2188226966
 H    0.2976435168   -1.8182573035    1.2067186545
 H    1.6698240276   -0.7025326306    1.2441288558
 H   -1.8745450620   -1.1701246464    0.3109143965
 H    1.6186462544   -0.4299240730   -1.2215163567
 H    0.9036189825   -2.7802515085   -1.4820527427
 H   -0.8045946316   -2.3130962818   -1.4172467438
 H    1.1466643236   -1.5780319046   -3.6743470130
 H   -0.6001923661   -1.8277569098   -3.8544817702
 H   -1.0516509866    0.2725844093   -2.5614593171
 H    0.5565789082    0.7953783890   -3.0956542306