21

 C   -0.1487842948    1.5397391463   -0.1352984971
 C    0.0571147787    0.0211139139    0.0339894760
 C    0.6765445032   -0.5497587044   -1.1601886225
 C    1.1863300286   -1.0192781315   -2.1424202169
 C    0.8875612936   -0.3390205820    1.3047727727
 O    2.1545095289    0.3054176106    1.3002436620
 C    0.1216362394   -0.0882360609    2.5860669645
 C   -0.7900622695   -1.1551361071    3.1422289921
 C    0.5085852418   -0.8331808459    3.8367559680
 H    0.8151373462    2.0438202458   -0.2454557257
 H   -0.7368358271    1.7461705559   -1.0324272860
 H   -0.6792056279    1.9673186636    0.7210446067
 H   -0.9270071127   -0.4494216988    0.1646640317
 H    1.6393343272   -1.4363546281   -3.0072292454
 H    1.1164803921   -1.4093811252    1.2460518084
 H    2.0358245783    1.1993424371    1.6364286415
 H   -0.2091719298    0.9389130841    2.7260888263
 H   -1.7190036069   -0.8464662525    3.6083899257
 H   -0.8562005438   -2.0944280282    2.6026042958
 H    1.3188851576   -1.5501592038    3.7597638779
 H    0.4697927371   -0.3057652387    4.7832569942