14

 N    0.0523227787    1.3476026858   -0.1520060779
 C    0.0279151684    0.0917024129    0.0850225679
 N   -1.1959445585   -0.4762166299    0.4104932808
 C   -1.5039511497   -1.7294431969    0.8772000157
 C   -0.6789511773   -2.7093687268    1.2913634779
 C    0.7771656486   -2.6043743699    1.4402195039
 O    1.3793357080   -3.1537829378    2.3348579833
 N    1.5213844518   -1.9064056436    0.4492863632
 C    1.2108563119   -0.8045216580   -0.0916534746
 H    0.9811899751    1.6443019043   -0.4473822641
 H   -1.9547958872    0.1863411132    0.3287136812
 H   -2.5759877018   -1.8867285126    0.9400058095
 H   -1.1242477613   -3.6035998248    1.7098423376
 H    1.9174252633   -0.3965043358   -0.8221894244