20

 C   -0.1861537748    1.4937083601   -0.0148271736
 C    0.0699282005    0.0222224387    0.0318511852
 C    0.8012933202   -0.8466710957   -0.9105644597
 C    1.7379395262   -1.8139689039   -0.1911792267
 C    1.4445625715   -1.5670755215    1.3110830579
 C    0.0640043112   -0.9003765473    1.2859045619
 O   -0.3575237904   -0.2881160104    2.4725324351
 C   -0.9389793147   -1.7799780641    0.4951866126
 N   -0.6850264280   -1.0094080230   -0.7698471967
 H    0.6605161973    2.0539496590    0.3974035212
 H   -0.3431676423    1.8180301170   -1.0478053116
 H   -1.0744231921    1.7553163634    0.5686405574
 H    1.0662340063   -0.4885818089   -1.9002703958
 H    1.5483487867   -2.8519116706   -0.4855221702
 H    2.7797422083   -1.5988321899   -0.4455016656
 H    1.4499886010   -2.4894043592    1.9044872141
 H    2.1714238141   -0.8744925573    1.7500268902
 H   -0.3090976758   -0.9341982374    3.1849443102
 H   -0.7557722544   -2.8599654298    0.4352696000
 H   -1.9711846111   -1.5994679892    0.8046077140