18

 C   -0.0218070710    1.4719518299    0.0320180573
 C    0.0162371771   -0.0290061336   -0.0265166891
 C    0.2576515105   -0.7948082919   -1.3358962953
 C    0.2303147273   -2.2080044317   -0.7195695393
 N    1.2142012209   -2.0562238251    0.3811979761
 C    0.6057253593   -0.8930702292    1.0385617646
 C   -0.9165462632   -0.9115632393    0.8376326422
 C   -1.1388533676   -2.1437008162    0.0161382668
 O   -2.0885539658   -2.8759378104   -0.0657375293
 H    0.9118690261    1.8971849774   -0.3539853103
 H   -0.8451507919    1.8722075159   -0.5695444096
 H   -0.1534919060    1.8301106613    1.0577857760
 H   -0.5337823405   -0.6439291461   -2.0762140554
 H    1.2281057109   -0.5546274291   -1.7800115856
 H    0.3999250956   -3.0666238364   -1.3636974192
 H    1.1685685309   -2.8693000799    0.9942946899
 H    1.0665090567   -0.5058148856    1.9377150210
 H   -1.6338227495   -0.5104396599    1.5386240795