16

 C   -0.0316905481    1.5424170856    0.0409519122
 C   -0.0090790996    0.0014400513   -0.0355326068
 C    0.8008886457   -0.5518458499   -1.2429726321
 C    1.9436736374   -1.3063214373   -0.6175031986
 C    1.9201813192   -1.3105560992    0.7196186831
 C    0.7645670755   -0.5463149197    1.2217577831
 O    0.4521500812   -0.3171031554    2.3610536879
 C   -1.3735968580   -0.5232880968   -0.0275191188
 N   -2.4512770417   -0.9416648939   -0.0376334481
 H    0.9915347235    1.9282109014    0.0032046808
 H   -0.5985458756    1.9657600952   -0.7917731786
 H   -0.4875600454    1.8575154323    0.9818504139
 H    0.1993813963   -1.2067641988   -1.8819494607
 H    1.1634206376    0.2587789470   -1.8858720903
 H    2.6991893828   -1.7887850125   -1.2282569697
 H    2.6301681194   -1.7808812094    1.3868161727