23

 C   -0.0183339841    1.5624796293   -0.1332398631
 C   -0.0150683701    0.0228943701   -0.0264294624
 C   -1.4299899930   -0.5335112198    0.1038702625
 C   -1.6278813604   -2.0329630794    0.4669508338
 C   -2.8308018185   -1.6159640317    1.3547748781
 C   -2.2792226901   -0.1643347103    1.3535765069
 C    0.6855082196   -0.5427435317   -1.2673119028
 C    2.1700610036   -0.8326488492   -1.1411937951
 O    0.0839765772   -0.7301056214   -2.3009137356
 H    0.9958528239    1.9691595694   -0.2030378388
 H   -0.5728317159    1.8800409353   -1.0216718715
 H   -0.4952816673    2.0039097411    0.7466253430
 H    0.5680112994   -0.2579322021    0.8615687361
 H   -1.9793965613   -0.3037990855   -0.8138821708
 H   -1.8082775639   -2.7331271773   -0.3514266411
 H   -0.7961538866   -2.4104230013    1.0728343274
 H   -3.7774484447   -1.6881886740    0.8118948884
 H   -2.9475555737   -2.1131496008    2.3204844251
 H   -1.6444722149    0.0221110881    2.2273218864
 H   -2.9943501387    0.6572487245    1.2645707134
 H    2.7003759711    0.0181224217   -0.6995647456
 H    2.3169872272   -1.6812951798   -0.4619319778
 H    2.5927611211   -1.0738903252   -2.1173185866