18

 O    0.2091578343    1.3042046128    0.4160048589
 C    0.0290030878   -0.0409465602    0.0874394352
 C   -1.4616463492   -0.3792410459   -0.1164053799
 N   -1.6497593652   -1.8213873924   -0.3089375097
 C   -2.0218022402   -2.2759367838   -1.6455101319
 C   -0.6508094821   -2.5318346384   -1.1306786681
 C    0.5667303746   -1.8093997123   -1.7068331838
 C    0.7399050146   -0.3867116613   -1.2080149837
 O    1.3819396033    0.4549643812   -1.7984257120
 H    0.7858301515    1.6619541232   -0.2789440798
 H    0.4169220844   -0.6981741429    0.8841920409
 H   -2.0171574984   -0.0610922026    0.7706204976
 H   -1.8381477130    0.2123216008   -0.9634868487
 H   -2.7558140966   -3.0761822018   -1.6908869705
 H   -2.1277973993   -1.5208885296   -2.4246828043
 H   -0.4378681155   -3.5291381473   -0.7534876465
 H    1.4730971931   -2.3444973661   -1.3942834909
 H    0.5846491660   -1.7999488835   -2.8010851028