18

 C    0.0871140521    1.5388783296    0.0091623185
 C    0.0024482671    0.0102543537    0.0020417149
 C   -1.4401582241   -0.5057278544    0.0129197143
 C   -1.5232356530   -2.0313551175    0.0057888851
 C   -2.9443095049   -2.5662016705    0.0164691885
 O   -3.9268077933   -1.8568779264    0.0298760152
 C   -3.0595805128   -4.0182620489    0.0096025021
 C   -3.1344147203   -5.2197168114    0.0037775605
 H    1.1266361408    1.8809084258    0.0011759498
 H   -0.4118620039    1.9664319858   -0.8674139545
 H   -0.3952797341    1.9572831335    0.8993299531
 H    0.5236991433   -0.3817699216   -0.8816776708
 H    0.5401648795   -0.3908510958    0.8717091353
 H   -1.9687928730   -0.1215416350    0.8930275671
 H   -1.9851872011   -0.1124800863   -0.8530782485
 H   -1.0163228835   -2.4572886381   -0.8719805458
 H   -0.9999438338   -2.4662738444    0.8694394958
 H   -3.2203855351   -6.2792615681   -0.0010716907