20

 C   -0.0794374246    1.4699065777   -0.2395632747
 C    0.0188323483   -0.0281158036    0.0794006239
 C    0.7919267593   -0.3078399648    1.3747955595
 O   -1.2919354851   -0.6322032238    0.1343915899
 C   -2.1906406391   -0.2092230724    1.0398052698
 N   -3.3101082992   -0.7898792299    1.1230898122
 C    0.7283742365   -0.7236311961   -1.0791309895
 C    0.2567970548   -1.9677981535   -1.6955015284
 O    0.0855888079   -0.7006654513   -2.3449837545
 H    0.9211720536    1.8832031480   -0.3992669510
 H   -0.6623825600    1.6112384702   -1.1523545260
 H   -0.5432769226    2.0343763132    0.5737065376
 H    0.3332655388    0.1949493085    2.2305861929
 H    0.8180896727   -1.3820478824    1.5775196053
 H    1.8205403892    0.0557617586    1.2912446527
 H   -1.8618186630    0.6385530882    1.6508193116
 H   -3.8742547913   -0.3471646645    1.8455967113
 H    1.7962357480   -0.4979904301   -1.1139801748
 H    0.9775444577   -2.6355059475   -2.1653876325
 H   -0.6590366119   -2.4232077145   -1.3325141353