19

 C   -0.0402128830    1.5625780716    0.2116929285
 N   -0.0381522940    0.1164021525    0.0273774083
 C    0.7601604861   -0.5438374633    1.0523329484
 C   -1.3800039560   -0.4402753740   -0.0846395576
 C   -1.9276355771   -0.2514996280   -1.5264415439
 N   -1.0772989006   -0.8210960762   -2.5748318088
 C   -3.2821639881   -0.8100764439   -1.6112014008
 N   -4.3426298666   -1.2676328063   -1.6397708771
 H    0.9874509327    1.9369394328    0.1911938233
 H   -0.5871135165    2.0546796083   -0.5971833803
 H   -0.4994588642    1.8701816459    1.1694375097
 H    0.3622183502   -0.4002688435    2.0736167723
 H    0.8090269849   -1.6182353571    0.8534128238
 H    1.7802308697   -0.1477850098    1.0317497906
 H   -1.3306224659   -1.5155642877    0.1145367761
 H   -2.0855629224   -0.0055266064    0.6463044294
 H   -2.0177124117    0.8244704481   -1.7254853509
 H   -0.1217853926   -0.5644402539   -2.3317805450
 H   -1.1204611752   -1.8362890489   -2.5288429162