19

 C   -0.0097462101    1.6562833501    0.0465472461
 C    1.1427142408    0.7638570665   -0.3618714427
 N    2.2920150547    0.7211228108    0.5028796670
 C    3.1861214996   -0.4145117897    0.2895037942
 C    2.7655675687   -1.6229693390    1.1288193923
 O    1.4000788751   -1.9523003236    0.8589361683
 C    0.4822103085   -1.3789537233    1.6971282272
 N   -0.3205595015   -0.4580254867    1.3921187680
 C   -0.1710643114    0.1625946571    0.1008843294
 H    0.0937568497    2.1507036489    1.0066841002
 H   -0.5315749330    2.2262818411   -0.7139995680
 H    1.3417510173    0.6794091364   -1.4350462275
 H    2.8033773331    1.5920760395    0.4339001486
 H    3.2246567545   -0.7181233252   -0.7705688417
 H    4.2034778883   -0.1311697515    0.5841025890
 H    3.3663260870   -2.5006418095    0.8683138606
 H    2.8961753242   -1.4086093194    2.1974913804
 H    0.4495055231   -1.8239475293    2.6951517045
 H   -0.7829694486   -0.2968179232   -0.6706763059