20

 C    0.0877290496    1.5211565702    0.0214109159
 C   -0.0120765772   -0.0095992377   -0.0025598244
 C   -1.4752956805   -0.4807284529    0.0295687831
 C    0.6773116490   -0.6268124423   -1.2370442833
 N    2.1045105528   -0.3089245761   -1.4086071591
 C    1.7155830075   -1.6032880359   -0.8097813763
 C    1.7445059940   -1.6020142753    0.7067438100
 O    2.1197189455   -0.3530580920    1.2909289284
 C    0.7275101029   -0.6505837887    1.1856304686
 H    1.1358303402    1.8249686930   -0.0017725572
 H   -0.4217723163    1.9591658449   -0.8439874597
 H   -0.3772017160    1.9311692899    0.9247089953
 H   -2.0277836766   -0.0912087752   -0.8319703364
 H   -1.5449352137   -1.5740244253    0.0073769893
 H   -1.9805979283   -0.1292939098    0.9352327484
 H    0.0720832362   -0.7856271383   -2.1260697347
 H    2.3623445744   -0.4617430293   -2.3812809509
 H    1.9142392856   -2.5260239984   -1.3437334802
 H    2.0485417454   -2.4923421082    1.2504581620
 H    0.2049193956   -0.7531719026    2.1363434313