20

 C   -0.0678119548    1.5563360638   -0.0478503838
 C   -0.0186973265    0.0435193011    0.0592356702
 O    0.5637208261   -0.4487731102   -1.1740797571
 C    1.1204597646   -1.6810971612   -1.1347091293
 N    1.2846803820   -2.4618708699   -0.1524654311
 C    0.8352779869   -2.0155478412    1.1758216699
 C    1.7207614637   -2.6453075526    2.2503779339
 C    0.7927132557   -0.4789179740    1.2537198962
 O    2.0898372285    0.0988499895    1.2927290545
 H    0.9442836917    1.9656199365   -0.0429774663
 H   -0.5747597034    1.8564646937   -0.9683878573
 H   -0.6152608127    1.9728084297    0.8032111863
 H   -1.0362891569   -0.3653725289    0.1224599572
 H    1.4617886628   -1.9616296975   -2.1304447942
 H   -0.1897132267   -2.3858074239    1.3195433815
 H    2.7450398458   -2.2721990492    2.1763211386
 H    1.3446596243   -2.4083399801    3.2508723263
 H    1.7374598129   -3.7305775977    2.1258562368
 H    0.3005459086   -0.1587952520    2.1786872526
 H    2.6102491172   -0.2916684759    0.5810009552