21

 C    0.0110022751    1.4766064782   -0.0260792928
 C    1.3950611595    0.8786601579   -0.0910314964
 C    0.1839354372   -0.0080950467    0.1369745703
 C    0.4854245530   -0.7662187962   -1.1835424553
 C    1.7193204635    0.1131437649   -1.4038835742
 C    0.6232621716    0.0664450848   -2.4271464705
 C    0.8938838752   -0.6240485165   -3.7811798903
 C    0.2713696644    0.6047611243   -4.5036226913
 C   -0.2016455504    1.1667470055   -3.1328685749
 H   -0.1894052852    1.9983473767    0.9060711194
 H   -0.4858651956    1.9159557891   -0.8797506372
 H    2.1650438362    1.1531739923    0.6185010402
 H   -0.1053701916   -0.5259151650    1.0424862956
 H    0.4133527868   -1.8457021833   -1.2555304607
 H    2.7286834561   -0.1982773835   -1.6485731356
 H    1.9401669429   -0.8453028585   -4.0115398955
 H    0.3125309217   -1.5420005552   -3.9141369390
 H    1.0191461442    1.2383019070   -4.9862550077
 H   -0.5128028359    0.3854896935   -5.2312393464
 H   -1.2794754088    1.0705347390   -2.9701125510
 H    0.0914266501    2.1978967515   -2.9224618367