19

 C   -0.0013547687    1.3504941927   -0.0636087447
 O   -0.0395724977   -0.0766808078   -0.0422904152
 C   -1.2721705228   -0.6007764659   -0.0100552449
 N   -2.4152461209    0.0255773069    0.0032873559
 C   -3.3759393136   -0.9854860835    0.0374177667
 C   -4.8289639101   -0.6405061907    0.0609920956
 C   -2.7803416539   -2.2177702902    0.0438942072
 C   -3.3079666734   -3.6108185775    0.0749987316
 N   -1.4079564091   -1.9521248328    0.0125375851
 H    1.0554192231    1.6189698247   -0.0888033662
 H   -0.5162856301    1.7389533385   -0.9471801568
 H   -0.4804199530    1.7644933315    0.8285062784
 H   -5.1097775575   -0.0566343350   -0.8229705692
 H   -5.4557074731   -1.5359273052    0.0868709046
 H   -5.0747541317   -0.0301062813    0.9373959463
 H   -3.0038916002   -4.1907351939   -0.8062516366
 H   -2.9701352661   -4.1642082878    0.9609870587
 H   -4.3997030568   -3.5977929924    0.0955740199
 H   -0.6562061744   -2.6198829103    0.0082871337