23

 C   -0.2169137274    1.5751471359    0.0027855273
 C   -0.0007256465    0.0600133825    0.0386362684
 C    0.6583528348   -0.4853129072   -1.2323389902
 C    0.8858788344   -2.0048747892   -1.1951239807
 C    1.5349721791   -2.5378609201   -2.4407472011
 C    0.7832349310   -2.9195694616   -3.7063665872
 C    1.6599510699   -3.9262809516   -3.0266923022
 O    3.0263673233   -3.7392099616   -3.4045487442
 C    3.0188120374   -2.4193796193   -2.7964144047
 H    0.7335537965    2.1077792419   -0.1137545973
 H   -0.8606828025    1.8639255232   -0.8355767077
 H   -0.6883837349    1.9340440712    0.9230012703
 H    0.6175385296   -0.2020507980    0.9076563436
 H   -0.9639534180   -0.4452185310    0.1908070940
 H    0.0398643736   -0.2353819792   -2.1046328996
 H    1.6202173551    0.0226905034   -1.3884476605
 H    1.5040935948   -2.2580092695   -0.3222572321
 H   -0.0762605295   -2.5118165984   -1.0441489307
 H   -0.2852645477   -3.0572040569   -3.5658123340
 H    1.0753472140   -2.5308094237   -4.6786301856
 H    1.3565601463   -4.9082553173   -2.6805558685
 H    3.3218215635   -1.6338982935   -3.4994021740
 H    3.6734662529   -2.3998791100   -1.9160465734