22

 C    2.8975777048   -0.6664200263    0.3910782759
 N    1.6056091659   -1.3286778515    0.4924458146
 C    1.4555429463   -2.3725132162    1.4980921265
 C    0.7345479533   -1.0728887038    1.6456634343
 C    1.0790167983   -0.1116987616    2.7566451664
 C    0.7673523358    1.4206819113    2.5810943766
 C   -0.0559422145    1.3859242700    3.8745566409
 C   -1.1892932403    0.4131133188    3.7279583917
 C    0.1903834986   -0.1183526110    4.0137071456
 H    3.4552841206   -0.5873192534    1.3374431024
 H    3.5202945456   -1.2266011907   -0.3142449006
 H    2.7590453692    0.3428353890   -0.0103820555
 H    0.9336780520   -3.2734503254    1.1845773640
 H    2.2909600662   -2.5484798113    2.1768517249
 H   -0.3172649736   -1.0558547979    1.3624039497
 H    2.1238443814   -0.2337382473    3.0511039205
 H    1.6681330558    2.0351302756    2.6411577814
 H    0.2139167335    1.7021374490    1.6785825344
 H   -0.0494611017    2.1482317475    4.6437384751
 H   -1.8749853700    0.3633540536    4.5678907528
 H   -1.6669898381    0.2657422604    2.7623346216
 H    0.3925377309   -0.6983591688    4.9066598467