15

 C    0.2042041525    0.8919067186   -0.3767645735
 O   -0.4492420613   -0.0290327413    0.4833330863
 C    0.4016598120   -0.6334161150    1.3803615493
 C    0.1505587822   -2.0165033122    1.8435092725
 O   -0.4372638305   -2.8091698655    0.7878841833
 C    0.7116503852   -2.6466419763    0.0143136133
 N    1.0251087854   -3.1509386529   -1.0875818387
 C    1.3918077786   -1.7436064949    0.9916393999
 H    0.9734327216    0.3938308984   -0.9807667111
 H   -0.5619699831    1.3055591660   -1.0348578105
 H    0.6704765293    1.7108578157    0.1903965133
 H    0.8206808569    0.0267205192    2.1455672658
 H    0.0201364708   -2.3696119718    2.8576511311
 H    0.2803775096   -3.7517525227   -1.4445371211
 H    2.4466207106   -1.7188585854    1.2228578901