20

 C   -0.3908739380    1.2991020883    0.0545393111
 N    0.0810280083   -0.0754470750    0.0808669778
 C    1.4716842644   -0.3181165744   -0.2837504036
 C    1.0112260295   -0.5334776970    1.1178777539
 C    1.5187891711    0.3392717661    2.2484738134
 C    0.5798048939    0.2986854416    3.4743523480
 O    0.4484737256   -1.0049861285    3.9714271169
 C    1.0896354522    1.2262272708    4.5572485436
 O    1.3503113814    0.8279669638    5.6668522720
 H    0.3647651656    2.0576512734    0.3164907419
 H   -0.7425297389    1.5244218611   -0.9574861429
 H   -1.2414116676    1.4089393964    0.7359443512
 H    1.6592299872   -1.1576641254   -0.9484803150
 H    2.1065583939    0.5507345963   -0.4637575245
 H    0.8093296689   -1.5530802546    1.4380626350
 H    2.5014771552   -0.0322364317    2.5645085851
 H    1.6555509919    1.3755199663    1.9217637827
 H   -0.4068759489    0.6901286678    3.1655994020
 H    0.7356635432   -0.9623031393    4.8973023119
 H    1.2160355111    2.2918683341    4.2751010795