18

 O    0.1645411291   -0.0785015213    0.1225516723
 C    0.0451874238    1.1255031441    0.1127392945
 C   -1.2454361497    1.9385958672   -0.0385009998
 C   -0.8636805559    3.3676170602    0.3533910930
 C   -1.7266456241    4.5604500944   -0.1090062652
 C   -2.0263283066    4.7538293394    1.3892881649
 O   -1.1751468776    3.6446841190    1.7457125730
 C    0.6575073295    3.4254046891    0.0952631025
 N    1.0617246071    2.0393172483    0.2125836331
 H   -1.5645176362    1.8823914237   -1.0858781409
 H   -2.0443782641    1.5371525400    0.5861086924
 H   -1.1690284459    5.3719762451   -0.5816933053
 H   -2.5804419248    4.2999091307   -0.7365865341
 H   -1.6797207345    5.6951564590    1.8313366961
 H   -3.0664127530    4.5828464728    1.6908202018
 H    0.8673801036    3.8366246368   -0.9039586144
 H    1.1389870687    4.0626525348    0.8428859027
 H    2.0212114108    1.7336249568    0.2388435734