21

 C   -0.1807741291    1.7351728390   -0.4916353987
 C   -0.0807696733    0.2629472329   -0.1199522355
 C    0.9939386311   -0.5667905849   -0.8759725440
 C    1.6915172774   -0.6871702209    0.4901398259
 O    0.6730349030    0.1103499644    1.1331990830
 C   -1.4524795547   -0.3731351412   -0.0160847935
 C   -1.6833648504   -1.5980397663    0.8554156975
 C   -2.2447307735   -0.2600113801    1.2650170595
 O   -1.7638246873    0.4408601962    2.3695413993
 H    0.8122257437    2.1880507986   -0.5654204173
 H   -0.6898816528    1.8552259055   -1.4540750991
 H   -0.7548263406    2.2678476719    0.2720251613
 H    0.6301692593   -1.5048412272   -1.2965018355
 H    1.5479522596   -0.0146577034   -1.6370578437
 H    1.7418486933   -1.6986545468    0.9092843159
 H    2.6780216748   -0.2177618971    0.5741477802
 H   -2.0125103097   -0.3175355500   -0.9470382801
 H   -2.3538518821   -2.3743913925    0.5021189328
 H   -0.8369098725   -1.9573625000    1.4317264892
 H   -3.3176736227   -0.1193505513    1.1794588732
 H   -0.8007017933    0.3395572431    2.3781826095