20

 C    0.0898643954    1.4365947051    1.6096904030
 C   -0.1537895281    0.6425523023    0.3192056711
 C    0.7459906158   -0.6020899334    0.2252263575
 O    2.1289476175   -0.2938811599    0.2343461452
 C   -1.6129882415    0.2390645427    0.2281308234
 N   -2.5667063350    1.2224096260   -0.2654102318
 C   -2.3564262389   -0.0079247729   -1.0588558112
 C   -1.7244558818    0.1809385489   -2.3947367844
 O   -1.8107664572   -0.6229078049   -3.2894007309
 H    1.1257949256    1.7846303952    1.6685884538
 H   -0.5565165391    2.3178824640    1.6467327952
 H   -0.1182399983    0.8263874043    2.4979724640
 H    0.0855482499    1.2910332004   -0.5301593534
 H    0.4887063924   -1.3077079144    1.0333387801
 H    0.5616818340   -1.1187714741   -0.7225813190
 H    2.3676767213   -0.0132863603    1.1225116380
 H   -1.9434230153   -0.4017810049    1.0478714487
 H   -3.4524157388    1.1689599205    0.2295042762
 H   -3.1106781567   -0.7910782427   -1.0407664511
 H   -1.1677643513    1.1354587381   -2.5106040740