14

 C   -0.2249266505    1.7673002439    0.5682598274
 N    0.0111270280    0.3579291031    0.3498913176
 C   -0.9264339652   -0.4214452074   -0.0046242773
 N   -0.7340661716   -1.7750332384   -0.2217170432
 C    0.4760130587   -2.4341906148   -0.0832954908
 N    0.5392463002   -3.6828260299   -0.3087705528
 C   -2.3070910239   -0.0077548003   -0.2277344109
 N   -3.3958693292    0.3410930500   -0.3993694386
 H    0.4314453156    2.3444184591   -0.0927317838
 H   -1.2616061218    2.0888417321    0.4017333897
 H    0.0597124617    2.0205753114    1.5957179214
 H   -1.5213883135   -2.3415739452   -0.5027163885
 H    1.2833463308   -1.7669859689    0.2212728916
 H    1.4888986906   -4.0203478946   -0.1656432517