16

 C    0.2496243947    1.3874511253   -0.0257362526
 N    0.0452514182   -0.0439452440    0.0606458294
 C   -1.0805641673   -0.6026659687    0.1332016348
 C   -1.2735960180   -2.1141094738    0.2238200408
 N   -2.7135985156   -2.3611665300    0.2911308001
 C   -3.2802394469   -1.2268435912    0.2495034202
 N   -2.4246786797   -0.1021272157    0.1553120085
 C   -2.9381978465    1.1913730356    0.1021845161
 O   -4.1216485300    1.4254071940    0.1330978763
 H    1.3227927980    1.5871043593   -0.0759617621
 H   -0.2097532611    1.8231453148   -0.9241836721
 H   -0.1449512723    1.9211151119    0.8503814373
 H   -0.8386484219   -2.6177727055   -0.6458501239
 H   -0.7732368526   -2.5208768957    1.1088929017
 H   -4.3466277919   -1.0457348987    0.2790994682
 H   -2.1674876572    1.9674068525    0.0301608673