16

 C   -0.0760345359    1.4780863528    0.1580904535
 N    0.0302106785    0.0252264657    0.0038571206
 C    0.6237612774   -0.4287296108   -1.2685562230
 C    0.3800614252   -1.9738842399   -1.2560729770
 O    1.2399078086   -2.8036952318   -1.2549225987
 C   -0.1455089562    0.0797651423   -2.4104978350
 C   -0.7882203367    0.4192399512   -3.3668515858
 C    2.0489449197   -0.1032261820   -1.4089391296
 C    3.2161843698    0.1762116060   -1.4581913454
 H    0.8830705170    2.0059492765    0.0490892554
 H   -0.7733252360    1.8704688725   -0.5859627397
 H   -0.4824668345    1.6880996775    1.1507637140
 H    0.6125485467   -0.3471210779    0.7487431521
 H   -0.7025482965   -2.2050797068   -1.2117148506
 H   -1.3449306221    0.7422016169   -4.2122806160
 H    4.2502200652    0.4122209278   -1.5182602647