15

 O   -0.0240140135   -0.0007442768    0.1981407780
 C   -0.0566217544    1.1839450008    0.0085708443
 C   -1.2736891327    2.0975235390   -0.0594035280
 C   -0.8071043918    3.3568791048   -0.8313416334
 C    0.6891452223    3.4549742629   -0.5713533066
 C    1.5937949727    4.4855049818   -1.0953146274
 O    1.1811950215    4.5177093086    0.2661865036
 C    1.1987800630    2.0786405151   -0.2111833215
 O    2.3414207560    1.7291902631   -0.0919567225
 H   -2.1335066205    1.5864080791   -0.4961317422
 H   -1.5389450272    2.3585782490    0.9738214260
 H   -0.9885888009    3.2272356409   -1.9038428684
 H   -1.3177507992    4.2677160156   -0.5132251532
 H    2.6386269974    4.2289147255   -1.2599486416
 H    1.1793513372    5.2670722906   -1.7311363469