21

 C    0.3343507114    1.4349209715   -0.2430303140
 C   -0.0650692684   -0.0197366703    0.0436307005
 C    0.6676575748   -0.5481113283    1.2834713623
 C   -1.5879056702   -0.1910898811    0.2131070122
 C   -2.3772512922    0.1231853912   -1.0360414551
 N   -2.3748845612   -0.8928392517   -2.0912780146
 C   -3.6442220375   -0.5955275344   -1.3954347217
 C   -4.1899064159   -1.6422722377   -0.5646074079
 N   -4.6492880527   -2.4586947384    0.1130669687
 H    1.4195164692    1.5250987363   -0.3557365594
 H   -0.1205488245    1.8182895013   -1.1620274000
 H    0.0318539031    2.0941661285    0.5798463431
 H    0.2332667954   -0.6344012017   -0.8162520900
 H    0.3921442227    0.0248653443    2.1771339780
 H    0.4245055185   -1.5984301957    1.4733004432
 H    1.7530223481   -0.4703507002    1.1622849707
 H   -1.8020517487   -1.2234783260    0.5082842894
 H   -1.9445175307    0.4524183994    1.0291339449
 H   -2.3633902227    1.1643918776   -1.3541869505
 H   -2.3937660547   -0.4728221116   -3.0167691554
 H   -4.4033605235   -0.0255900631   -1.9245463344