16

 C    0.0108943396    1.4643123047    0.3005502356
 C    0.0551108889   -0.0117744519    0.0480639474
 C   -0.8610625097   -1.0150826832    0.7198508562
 C    0.6207033376   -1.1568308010    0.9420415798
 N    1.2985034882   -1.7170390911   -0.2262526935
 C    0.7597168929   -0.7453484791   -1.0953217635
 O    0.8477671096   -0.5956218249   -2.2786105406
 C    1.3033118777   -0.9235635936    2.2240637172
 O    0.7594345010   -0.4435404631    3.1921696871
 H    0.9598540578    1.9411547486    0.0393418092
 H   -0.7773016790    1.9311961965   -0.2989546971
 H   -0.1987481847    1.6654062814    1.3552514373
 H   -1.4216019224   -0.6212411929    1.5625095047
 H   -1.3663794464   -1.7801636736    0.1380036291
 H    1.3017054778   -2.7067275224   -0.4490705323
 H    2.3803246810   -1.1950585246    2.2238654134