19

 C    0.0153636023    1.5313958883    0.1715168059
 C   -0.0492050121    0.0175934112   -0.0463102090
 C    0.6915271022   -0.4727806046   -1.3199324481
 C    0.1148019471    0.1349465196   -2.6067895917
 O    2.0651616070   -0.0650786439   -1.2910877101
 C    0.6094317906   -1.9400396729   -1.3748760302
 C    0.5592338119   -3.1500858871   -1.3785094431
 C    0.5015263968   -4.5095609803   -1.3950358796
 C    0.4512771748   -5.7160264594   -1.4060056779
 H    1.0494545104    1.8824548158    0.1254066731
 H   -0.5620098927    2.0786679775   -0.5792743814
 H   -0.3933481041    1.7903043654    1.1526114958
 H    0.3990892497   -0.4984882046    0.8118975064
 H   -1.0893988826   -0.3237843828   -0.0963362898
 H    0.2577092394    1.2177617187   -2.5972502481
 H    0.6344786432   -0.2747632147   -3.4750797119
 H   -0.9514949643   -0.0868305877   -2.6942319784
 H    2.5007691856   -0.5497243081   -0.5809055365
 H    0.4055878049   -6.7766444703   -1.4207504554