21

 C   -0.0565784521    1.5144044496    0.0182325898
 C    1.2863709717    0.8204794773   -0.0014947626
 C    2.1837411014    0.8615564597    1.2376219861
 C    1.8729972326   -0.2543550555    2.2529854370
 C    0.3799946183   -0.3760606822    2.4731001153
 C   -0.1804738505   -0.6238952890    3.8053641141
 O   -0.2052733444    0.6926756452    3.2455604095
 C   -0.3885599359   -0.7934369753    1.2322839323
 C    0.0020913739    0.0097766906    0.0013301766
 H   -0.3525011501    1.9900172211    0.9480189871
 H   -0.3896269801    2.0290236421   -0.8766918744
 H    1.8169275779    0.8529749031   -0.9479108159
 H    3.2325908007    0.7849848200    0.9340301712
 H    2.0775001960    1.8297068780    1.7392327938
 H    2.2453640758   -1.2157502950    1.8759494323
 H    2.3803681722   -0.0550501697    3.2017729638
 H   -1.1521108635   -1.1085307342    3.9017772949
 H    0.4857872235   -0.7560788008    4.6575695314
 H   -0.1753170138   -1.8555206366    1.0493012390
 H   -1.4640262265   -0.7106367105    1.4264090907
 H   -0.2638675472   -0.4667357078   -0.9379640023