16

 O   -0.1083023646    0.0843488557   -0.5764552554
 C   -0.0240718221    1.1675037170   -0.1091106982
 O   -1.0893083519    2.0038253742    0.3015670291
 C   -0.1427466100    2.8451694120    1.0138753070
 C    0.3189284827    4.2999969185    1.2450983607
 C    1.4206216844    3.4541922149    2.0589003045
 C    0.2562346367    2.5249632311    2.4671571387
 N    2.1366557475    2.5309020561    1.1102854147
 C    1.0053343608    2.2962140919    0.2043211927
 H    0.6284164626    4.8838677475    0.3759056781
 H   -0.2881197691    4.8952767073    1.9284326915
 H    2.0683571893    3.9393037091    2.7860139887
 H   -0.4264304161    2.9619436041    3.1970528667
 H    0.5183873489    1.4960576264    2.7180419147
 H    2.8952901869    2.9964478856    0.6235192688
 H    1.1117560138    2.8251724786   -0.7515397223