16

 C   -0.1332792969    1.4916544143    0.0900932428
 C   -0.0337850706    0.0086639681   -0.0236001025
 C    0.0037104178   -0.8325728054   -1.1045125122
 N    0.0989537083   -2.1505816475   -0.7151819561
 C    0.1157879527   -2.1204944364    0.5910372541
 N    0.0442010772   -0.8384728409    1.0758600007
 C    0.0343873146   -0.4594622820    2.4709261850
 C   -1.2840671249   -0.0071813135    2.9437283561
 N   -2.3127363494    0.3613807472    3.3170314788
 H    0.7344520042    1.9321660425    0.5977134511
 H   -0.1807992835    1.9277340530   -0.9100943538
 H   -1.0301261719    1.8090373583    0.6348738733
 H   -0.0305701411   -0.5556045096   -2.1476962723
 H    0.1826313332   -2.9724199730    1.2527131571
 H    0.3460278191   -1.3218710459    3.0672842468
 H    0.7612158712    0.3389422708    2.6566023013