19

 C   -0.7484978396    1.2752146918   -0.0099418897
 C    0.0188535182   -0.0376511474    0.0316210072
 C    1.1973546992   -0.2591472740   -0.9717734276
 C    2.1491752675   -0.6354979696    0.2194004566
 C    2.9609045197   -1.9069455728    0.1605646400
 C    0.9978348682   -0.2784785970    1.2027091601
 O    1.7157834918    0.9351418318    1.6010681455
 C    2.7890900375    0.6276139906    0.7910756439
 O    3.8056319297    1.2337803037    0.6760744238
 H   -0.0719170824    2.1265815551    0.1025403174
 H   -1.2789016904    1.3822241362   -0.9618069104
 H   -1.4893396720    1.3266799354    0.7949996148
 H   -0.6757935561   -0.8830308712   -0.0216356747
 H    1.0422310657   -1.0870705769   -1.6670143323
 H    1.5062627676    0.6193385719   -1.5433808709
 H    3.7643218226   -1.8059314795   -0.5766576907
 H    3.4221996277   -2.1362654536    1.1263017592
 H    2.3386319954   -2.7581714203   -0.1336806638
 H    0.7014695498   -0.8553581144    2.0785492918