22

 C    0.0518214625    1.6193332339   -0.1420392673
 C    0.0448033334    0.0888729530   -0.1346320886
 C   -1.3577690635   -0.5071670005    0.0946720615
 C   -1.3881484802   -2.0087485380    0.0691988897
 C   -1.3755850987   -2.8648271132    1.1556726699
 C   -1.3558160859   -2.6014359965    2.6261568281
 N   -1.3780860439   -4.1517767788    0.6639213511
 C   -1.3931279351   -4.1375642449   -0.7083595268
 C   -1.3984708560   -2.8242555503   -1.1052435950
 H    1.0588769069    2.0150313184   -0.3083568940
 H   -0.5956877688    2.0147393599   -0.9330724957
 H   -0.3107149626    2.0232227454    0.8103181239
 H    0.4410918997   -0.2904749396   -1.0845529166
 H    0.7214026866   -0.2848675711    0.6440185715
 H   -1.7477826915   -0.1355838438    1.0510198786
 H   -2.0351832266   -0.1146793937   -0.6756703275
 H   -2.1630096986   -3.1297281883    3.1495045504
 H   -0.4107039266   -2.9072492223    3.0938048649
 H   -1.4838375606   -1.5346994636    2.8227670894
 H   -1.3849235220   -4.9800478146    1.2330781555
 H   -1.4072907717   -5.0547111359   -1.2749792153
 H   -1.4159664465   -2.4709494455   -2.1258121277