17

 O   -0.1148989953    1.3935291606   -0.0329112479
 C    0.0476937740    0.0217194593   -0.0213239008
 C    0.8532801478   -0.7964730057   -1.0202790608
 N   -0.1340951222   -1.9309360720   -0.8516003518
 C    0.3803198814   -2.8858290527    0.1522809508
 C    0.5879672002   -2.0776656163    1.4707926307
 C   -0.2622108159   -0.8398156229    1.2079828020
 C   -1.0314632455   -1.0182833173   -0.0808983980
 H    0.5699299161    1.7854917891    0.5200933137
 H    0.7957139945   -0.3901659038   -2.0342319186
 H    1.8954500454   -1.0471360712   -0.7859970343
 H   -0.3745108291   -3.6657381026    0.2970314883
 H    1.2919215484   -3.3637985743   -0.2168114784
 H    0.2388190974   -2.6258539100    2.3514487786
 H    1.6424183291   -1.8339337086    1.6396456158
 H   -0.7389517420   -0.3014779302    2.0198426913
 H   -2.1019557743   -0.9750291817   -0.2320280707