17

 C    0.2240613353    1.4949273730    0.0607702161
 C   -0.0560417395   -0.0072155331   -0.0324368521
 C    0.6183482510   -0.6597976421   -1.2951958799
 C    1.8553059196   -1.2643091020   -0.7038043588
 C    3.0648104089   -1.8282590836   -0.9029936014
 O    3.6318573116   -2.1476356062    0.2819154981
 N    2.7581182696   -1.7793646824    1.3424168116
 C    1.7324979213   -1.2719315534    0.7117195095
 N    0.5188238638   -0.7564740939    1.1183170599
 H    1.3014364972    1.6911329050    0.0415634346
 H   -0.2386586846    2.0269311647   -0.7769925029
 H   -0.1838074457    1.9142492944    0.9868203274
 H   -1.1378276079   -0.1717344753   -0.0535424414
 H   -0.0367751768   -1.4244826044   -1.7273680023
 H    0.8022576468    0.0888499113   -2.0706589623
 H    3.6576045581   -2.0654267237   -1.7732083309
 H    0.4712458414   -0.3084321884    2.0224884148