18

 C    0.3951741219    1.4626205144   -0.1586957665
 N   -0.2446811837    0.2171926779    0.2719154535
 C    0.4852714733   -0.4538485417    1.3276260383
 C    0.0665357656   -1.9005692968    1.6803276612
 C   -0.9806069892   -2.5948352003    0.8304464952
 O   -0.9836505947   -3.9867176560    1.0806581214
 O    1.4118491800   -2.3800020080    1.2962212473
 C    1.7939214863   -1.1295938543    0.8837293498
 O    2.8179705973   -0.8139748332    0.3695389354
 H    1.3810032199    1.2369908850   -0.5717328663
 H   -0.2114306027    1.9221396207   -0.9430674380
 H    0.5289674157    2.1955433249    0.6554785599
 H   -1.1845464293    0.4190993897    0.5985887593
 H    0.6595175347    0.1636719119    2.2267363419
 H   -0.0918857378   -2.1010418854    2.7424766329
 H   -1.9766476499   -2.2250569298    1.0988848033
 H   -0.8083488452   -2.3588432551   -0.2274530136
 H   -0.1053645823   -4.3137808340    0.8538317351