17

 O   -0.4863361785    0.7428691994    0.7544919591
 C    0.1011438942    1.0211027101   -0.2575869473
 C    1.4453371867    1.7210341740   -0.3095932430
 C    1.4038126916    2.9238520836   -1.2545598296
 C    0.7216460431    4.2739574803   -0.8023130168
 C    2.0019638747    4.5474477992    0.0613954246
 C    2.5880580614    3.9621759704   -1.2705301694
 C    1.5554000571    4.8872668861   -1.9397784149
 O    1.4601907340    5.6622119871   -2.8383240774
 H   -0.3264110140    0.7694352170   -1.2566417148
 H    1.7414052212    1.9610801658    0.7122570575
 H    2.1725149884    0.9993073556   -0.7101045081
 H    1.0972751973    2.5857866724   -2.2502156221
 H   -0.3186106650    4.4414950122   -0.5325650031
 H    2.2324358817    5.5895215201    0.2881507894
 H    2.1177975645    3.9213615731    0.9441366444
 H    3.6297623718    3.7792686735   -1.5252366686