18

 C   -0.1705557243    1.5789301134   -0.0019041949
 C    0.0110302183    0.0677942126    0.0213339522
 C    1.2259859925   -0.6019628862   -0.6748556231
 C    2.1763248518   -0.1830587286    0.5125116735
 C    3.1553797449   -1.3280221616    0.7222558764
 C    2.4138969090   -2.4223903915    0.5399402448
 C    1.0306089043   -1.8750377620    0.2307866388
 C    0.8071681431   -0.6239023820    1.1602058820
 H    0.7554426856    2.1193821264    0.2139436326
 H   -0.5263873596    1.9117897227   -0.9834245183
 H   -0.9158349740    1.8914732146    0.7381580437
 H   -0.9423693622   -0.4272925885   -0.2021757893
 H    1.4811127372   -0.5993625699   -1.7391208503
 H    2.5261763674    0.8438909149    0.6046459349
 H    4.2052590559   -1.2361149861    0.9629592019
 H    2.6930806284   -3.4653976955    0.5911758570
 H    0.1973965035   -2.5509250503    0.0325437362
 H    0.5753134582   -0.6467771723    2.2295433519