17

 O   -0.6160102931    1.3117670735   -1.9908972867
 C   -0.2342446872    1.4281323346   -0.8461713372
 C    1.2543916164    1.7708817170   -0.5809157581
 C    1.6416843032    1.8971514616    0.8171627963
 N    1.8930324926    1.9824526613    1.9427390034
 N   -1.0198233305    1.2907704274    0.2513399632
 C   -2.4007807228    0.9142063306    0.1543141015
 C   -3.3587071579    1.4997755979    1.1552483653
 C   -3.4100370270    1.9387583543   -0.2867536373
 H    1.8535628879    0.9928182731   -1.0638199203
 H    1.4666012139    2.7038781788   -1.1119810048
 H   -0.5919665536    1.3210220827    1.1646974459
 H   -2.5656184080   -0.1105435099   -0.1668162611
 H   -4.1429111044    0.8578272358    1.5390610314
 H   -2.9582887262    2.2016880755    1.8789726121
 H   -3.0364979295    2.9267118879   -0.5266762759
 H   -4.2291706736    1.5995800779   -0.9095901077