21

 C   -0.0350105575    1.6302052003   -0.0881745925
 C   -0.0002036666    0.0996431458   -0.0087514227
 C   -1.4089333026   -0.5080985773    0.1831331030
 C   -1.5177740146   -0.7175279944    1.7215453666
 C   -0.0670649446   -0.8940585577    2.1353517292
 C    0.7491958492   -0.4481713305    1.1859999406
 C    2.1748108485   -0.6103158414    0.7790957858
 C    1.9510239736   -1.0166476478   -0.7029036838
 O    0.7390517054   -0.3905694612   -1.1427367293
 H    0.9713366072    2.0544200284   -0.0230985882
 H   -0.4704920886    1.9383072237   -1.0438886671
 H   -0.6409598935    2.0517731366    0.7207682358
 H   -2.2094809349    0.1145656986   -0.2263133594
 H   -1.4367168803   -1.4763040596   -0.3252770375
 H   -1.9844754636    0.1467812326    2.2148915488
 H   -2.1313539950   -1.5861627345    1.9849032242
 H    0.2301514907   -1.3664425890    3.0653516802
 H    2.7301355121    0.3337698968    0.8366083745
 H    2.7245045179   -1.3651049950    1.3452763815
 H    2.7651517059   -0.6992024859   -1.3628422854
 H    1.8549397312   -2.1093280786   -0.7791613545