20

 C   -0.1264212658    1.5074876250   -0.0389071754
 N    0.1042721308    0.0746259986    0.1013122724
 C    1.3991135803   -0.5258098537   -0.1573916309
 C    2.5729152839    0.3181934527    0.3015192798
 C    3.2837776955   -0.3778596863    1.4457335593
 C    1.9819658396    0.3399348127    1.7051628923
 O    1.8982040800    1.4469673306    2.5373144846
 C    0.7973176989   -0.5047585703    1.2409054991
 C    0.1272997616   -1.5807518111    2.0468310523
 H    0.7017716380    2.1411344643    0.3006410280
 H   -0.3265695229    1.7249562878   -1.0933237811
 H   -1.0182050229    1.7752449025    0.5361749187
 H    1.4532172610   -1.3667196320   -0.8416340846
 H    3.0286326407    1.1433285290   -0.2318893914
 H    3.3483046109   -1.4626665359    1.4755346995
 H    4.1638994631    0.1386585154    1.8200592094
 H    2.0646460387    1.1610947593    3.4417450591
 H   -0.5102974776   -1.1450382023    2.8257024300
 H   -0.5062942590   -2.2000531496    1.4074137918
 H    0.8647401652   -2.2229741266    2.5409364071