12

 C    0.0238115906    1.4610104360    0.0962917784
 N   -0.0808935815    0.0135410065    0.1345893731
 C   -1.2122294620   -0.6448169439   -0.2305827369
 O   -2.2389438198   -0.1219880444   -0.6203119965
 C   -1.1031707062   -2.0995873757   -0.1163773422
 C   -1.0929646776   -3.3064290239   -0.0499577832
 C   -1.0650826529   -4.6689197031    0.0308021590
 N   -1.0331389941   -5.8277087724    0.1023942817
 H    0.8209395884    1.7779633110   -0.5839549582
 H   -0.9289011411    1.8512134166   -0.2616828420
 H    0.2265016594    1.8654596759    1.0932730289
 H    0.7082686769   -0.5323366526    0.4417757378