20

 C   -0.1612795102    1.1406609743   -0.1026216122
 O   -0.0100410977   -0.2601003430   -0.0517311964
 C    0.5938788783   -0.7061799671    1.1394369890
 C    0.6373081724   -2.2351101510    1.1252213684
 C    1.4943788196   -2.7535708861    2.2961540970
 C    1.6624226434   -4.2035554608    2.2495069308
 N    1.8139076828   -5.3477163079    2.2023031762
 O   -0.6426298746   -2.8037651072    1.2873878723
 C   -1.3609434610   -3.0478882530    0.0885221654
 H    0.8099668840    1.6556238568   -0.0384522475
 H   -0.6278278610    1.3833739119   -1.0598667904
 H   -0.8022944021    1.5108088506    0.7121265574
 H    1.6162891491   -0.2981370983    1.2285001586
 H    0.0204500851   -0.3721614255    2.0203113698
 H    1.0865565177   -2.5586015375    0.1745859534
 H    2.4832288950   -2.2833594412    2.2877034799
 H    1.0062429398   -2.4849097429    3.2396400993
 H   -2.2817936520   -3.5590635678    0.3785488218
 H   -1.6031336092   -2.1183864688   -0.4359351622
 H   -0.7923757494   -3.7028600253   -0.5873452606