21

 C    0.3745247312    1.5683017161   -0.0733284564
 C    0.1593530050    0.0728660106    0.0685666001
 C    0.3830858011   -0.7613286373   -1.2133623350
 C    1.1000843437   -2.0424675670   -0.7291005019
 O    0.3779266940   -3.1961143529   -1.1254732458
 C    2.5236341676   -2.1256652739   -1.2788774540
 O    3.0597820748   -3.3697053601   -0.8337254916
 C    1.1122380750   -1.8464010720    0.8100875682
 O    1.1010222582   -0.4460866536    1.0104098543
 H    1.3822888347    1.7744485603   -0.4481002268
 H   -0.3512525430    1.9958868438   -0.7720130681
 H    0.2580705849    2.0667633921    0.8930443605
 H   -0.8587842047   -0.1185462361    0.4478754466
 H   -0.5502255478   -1.0324914835   -1.7102724525
 H    0.9990893362   -0.2088082344   -1.9314182273
 H    0.9938295365   -3.9347034520   -1.0320724449
 H    2.4926426688   -2.0815584721   -2.3770092482
 H    3.1124623246   -1.2746907472   -0.9069028413
 H    3.8847424483   -3.5375892086   -1.2967870302
 H    0.2100703852   -2.3239132781    1.2236829664
 H    1.9963420756   -2.2625242141    1.2978518479