20

 C   -0.2765564038    1.4708009926    0.0281040118
 C   -0.0036262965   -0.0286625846   -0.0339224568
 O   -1.1928179933   -0.7562487045   -0.2652088107
 C    1.2282004974   -0.4104708309   -0.9204410467
 C    2.0696443313   -0.5104320371    0.3649437569
 C    0.7633955265   -0.5864713354    1.1930832310
 O    2.9305566572   -1.6379881716    0.4046135868
 C    3.9776310151   -1.5906066932    1.2496098534
 N    4.7069426847   -2.6074952086    1.4144846525
 H    0.6316946303    2.0380993396    0.2565156966
 H   -0.6563438066    1.8361584780   -0.9344966479
 H   -1.0229762648    1.6885444492    0.7981462734
 H   -1.6416545273   -0.3705001869   -1.0257208842
 H    1.0839014680   -1.4053048477   -1.3472808912
 H    1.5550352929    0.2861868485   -1.6962056318
 H    2.6448241065    0.4009101679    0.5669869823
 H    0.7071133832   -0.0309297824    2.1321138259
 H    0.4839960852   -1.6290753947    1.3591687720
 H    4.1079539704   -0.6100592230    1.7302149950
 H    5.4610296135   -2.3901984651    2.0626626516