18

 C    0.0250852307    1.5957358091    0.0026846410
 C    0.0977828697    0.0757746112    0.0011216155
 C    0.7712160196   -0.7077137718   -1.1254872980
 C    1.2377727421   -1.7672876455   -0.2076011656
 N    2.2447300166   -0.8820237578   -0.8458805802
 C    2.4744117666   -0.2098346559    0.4692962727
 C    1.0863267211   -0.6892516015    0.9562996279
 C    0.7683701029   -0.8946789045    2.3370125788
 C    0.5049696785   -1.0665031854    3.4988518853
 H    0.9880474581    2.0626931354   -0.2190037977
 H   -0.6876091433    1.9415360248   -0.7537791104
 H   -0.3182977244    1.9648549525    0.9750892548
 H   -0.8998601743   -0.3478389084    0.1577984303
 H    0.4764060510   -0.7864019159   -2.1637102202
 H    1.2438235240   -2.8486768797   -0.2337764609
 H    3.2896125646   -0.7249696009    0.9818021616
 H    2.6760431132    0.8652223054    0.4344468133
 H    0.2724293734   -1.2179735110    4.5237768216