17

 O   -0.6107840057    1.3258048474   -0.2711323805
 C   -0.4139534186   -0.0691802615   -0.2351180272
 C   -0.4172646959   -0.6750823688    1.1477626285
 O   -0.5406060984    0.1987340309    2.2267255157
 C   -1.5991997083   -0.8928831545    0.2136909330
 C   -2.9351924180   -0.2612907029    0.5093556870
 O   -3.7712853271   -0.2376992984   -0.6614141126
 C   -3.7209129166    0.8629217826   -1.4380264771
 O   -4.3570009353    0.9643552325   -2.4449000515
 H    0.2469664558    1.7461382822   -0.3954636623
 H    0.2276896465   -0.4618157849   -1.0194807574
 H    0.2246488499   -1.5212410810    1.3732629213
 H   -0.5451937161    1.0913783216    1.8531291287
 H   -1.6724926501   -1.8769378958   -0.2404371786
 H   -3.4840139001   -0.8576061716    1.2417160511
 H   -2.8219141537    0.7477734481    0.9130193165
 H   -3.0406129982    1.6390076441   -1.0431067944