18

 C    0.0235480642    1.6110460708   -0.1640751129
 C    0.0385692896    0.1043994411   -0.0319048426
 C    1.3503918763   -0.6873809660   -0.0663903008
 O    2.5794711314   -0.0189068700   -0.1003184309
 C    0.5764109431   -0.5592821282    1.2009494719
 C    1.0526903992    0.0355973323    2.5189405110
 C    0.3962782088   -1.2226929696    3.1296313745
 O   -0.0635454492   -1.6692508160    1.8301416787
 H    0.9410595115    2.0483709357    0.2387809609
 H   -0.0575133555    1.9164422489   -1.2134836572
 H   -0.8252762117    2.0483752302    0.3724548246
 H   -0.7986881788   -0.4182751830   -0.4895514065
 H    1.3260014509   -1.6575028639   -0.5635095979
 H    2.7152924460    0.3166227647   -0.9930380009
 H    2.1350608977    0.1158138614    2.6229520261
 H    0.5872647303    0.9825139950    2.7998604333
 H    1.0890844884   -1.9416060181    3.5817469995
 H   -0.4405621721   -1.0470258754    3.8142785094