18

 C   -0.1739064752    1.6927007390   -0.0002734733
 C    0.1888863667    0.2236243378   -0.1176366257
 O    1.3685880460    0.0913822341   -0.9667132742
 C    2.1607562897   -0.8037599545   -0.3484283734
 C    3.4131419415   -1.2329391568   -1.0373505662
 O    3.7666363327   -0.8282389290   -2.1135587101
 N    1.8385133232   -1.2537582832    0.7996318282
 C    0.5935493477   -0.5560760353    1.1795195746
 C    0.8376792146    0.2773325092    2.4409153121
 H    0.6241726460    2.2662765137    0.4771231912
 H   -0.3514313712    2.1133538912   -0.9934217136
 H   -1.0889150223    1.8119944947    0.5877890770
 H   -0.6162370491   -0.3125096185   -0.6335847315
 H    3.9859923599   -1.9689784899   -0.4407619919
 H   -0.1664858910   -1.3104315589    1.4091022982
 H    1.6133285860    1.0311721110    2.2784214701
 H   -0.0771337379    0.7831121722    2.7634165429
 H    1.1723819327   -0.3787987468    3.2480350057