15

 C   -0.0963851312    1.5072511068    0.1697443809
 C    0.0160601192   -0.0019693136   -0.0317575356
 C    0.7358734492   -0.3940042085   -1.2854996088
 N    1.2206719412    0.4230496994   -2.1290395364
 C    1.8824128655   -0.0784936315   -3.2806064840
 O    2.3570954382    0.6596351268   -4.0984946748
 N    1.9639740484   -1.4945405813   -3.4325918133
 C    1.4435887753   -2.2090827548   -2.5270031599
 O    0.8067312506   -1.7633743795   -1.4111831143
 H    0.8911560922    1.9711536408    0.2194491296
 H   -0.6357169637    1.9744722329   -0.6571398684
 H   -0.6298953988    1.7195696126    1.0997539147
 H    0.5379288461   -0.4801389879    0.8075096215
 H   -0.9734948354   -0.4766363015   -0.0613045459
 H    1.4558790333   -3.2958291507   -2.5538526753