21

 C    0.0802440122    1.5513183933   -0.0138996485
 C    0.0177652130    0.0246698306    0.1120806129
 C   -1.3967792090   -0.5447536051   -0.0091332844
 O   -2.2384408237   -0.0506196695    1.0235342420
 C   -2.1055225867   -0.4848663261   -1.4184401711
 C   -2.2726758699   -2.0097184284   -1.3569573093
 O   -3.4262423693   -2.6794935956   -1.7232426082
 C   -0.9391030782   -2.6884360742   -1.2513643360
 C   -1.5628680266   -2.0694166272   -0.0166919952
 H    1.1128193529    1.9075620662    0.0449090758
 H   -0.3335762927    1.8942454322   -0.9690790361
 H   -0.4734226315    2.0460251361    0.7921060232
 H    0.6566787852   -0.4266385712   -0.6548836973
 H    0.4237569920   -0.2826491806    1.0833893034
 H   -2.3394138886    0.8986014945    0.8963586872
 H   -3.0642303192    0.0304727385   -1.3329816385
 H   -1.5388708463   -0.0828673096   -2.2661821162
 H   -3.3448145779   -2.9398784973   -2.6473566757
 H   -0.9932423850   -3.7726986978   -1.2638896728
 H   -0.0437587385   -2.2773810525   -1.7122180373
 H   -1.7918874822   -2.6493337564    0.8685129421