17

 C    0.0204190171    1.4493765467    0.1062184813
 N   -0.1289585513    0.0235305747   -0.0932370954
 C    0.5526771006   -0.6495068257   -1.0980916624
 C    1.1571824753    0.0227640687   -2.1718817591
 C    1.7918819879   -0.6949571487   -3.1828592580
 C    1.8502826763   -2.0841779381   -3.1508378777
 C    1.2569544062   -2.7562457673   -2.0812745648
 C    0.6176973126   -2.0545533153   -1.0705761566
 H    1.0683561318    1.7687080874    0.2220271663
 H   -0.4086055191    2.0064018229   -0.7343654553
 H   -0.5295642780    1.7384733226    1.0046324679
 H   -0.2461553209   -0.5099736381    0.7532207145
 H    1.1320165215    1.1044818067   -2.2209320467
 H    2.2506342932   -0.1520615069   -4.0035675252
 H    2.3491490294   -2.6350958602   -3.9399294416
 H    1.2923776978   -3.8401732872   -2.0328439371
 H    0.1545791895   -2.5887391224   -0.2451328200