12

 N   -0.2238574054    1.3198351321    0.0154467801
 C   -0.0348820317    0.0824152084    0.0030594068
 O   -1.1630160582   -0.7239971148    0.0104736378
 C   -0.9863388827   -2.0477548013    0.0017100938
 N    0.1303674001   -2.6938050664   -0.0080996467
 O   -0.2661220679   -4.0645058480   -0.0140987578
 C   -1.6321037503   -4.1713540255   -0.0069925887
 O   -2.2539673689   -5.1904679901   -0.0094193898
 N   -2.0835910391   -2.8530669494    0.0032034215
 H    0.6669265570    1.8135971513    0.0077544774
 H    0.8953958958   -0.4854202543   -0.0134662756
 H   -3.0490002188   -2.5709263419    0.0101981713