25

 C    1.6319087840    1.9041240860   -0.1767958398
 C    0.8287538302    0.6697870640   -0.5642778942
 C    0.1455008280    0.8834362419   -1.9095820504
 C    1.3018940223   -0.7482713733   -0.2733266558
 C    1.4630165081   -1.8355227984   -1.3027978143
 C    2.0628879801   -0.7938184600    1.0616501276
 C    0.8148407715   -0.2093860671    1.7884137155
 C    0.0601385571   -0.1670754964    0.4497432897
 C   -1.4081716128   -0.4918218785    0.3692155746
 H    2.1463309243    1.8096669824    0.7802157704
 H    2.3916347694    2.1214627104   -0.9373376303
 H    0.9781059594    2.7823278761   -0.1123275325
 H    0.8894177113    1.0866387205   -2.6889180650
 H   -0.4472157632    0.0292081863   -2.2400107607
 H   -0.5252800766    1.7495500949   -1.8651241810
 H    2.4684210827   -1.8074158254   -1.7430332919
 H    1.3376611344   -2.8255825553   -0.8483659070
 H    0.7469664582   -1.7570854809   -2.1240664727
 H    2.2747345355   -1.8199374702    1.3748303744
 H    2.9960871160   -0.2237452865    1.1197186685
 H    0.3723069408   -0.9288382829    2.4829757703
 H    0.9363773988    0.7409516024    2.3187905511
 H   -2.0055454238    0.2864770522    0.8619931612
 H   -1.7718409366   -0.5787064825   -0.6572099678
 H   -1.6276349492   -1.4376487596    0.8788138302