19

 C   -0.0755415510   -1.2072646483   -0.1490010511
 C   -0.0632619708   -0.0111101191   -0.0302750027
 C   -0.0161888741    1.4410275140    0.1095640286
 C    1.3981454486    2.0023832269    0.0343164219
 C    2.2793133961    1.9443208591   -1.2647903451
 C    3.0797321173    3.0455053667   -0.4871555556
 C    1.6818748912    3.5472018803    0.0106964132
 C    3.5347152947    2.2387906211    0.7388164844
 C    2.4391771967    1.5571270552    1.0790813909
 H   -0.0968890991   -2.2634944340   -0.2538865514
 H   -0.6346292037    1.9027752351   -0.6708834365
 H   -0.4701405165    1.7308268292    1.0672129571
 H    2.7903079293    1.0042412085   -1.4810300887
 H    1.7628616649    2.3252050548   -2.1527806779
 H    3.7934083405    3.7051472561   -0.9788180291
 H    1.1096415133    4.0781555813   -0.7580916154
 H    1.6461066453    4.0797584535    0.9642431857
 H    4.5186740436    2.2466831403    1.1856735184
 H    2.2686698636    0.8441022391    1.8731396533