23

 C    0.0074570540    1.5771686070   -0.1211105111
 C   -0.0317525816    0.0393905221   -0.0179069830
 C    0.2549192009   -0.6781002470   -1.3780167486
 O    1.5727995324   -1.1193213145   -1.6033651786
 C    2.5790992513   -0.1482836454   -1.8364813607
 C    3.6107027907   -0.1092898697   -0.7063983136
 C    3.1082771019    0.4571804157    0.6381694100
 C    2.0915200139   -0.3996644207    1.3614672248
 C    0.7915873461   -0.5576547816    1.1045436907
 H    0.9722022423    1.9684620653   -0.4477003766
 H   -0.7414142610    1.9201802306   -0.8436097693
 H   -0.2240506732    2.0341084026    0.8457122011
 H   -1.0795565421   -0.2051411425    0.1988576107
 H   -0.3429241858   -1.5942601960   -1.4211138623
 H   -0.0851263244   -0.0246771555   -2.1986075263
 H    3.0914987655   -0.4281476149   -2.7677098377
 H    2.1403035824    0.8456002697   -2.0000324042
 H    3.9915053791   -1.1269141994   -0.5603435038
 H    4.4577843491    0.4997214222   -1.0497343602
 H    3.9769440400    0.5830441289    1.2938699027
 H    2.7179583018    1.4665187651    0.4713628711
 H    2.4935949738   -0.9702924780    2.1971095294
 H    0.2492820229   -1.2495269639    1.7461636851