22

 C   -0.2079658319    1.3165319182    0.0355560944
 O    0.1925995031   -0.0260234404   -0.1024799706
 C    0.7777651500   -0.5702390584    1.0614785360
 C   -0.2077077651   -0.8318029109    2.2308457818
 C    0.4046061663   -2.0153551807    3.0115714784
 C    1.1747122995   -2.8107262185    1.9608558945
 C    2.1573354033   -3.8651234116    2.3967578412
 N    0.3533140118   -3.0159640868    0.7462499248
 C    1.3686493547   -1.9349561366    0.7781061308
 H    0.6311544930    1.9633483517    0.3409229562
 H   -0.5693707054    1.6491549118   -0.9408170652
 H   -1.0185665290    1.4392386354    0.7690040661
 H    1.5942500113    0.0939157701    1.4002823300
 H   -0.3684283474    0.0468086861    2.8599519776
 H   -1.1651114404   -1.1242911824    1.7938075290
 H    1.1083457340   -1.6607980074    3.7751174918
 H   -0.3546047938   -2.6183837002    3.5211522534
 H    1.6461355340   -4.6938473611    2.9009369526
 H    2.7029845924   -4.2785466515    1.5417262961
 H    2.8926014053   -3.4557404361    3.0986084904
 H    0.7358552658   -3.7971722164    0.2177089965
 H    2.2413343385   -2.0149397642    0.1377357241