19

 O    0.1936651163    1.4994564653    0.0104488045
 C    0.1673456750    0.0791822400    0.0098830889
 C   -1.2460780089   -0.5449168838    0.1399143116
 C   -1.2714108448   -1.7649051504   -0.8024768558
 C   -1.4188299966   -3.1916942718   -0.1950390028
 C   -2.7462984074   -3.2438505558   -0.9696009280
 O   -2.5352535878   -1.9235678753   -1.5086234464
 C   -0.0936781548   -1.5244915153   -1.7062076704
 C    0.6931324369   -0.5459820899   -1.2626106769
 H   -0.2996956921    1.7959087157   -0.7628810852
 H    0.7984146563   -0.1967117276    0.8636119851
 H   -1.5202150510   -0.7862902554    1.1695646419
 H   -1.9825685097    0.1728817199   -0.2367556293
 H   -0.6601643107   -3.9064853890   -0.5184915410
 H   -1.4983692362   -3.2217778114    0.8930929287
 H   -2.8078724578   -4.0036507697   -1.7580117237
 H   -3.6561494396   -3.2957105586   -0.3592117872
 H    0.0710747230   -2.1336789427   -2.5886662425
 H    1.6196062299   -0.2099048241   -1.7158957315