18

 C   -0.4550047605    1.4090967312    0.0344709426
 C    0.0506116983   -0.0251705431   -0.0568484230
 C    1.3757862706   -0.2398734783   -0.8686989316
 C    2.0125357008   -0.8383504099    0.4008527802
 O    3.0824195342   -1.3158337446    0.6619287491
 C    0.7596496298   -0.6031551353    1.1901457233
 C    0.7244824828   -0.1427202088    2.6330622420
 C    0.2427589913   -1.5127955606    2.2824040189
 H    0.3348148445    2.0836136442    0.3827721083
 H   -0.7971670760    1.7664180069   -0.9425078674
 H   -1.2968538547    1.4940162785    0.7305163737
 H   -0.7492761324   -0.6825738346   -0.4117261438
 H    1.3220510780   -0.9282653438   -1.7164164004
 H    1.8620674059    0.6830041815   -1.2014530590
 H    1.6821688028   -0.0418956152    3.1327101656
 H   -0.0104744168    0.6125635173    2.8912681868
 H   -0.8254032046   -1.7038840811    2.2988365060
 H    0.8671904759   -2.3622586341    2.5390185288