18

 N   -0.1618960133    1.3358544288    0.0404316676
 C   -0.0438550359    0.0788102250    0.0665334665
 C   -1.2639400230   -0.8146578976   -0.0686016802
 C   -1.1909964914   -2.1066196950    0.7393706222
 C   -0.0322288796   -3.0654975869    0.3882535848
 C    0.6555538253   -2.4008756986    1.5950239614
 C    1.6088170405   -1.2789141792    1.2225631071
 O    1.1950835609   -0.5379065676    0.0673991000
 O   -0.6092269984   -1.8560570936    2.0491510802
 H    0.7632548489    1.7690375948    0.0890824794
 H   -2.1286452285   -0.2194017991    0.2322740091
 H   -1.3974924491   -1.0642711586   -1.1303947838
 H   -2.1832106767   -2.5602338865    0.8231947575
 H   -0.2835343599   -4.1115719873    0.5662954117
 H    0.4437799985   -2.9489645953   -0.5857015833
 H    1.1127999247   -3.0488384820    2.3515498302
 H    1.7203067187   -0.5997599626    2.0786933513
 H    2.5924400882   -1.6823627487    0.9623588486