23

 C   -0.0392419520    1.4706791717   -0.0397923506
 C    0.0297039310   -0.0447336559   -0.0062774393
 C   -1.2027135252   -0.7313883888   -0.5905573761
 C   -1.4379264130   -2.1831141634   -0.1360244681
 C   -1.2182675805   -2.3301275000    1.3726400204
 C    0.2404417227   -2.0268669646    1.7459668945
 C    0.7369863773   -0.6980381983    1.1783988413
 C    1.4011327589   -0.6593045053   -0.1764127046
 O    1.5799389445   -1.8859487557   -0.8290768475
 H    0.8807453216    1.9246114409    0.3426291747
 H   -0.1911687418    1.8393192827   -1.0621984703
 H   -0.8701836223    1.8424141401    0.5718352314
 H   -2.0744920242   -0.1344831944   -0.2893608958
 H   -1.1743603038   -0.6766419388   -1.6882204725
 H   -2.4582102527   -2.4776051259   -0.4067328981
 H   -0.7564802042   -2.8583555688   -0.6621412153
 H   -1.8880460807   -1.6419395713    1.9069673964
 H   -1.4811207792   -3.3424483018    1.6995715895
 H    0.3486814119   -2.0108962150    2.8349739141
 H    0.8774753949   -2.8394114373    1.3786593657
 H    1.1544379491   -0.0126374631    1.9106351747
 H    2.2381507060    0.0295026901   -0.3002130290
 H    1.4408661017   -1.7463244870   -1.7712795555