21

 C    0.0679205179    1.5686699149    0.0975362393
 C    0.0891707324    0.0600254665    0.0068008812
 C   -0.6514941123   -0.7807953696    1.0231466515
 C    0.8570969940   -0.8061690481    0.9941596965
 C    1.5902111026   -1.9153641600    0.2353379917
 C    1.1533202549   -1.7720869724   -1.2140589074
 O   -0.2557446698   -1.9413878523   -1.4294129896
 C    0.2698563899   -0.5994011877   -1.3645791603
 C    0.1281050790    0.2044584928   -2.6292260376
 H    0.9635132051    2.0201897251   -0.3448242219
 H   -0.8050210650    1.9961259264   -0.4092155916
 H    0.0257851162    1.8859215481    1.1439607161
 H   -1.1137177331   -0.2519779158    1.8510426293
 H   -1.1963043195   -1.6453111061    0.6665028890
 H    1.3773610573   -0.3419391199    1.8259307728
 H    2.6741545870   -1.7628400494    0.2993572830
 H    1.3800209716   -2.9183987096    0.6234112412
 H    1.7862574651   -2.1506373402   -2.0155691662
 H   -0.8888085130    0.5992431471   -2.7300303014
 H    0.8195132503    1.0525501426   -2.6437826119
 H    0.3327617096   -0.4266500626   -3.4973116436