19

 O   -0.6394742354    1.4799939557   -0.2995754096
 C   -0.4248804418    0.1111484894   -0.4533187052
 C    0.1445101592   -0.7228370537    0.6775678057
 C   -1.3103699493   -0.8456333495    0.3061624077
 O   -2.1919675686   -0.2364043986    1.2246798803
 C   -1.8486786208   -2.1166003622   -0.2994926901
 C   -2.9520106173   -1.9917392070   -1.3821923924
 C   -1.9347718460   -2.7112086717   -2.2890775856
 O   -0.9297579999   -2.7002109587   -1.2497269415
 H   -1.1821169611    1.5782798996    0.4944199293
 H   -0.1244052730   -0.1383227009   -1.4647429381
 H    0.7988515352   -1.5487755253    0.4230861447
 H    0.3612706856   -0.2156597412    1.6119410803
 H   -3.0003525410   -0.0108364468    0.7469906058
 H   -2.0939188198   -2.8246408435    0.5049388769
 H   -3.8818744522   -2.5261517856   -1.1853898620
 H   -3.1757248435   -0.9648469263   -1.6811941576
 H   -2.2074454029   -3.7343574140   -2.5743911430
 H   -1.6044258873   -2.1680380696   -3.1812660755