21

 C   -0.0674205576    1.4885423575   -0.1761067480
 C    1.3736035617    1.9904204092    0.0911940400
 C    2.1116263802    0.8781547411    0.8946727138
 C    2.1561926920    1.1616594512    2.4108795080
 C    0.8107211080    1.0000888157    3.0767503406
 C   -0.1277117140    0.1855430305    2.5917808205
 C    0.0847046853   -0.6254032369    1.3688354029
 C    0.0043038791   -0.0299142051   -0.0355705243
 C    1.3404606836   -0.4113108018    0.5602911768
 H   -0.7759256271    1.9236238136    0.5361710780
 H   -0.4076810251    1.7675847394   -1.1775549666
 H    1.8876426458    2.1301468242   -0.8658660028
 H    1.3940778611    2.9559293112    0.6070630019
 H    3.1426205055    0.7908344884    0.5375531784
 H    2.8803522431    0.4877785376    2.8935161661
 H    2.5408701211    2.1742047243    2.5818351290
 H    0.6285467111    1.5600896256    3.9903676920
 H   -1.0849322929    0.0866628083    3.0983308888
 H   -0.2753021992   -1.6493034165    1.4344745109
 H   -0.4546419453   -0.6473240561   -0.8001601278
 H    1.8931070137   -1.2752770215    0.2087385416