23

 C   -0.1583118737    1.3766361480    0.0193251598
 O    0.0626860196   -0.0129408278   -0.0337415270
 C    0.6851301209   -0.5668422618    1.1203811169
 C   -0.2689794962   -0.6455369791    2.3149409200
 C    1.2692927455   -1.9312001146    0.6825038560
 C    2.3698995667   -1.7232388511   -0.3686957897
 O    1.8234646319   -2.5189374487    1.8574353083
 C    0.1788519437   -2.8669427744    0.1355073341
 O    0.7987986329   -4.1454168500   -0.0284681659
 H    0.7716677053    1.9261886135    0.2336506248
 H   -0.5279984349    1.6815270806   -0.9632062489
 H   -0.9061105391    1.6582624443    0.7744318888
 H    1.5457452180    0.0614865629    1.4051220466
 H   -1.2117632053   -1.1251826976    2.0357273509
 H    0.1963946219   -1.2195727869    3.1176387610
 H   -0.5013952515    0.3532247229    2.6952463941
 H    3.2108875850   -1.1909534127    0.0845821865
 H    2.7275443581   -2.6880027704   -0.7370942437
 H    1.9936266080   -1.1401891283   -1.2125669236
 H    1.9221651826   -3.4569100767    1.6491375285
 H   -0.6485207787   -2.9361838826    0.8524212331
 H   -0.2107341767   -2.4837138581   -0.8147468996
 H    0.1112249960   -4.8030028314   -0.1606719613