17

 C    1.0256655901    1.2530936940   -0.4005697424
 N    0.8921597264   -0.0616894967   -0.9923515305
 C   -0.2305897634   -0.8098108034   -0.8620270420
 O   -1.2235970996   -0.4645589311   -0.2480984995
 C   -0.1981095756   -2.1872205234   -1.5587461649
 C    1.0202406197   -2.5390954302   -2.2751735364
 C    2.0352894278   -2.8154969034   -2.8637105345
 C    3.2505607875   -3.1745702534   -3.5820949557
 H    1.8547341959    1.2858345536    0.3152861457
 H    1.1949736086    2.0192763750   -1.1655351383
 H    0.0939770857    1.4717767356    0.1228540863
 H    1.6524113042   -0.4541296178   -1.5257927308
 H   -0.4166195508   -2.9247202005   -0.7776863624
 H   -1.0635174457   -2.2046809260   -2.2314067682
 H    3.1658793456   -4.1753224241   -4.0196219949
 H    3.4551750973   -2.4737079640   -4.3987984047
 H    4.1222514065   -3.1774065841   -2.9185947168