16

 O   -0.1681307497    1.5817036877   -0.0540208768
 C    0.0200052601    0.1869762585   -0.1086794067
 C    0.1050384164   -0.6551604804    1.2145119554
 C   -1.4221761881   -0.3239742790    1.4736978249
 O   -1.8606960981    0.9034277043    1.9281312603
 C   -1.2738762056   -0.6714438022   -0.0624624734
 N   -0.3572170487   -1.7854159027    0.3525611783
 C   -0.7195529421   -3.0352478187    0.7971513598
 O   -0.2006660062   -3.6175013646    1.7217382155
 H    0.6914456868    2.0044741785    0.0426680296
 H    0.7359706294   -0.1070004460   -0.8819779008
 H    0.9293004362   -0.7688956594    1.9159660269
 H   -1.9348802698   -1.0994899756    2.0470189379
 H   -1.4204054230    1.5818930233    1.3966089495
 H   -2.0303407463   -0.7977973840   -0.8369843577
 H   -1.4847528414   -3.4953075697    0.1392187373