19

 C   -0.4803728211    0.0575144347    0.8582750624
 C    0.3915884451    0.5771020850   -0.2866770137
 N    0.7720545961   -0.5198009269   -1.1741418816
 C    1.9786508063   -0.8084440313   -1.3179318972
 O    3.1343061768   -0.2040298070   -0.7907859183
 C    3.9630442901   -1.0261141534   -1.6513517987
 C    3.7973510361   -2.4535538084   -1.2722443489
 C    2.7478441871   -1.7823654637   -2.1652710780
 N    2.4370387276   -2.3018495775   -3.4441543615
 H   -1.3524095713   -0.4741337103    0.4668031282
 H    0.0821197192   -0.6354405827    1.4917032400
 H   -0.8280959842    0.8864670566    1.4828534334
 H   -0.1881437355    1.2933182775   -0.8821590929
 H    1.2628856886    1.1114743987    0.1128077514
 H    4.7939382715   -0.5507163514   -2.1527783178
 H    4.4149696560   -3.1579111487   -1.8210912083
 H    3.5727675310   -2.7170981744   -0.2434380790
 H    1.8428218657   -3.1214638501   -3.3657343087
 H    1.9304431151   -1.6161652569   -3.9956038507