12

 O   -0.0646586528   -0.0143789506    0.2372593581
 C   -0.0236601108    1.1612410276   -0.0161560518
 C    1.2460371829    1.9799154144   -0.0235206298
 C    1.4455609983    2.9016461299    1.2280788151
 C    2.6399446817    1.9658046907    1.5523334269
 O    3.4209564638    1.8537170686    2.4528965804
 N    2.4556167788    1.2683956521    0.3736444811
 H   -0.9402444691    1.7388697314   -0.2736206578
 H    1.3222958827    2.5092691939   -0.9826651542
 H    1.7065002391    3.9383965052    1.0138437458
 H    0.6467489844    2.8644474981    1.9713512953
 H    2.7282785511    0.3233741290    0.1428052208