20

 C   -0.1163891551    1.5051362823    0.0140196545
 C   -0.0117088150    0.0046439524    0.0208715942
 C    0.5531007850   -0.7494142488   -1.2005564032
 C    0.7746157367   -2.0422383837   -0.3998411486
 O    1.7986794072   -1.6162732885    0.5510167370
 C    0.7398210910   -0.8707248256    1.1708255250
 C    1.0107064019   -0.3233998739    2.5380083804
 C   -0.3408818137   -1.8618425469    0.7071949344
 N   -1.2717077579   -0.8104436541    0.2244925243
 H    0.8642266009    1.9597012841   -0.1602172563
 H   -0.7916661654    1.8428382779   -0.7798087103
 H   -0.4999997344    1.8892522951    0.9659824909
 H   -0.1897849049   -0.8173037029   -1.9972753352
 H    1.5030685557   -0.3651975512   -1.5771599146
 H    0.9995585858   -2.9828586134   -0.8986468308
 H    1.7970001755    0.4381677390    2.5015711608
 H    0.1097889836    0.1413322062    2.9520128235
 H    1.3335788475   -1.1175573778    3.2174744378
 H   -0.7137916900   -2.7248967793    1.2572479449
 H   -1.7598757644   -0.4463708610    1.0444057912