16

 O    0.3931362753   -0.0894516572   -0.1035658018
 C    0.2295853606    1.0836626601    0.0560754173
 O    1.1172868519    2.0072455290   -0.3451509072
 C    0.8209391722    3.4073808396   -0.0992037275
 C    1.9699520987    4.0703615917    0.6936721939
 C    2.7772293037    4.9007433884   -0.3359629676
 C    1.8679848540    4.9429782547   -1.5377381638
 C    0.8058660603    4.1506108889   -1.4087507114
 H   -0.6611202702    1.5258586072    0.5465065560
 H   -0.1351326673    3.4523793698    0.4369317218
 H    1.5471239933    4.7278532504    1.4583123896
 H    2.5685184888    3.3130401660    1.2033453597
 H    3.0157418437    5.9015564800    0.0405889787
 H    3.7363938133    4.4335657383   -0.5933234400
 H    2.0889674836    5.5470112325   -2.4111326066
 H    0.0320219683    3.9914194507   -2.1502455610