21

 C   -0.1984989119    1.5182736215    0.0932549061
 C    0.2075478631    0.0581928901   -0.1345064322
 C    0.7337975902   -0.5983916220    1.1299057760
 O   -0.2294224532   -0.6658642662    2.2383393970
 C    0.1240063979   -2.0376325579    2.4755030644
 C   -0.3463179043   -2.8417336898    1.3165939673
 O   -1.5149602391   -2.5167663243    0.6294548085
 C    0.9868797244   -2.1055521720    1.2113243396
 C    2.2962468600   -2.7745946778    0.9123618700
 H    0.6519471617    2.1186545626    0.4353382962
 H   -0.5784084732    1.9700922689   -0.8276296010
 H   -0.9813657751    1.5884127172    0.8543129995
 H   -0.6306075492   -0.5236283011   -0.5267289614
 H    1.0057701053    0.0032118631   -0.8869681380
 H    1.6137508708   -0.0486720551    1.4966352972
 H    0.2638280832   -2.3503301671    3.5050591782
 H   -0.2214790929   -3.9178934493    1.4111838584
 H   -1.8214691769   -1.6854347584    1.0172455412
 H    2.4892652070   -2.8028533278   -0.1666972589
 H    3.1335268605   -2.2511146158    1.3886670299
 H    2.3041105117   -3.8085397988    1.2717993220