16

 C    0.0335731720    1.3009495885   -0.2034963185
 O   -0.0339893356   -0.1177931858   -0.1481585956
 C   -1.2844548505   -0.6141205220    0.1296498233
 O   -2.2106177806   -0.3488724513   -0.9572135299
 C   -2.9038888095   -1.4741867731   -1.3163226440
 N   -3.9127625455   -1.5109939625   -2.0708341406
 C   -2.2816485611   -2.6536814259   -0.6442549787
 O   -0.8812356493   -2.7567861458   -0.9576247876
 C   -1.2554706430   -2.1263405725    0.2589558824
 H    1.0850528163    1.5586746641   -0.3388948070
 H   -0.5505032717    1.6934319972   -1.0427027542
 H   -0.3320302869    1.7514341849    0.7307684601
 H   -1.7140276028   -0.1397037291    1.0276139017
 H   -4.1656750058   -0.5722477676   -2.3854037234
 H   -2.8320782113   -3.5769980190   -0.5133393256
 H   -0.9397272748   -2.5970108401    1.1841890177