24

 C   -0.0824912741    1.4027291478    0.1370379362
 C    0.0202581202   -0.1216441875    0.0369043066
 C    0.7219322246   -0.5870954949   -1.2429416495
 C    0.8265329623   -2.1141257387   -1.3954499916
 C    1.4061798933   -2.5101305320   -2.7650538534
 C    1.4195594235   -4.0176189469   -3.0272459723
 N    1.6080214025   -2.6996311262   -0.3067347752
 C    1.1178559246   -3.5996555973    0.5871097451
 O   -0.0156640393   -4.0314793371    0.6065373716
 H    0.9090676946    1.8697234457    0.1325267690
 H   -0.6460914533    1.8202870898   -0.7048356137
 H   -0.5882129414    1.7069483998    1.0585779906
 H    0.5575924179   -0.5117183546    0.9090285649
 H   -0.9830900288   -0.5637217403    0.0785726150
 H    0.1838706311   -0.1957453734   -2.1158494312
 H    1.7308327678   -0.1499738672   -1.2921137031
 H   -0.1701199438   -2.5544440218   -1.2882128264
 H    0.8154759993   -2.0060505605   -3.5393184057
 H    2.4249090860   -2.1054601473   -2.8520885354
 H    0.4088089024   -4.4355408611   -2.9790018206
 H    1.8289332034   -4.2379707148   -4.0177438996
 H    2.0291201828   -4.5450695636   -2.2876643637
 H    2.5738966244   -2.4232615507   -0.2119798367
 H    1.8910544400   -3.9060266070    1.3208989191