21

 C    0.0374402761    1.3401122246    0.2889392651
 O   -0.0263750186    0.0111083484   -0.1818872705
 C   -1.3136474223   -0.5841261392   -0.0616274211
 C   -1.2628714091   -1.9156945117   -0.8221488040
 C   -0.9810671828   -1.7366815752   -2.3158511567
 O   -0.9943401527   -2.9717991330   -3.0166962591
 C   -1.7143215990   -0.7712117611    1.3389754668
 C   -2.0389852844   -0.9367038303    2.4871655038
 C   -2.4344257861   -1.1395347490    3.8735026660
 H    1.0598963328    1.6879772064    0.1243052135
 H   -0.6553494231    1.9972115265   -0.2601953425
 H   -0.1978383157    1.4042081133    1.3598353564
 H   -2.0560951328    0.0740929335   -0.5491962363
 H   -0.4839305564   -2.5378546422   -0.3645153860
 H   -2.2160838638   -2.4371358515   -0.6924002941
 H   -1.7714579054   -1.1301516128   -2.7734550419
 H   -0.0341915733   -1.1993103841   -2.4556097781
 H   -0.2432652401   -3.4892593796   -2.7095347220
 H   -3.0562094012   -2.0353193804    3.9792704955
 H   -1.5590444173   -1.2672609642    4.5196019601
 H   -3.0092766049   -0.2888393984    4.2556043251