13

 O   -0.0306768373    0.0133580977    0.0447886550
 C   -0.0111612830    1.2042491248    0.1090773806
 C   -1.0733638985    2.3158536090    0.0098508114
 N    0.0079777495    3.3436815758   -0.1915079559
 C    0.7799454948    3.3132287081    1.0359936836
 C    1.0888667876    2.2425997673    0.0239899995
 C    2.3219703879    2.1357378236   -0.6700372165
 C    3.3657543737    2.0026606033   -1.2521733826
 H   -1.6768762641    2.1999234251   -0.8939214715
 H   -1.7224381232    2.5058201957    0.8692795443
 H    1.5240949087    4.0996033303    1.1138650021
 H    0.2949526323    3.0400150316    1.9717910009
 H    4.2839421216    1.8877359276   -1.7735572509