18

 C    0.0046417656    1.5699739974    0.1002075809
 C    0.0363457249    0.0412900331    0.0348653960
 C    0.6871774554   -0.4826445163   -1.2472947055
 O    2.0388185454   -0.0789147958   -1.3753683328
 C    0.5659937960   -2.0271470880   -1.3577775564
 N   -0.8392596626   -2.4295754794   -1.4440946384
 C    1.3795493431   -2.5338085052   -2.4842556111
 N    1.9472873714   -2.9817056519   -3.3863245670
 H    1.0088381362    1.9880440282   -0.0105303553
 H   -0.6169562656    1.9840362808   -0.7010781277
 H   -0.4083374788    1.9129808481    1.0531346472
 H    0.5974694609   -0.3602942964    0.8929554553
 H   -0.9728275739   -0.3742272547    0.1072654258
 H    0.1816617038   -0.0480121789   -2.1197211222
 H    2.5052783875   -0.3227375902   -0.5674832704
 H    0.9786948647   -2.4607568162   -0.4370632940
 H   -1.2178096984   -2.1557576407   -2.3470551894
 H   -0.9162864756   -3.4409308340   -1.3984790451