18

 C   -0.0178823862    1.5370084952    0.0401269573
 C    0.0118400933    0.0388622655    0.0017935866
 C    0.0001997261   -0.7720481153   -1.1190862860
 C   -0.0362512018   -0.7776342616   -2.5677598831
 C   -0.0218133520   -2.0483738442   -3.0100869706
 C    0.0270294760   -3.0103404500   -1.8372322137
 N    0.0370933193   -2.0917130326   -0.7103255281
 C    0.0722097236   -2.1517287459    0.6526758863
 C    0.0579811853   -0.8503515529    1.1190743398
 H    0.8648715892    1.9493541435    0.5434963737
 H   -0.0463861066    1.9600276415   -0.9684168706
 H   -0.8960481731    1.9138085450    0.5782781064
 H   -0.0696254066    0.1115383383   -3.1821444149
 H   -0.0408656438   -2.3846068882   -4.0366983314
 H   -0.8445399190   -3.6776154164   -1.8076446366
 H    0.9249410196   -3.6422405155   -1.8523513669
 H    0.1044805511   -3.0909568480    1.1817908884
 H    0.0784895356   -0.5608511584    2.1599077533