17

 C   -0.2507863697    1.4755753397    0.0047733454
 C   -0.0073250505   -0.0022157680   -0.0285655461
 N    0.1019520114   -0.5884238889   -1.1803606490
 N    0.3210084630   -1.9230283767   -1.1426502121
 C    0.4381103476   -2.7123283173   -0.0112607400
 N    0.6457596641   -3.9784682498    0.0323154866
 C    0.2933445292   -1.9158191766    1.2248227751
 C    0.3977034539   -2.6391895241    2.5275834564
 N    0.0838204323   -0.6398802320    1.2009054771
 H    0.5510389750    1.9802519922    0.5539951111
 H   -0.3046295493    1.8763862173   -1.0079519443
 H   -1.1845945957    1.6948074226    0.5331992162
 H    0.4015770553   -2.3510096403   -2.0534311338
 H    0.7229725391   -4.3846306814   -0.9023945869
 H    1.3644169425   -3.1486299035    2.5970840619
 H    0.2741909780   -1.9389652558    3.3536782729
 H   -0.3576371161   -3.4302654175    2.5785734695