17

 C   -0.0352135450    1.5242463237   -0.0351657525
 C   -0.0328261823    0.0226762542    0.0463259305
 C   -1.2957480011   -0.7655667274   -0.2834457462
 O   -1.0535053667   -2.0902377293    0.1792325902
 C   -0.2669616283   -1.9997846950    1.3585468201
 C    0.6357732127   -0.7896802134    1.1205631159
 N    1.2234455053   -0.6776474597   -0.2269885073
 C    1.3667675744   -0.2305254577    2.2242246300
 N    1.9254447965    0.2115139879    3.1350229406
 H    0.9101056569    1.9282568462    0.3323044567
 H   -0.1628698289    1.8497370689   -1.0730822254
 H   -0.8522708568    1.9474073250    0.5577558438
 H   -2.1617754238   -0.3105062785    0.2224393211
 H   -1.5086831066   -0.8243605844   -1.3557546616
 H   -0.8816049709   -1.8338133295    2.2562503429
 H    0.2775010072   -2.9417406926    1.4714731012
 H    1.0511332274   -1.5480603685   -0.7304507700