19

 O   -0.3349130982    0.1739357968    0.3700783171
 C   -0.0441627066    1.3099109254    0.0470264530
 N    1.2038794465    1.8106544648   -0.1182782271
 C    2.4560822422    1.1023640015   -0.0524676594
 C    2.6177123650   -0.1657365857    0.7458244826
 C    2.6424548800   -0.2191897324   -0.7665597636
 C    3.6110155112    2.0691538682   -0.0402641694
 N    3.3632361376    3.4016811971   -0.6107862515
 C    3.6501906812    3.2713785136    0.8303908541
 H   -0.8106068337    2.0874951969   -0.1470632295
 H    1.2980806833    2.7358708474   -0.5210907093
 H    3.5522122393   -0.2874717849    1.2848685799
 H    1.7385295619   -0.5632634003    1.2314237323
 H    1.7712025226   -0.6449961567   -1.2486804023
 H    3.5844215478   -0.3964150478   -1.2757002364
 H    4.5671693622    1.5979647878   -0.2565237167
 H    4.1694560569    3.7451772610   -1.1226201832
 H    2.8089061928    3.4946488705    1.4796853085
 H    4.6154715278    3.6034263669    1.2020192807