19

 C   -0.0202863268    1.5671454238    0.0260909127
 C    0.0492122175    0.0397723914    0.0262196334
 C    0.8096313455   -0.5852478840   -1.1430678609
 C    2.3017829170   -0.8563291634   -0.9876159535
 C    1.2641219246   -1.9730336364   -0.8136815004
 C    1.4689810545   -1.8776896041    0.7182547790
 C    2.6658087263   -0.9330270585    0.5131283593
 O    2.1062626630    0.1042879804    1.3398487748
 C    0.8048675990   -0.5457442970    1.2263493097
 H    0.9840038902    1.9906952057    0.0948196250
 H   -0.4959080492    1.9375301529   -0.8877845106
 H   -0.6032524279    1.9363103153    0.8768075575
 H   -0.9701145611   -0.3733526542    0.0234573685
 H    0.4866392924   -0.3725545025   -2.1573414597
 H    2.9892479745   -0.6804579848   -1.8061951748
 H    1.0864262978   -2.8616569854   -1.4037892567
 H    1.4953956897   -2.7538328937    1.3600675390
 H    3.7028939592   -1.1740823355    0.7535613343
 H    0.2655729339   -0.5243153200    2.1763489334