18

 C   -0.0838250780    1.4627545448   -0.0007917736
 C   -0.0307644148    0.0113059785    0.1010542669
 C    0.0277068880   -1.1884305258    0.1815795743
 C    0.0598730133   -2.6444626121    0.2813334824
 C   -1.3172781747   -3.2564491241    0.0581632380
 N   -1.6755089699   -3.6422576704   -1.2939988994
 C   -1.5454943321   -4.7066648023   -0.2750703791
 C   -0.4228605589   -5.6638996951   -0.4791858830
 O   -0.3835276011   -6.7611685055    0.0187403403
 H    0.8027004314    1.8570051494   -0.5096410874
 H   -0.9622114099    1.7898660511   -0.5680753551
 H   -0.1342101323    1.9319586742    0.9879561557
 H    0.7606548037   -3.0555394144   -0.4531675675
 H    0.4271301549   -2.9436789263    1.2720056263
 H   -2.0934680248   -2.8146660180    0.6811025622
 H   -2.6546587378   -3.4601285222   -1.4937472638
 H   -2.4390084300   -5.1624267736    0.1451385948
 H    0.3851483929   -5.2886954782   -1.1441060720