24

 C    0.0992797583    1.5638333263   -0.2161004202
 C    0.0868983126    0.0395527294   -0.0608674715
 C   -1.3195958955   -0.4738142503   -0.3902848882
 C    1.1634932176   -0.7350845697   -0.8335646112
 C    2.5365438326   -0.4258366381   -0.3998113531
 N    1.7492397512   -1.3715105542    0.4117518265
 C    0.7494548682   -0.5809700233    1.2481969187
 C    1.3766183948    0.3749395229    2.2618427409
 C   -0.1027913360   -1.6013348917    2.0012992600
 H    1.0873971105    2.0032146733   -0.0640975037
 H   -0.2306338598    1.8426872808   -1.2232699415
 H   -0.5873012725    2.0349417830    0.4967835978
 H   -1.6170731620   -0.1187471805   -1.3836913381
 H   -1.3760877653   -1.5643686794   -0.4044571621
 H   -2.0609037015   -0.1033821970    0.3254057843
 H    0.9600663158   -1.3287422425   -1.7213839593
 H    3.3484670346   -0.9175967528   -0.9282232490
 H    2.7946174952    0.5539704076   -0.0110342508
 H    1.9915346484    1.1560317940    1.8119357401
 H    0.5971593664    0.8712948756    2.8499589275
 H    2.0091094662   -0.1904962129    2.9545324849
 H    0.4991381837   -2.0597819418    2.7923760595
 H   -0.9747258374   -1.1299889339    2.4664289164
 H   -0.4442090661   -2.4055866348    1.3478311620