17

 C    0.2523777831    1.1051068200   -0.5349937351
 N   -0.3547817815    0.0450591673    0.2750302621
 C    0.5148399356   -0.5201829863    1.3206970093
 C   -0.2454206570   -0.7764582355    2.5395277265
 C   -0.8823807924   -0.9803082110    3.5372857017
 C    1.1105457752   -1.8691155238    0.7749412566
 O    0.1070280331   -2.6235436890    0.1639433525
 C    2.2315257914   -1.5910440052   -0.1577276082
 N    3.1033734769   -1.3664095421   -0.8826922669
 H    1.1004178404    0.7070899258   -1.0963048390
 H   -0.4877158420    1.4655418936   -1.2539255805
 H    0.6056495706    1.9598089003    0.0626930911
 H   -1.2118991617    0.3737215570    0.7004033180
 H    1.3482143375    0.1584052322    1.5573041906
 H   -1.4383623371   -1.1622714256    4.4241950555
 H    1.5142537204   -2.4439046776    1.6140864239
 H   -0.4526714925   -1.9559360701   -0.2750632681