19

 C    0.1223845412    1.5857204600    0.2006937803
 C   -0.0116054304    0.0681716979    0.0024539193
 C    0.5540112957   -0.7069965808    1.2020348622
 O   -1.3726580946   -0.2913780398   -0.2345533876
 C    0.7911054715   -0.3293601002   -1.2551940968
 O    1.9785128203   -0.1286938141   -1.2991746769
 C    0.0036321347   -0.9725796888   -2.4020965670
 C    0.8133863130   -1.3212201082   -3.5555530109
 C    1.4759145618   -1.6125626652   -4.5135665988
 H    1.1749688233    1.8687249118    0.2688487101
 H   -0.3340019185    2.1235192228   -0.6353197896
 H   -0.3834795338    1.8909445565    1.1237584003
 H    0.0489915798   -0.3958798677    2.1235853865
 H    0.3993219875   -1.7818844076    1.0712670961
 H    1.6239495719   -0.5155271793    1.3078240400
 H   -1.8834534550   -0.0477779379    0.5438871567
 H   -0.5170879499   -1.8483918754   -1.9946201859
 H   -0.8085669803   -0.2855992954   -2.6715054465
 H    2.0655590517   -1.8683504986   -5.3585193715