18

 C    0.4705967487   -2.3945405564   -1.3480076072
 C    0.1029980090   -1.6681680408   -0.0525573641
 O    0.9254338605   -0.5176780778    0.1505705912
 C   -1.3675978119   -1.2967069905   -0.0299605822
 C   -2.3863066772   -2.1801282163    0.6105211448
 N   -2.0702703747   -0.8775292367    1.1786375644
 C   -1.3591735736   -0.8365063899    2.4502003796
 H    1.5422753044   -2.6089851391   -1.3673977552
 H   -0.0803895264   -3.3354584600   -1.4437062950
 H    0.2299363315   -1.7757233059   -2.2213010464
 H    0.3353647759   -2.3187424831    0.7962522358
 H    0.7144581045    0.1190294836   -0.5418447630
 H   -1.6718445099   -0.7288250433   -0.9131268632
 H   -3.3779330325   -2.2960188460    0.1803233182
 H   -2.0117412016   -3.0643156091    1.1280087231
 H   -0.7385469722   -1.7224310629    2.6555087022
 H   -0.7101868443    0.0426032165    2.4708367045
 H   -2.0951216204   -0.7505915122    3.2558852225