19

 O    0.0726068765    1.3653284038    0.3340382610
 C    0.0455117926    0.0566595419   -0.2093099141
 C   -1.3192113660   -0.5586629086   -0.1127875162
 C   -1.8879442900   -1.0494457565    1.1934662584
 C   -1.8418199664   -1.9958133677    0.0297943621
 C   -3.0237589481   -1.6985688666   -0.9060108370
 C   -2.4616043250   -0.2460345436   -1.0890768887
 C   -3.2989344524    0.9716816565   -0.8064701448
 O   -2.8742624024    1.9505827289   -0.2358210102
 H   -0.7947560993    1.7657287493    0.1739127325
 H    0.3772801301    0.0593109966   -1.2626683884
 H    0.7719175887   -0.5431467719    0.3530800226
 H   -1.1427438435   -1.2117614495    1.9653767568
 H   -2.8409600216   -0.6849932489    1.5704553075
 H   -1.2832380219   -2.9235327283    0.0509019262
 H   -3.0168129757   -2.2687925095   -1.8361798026
 H   -4.0151049272   -1.7851191595   -0.4485180322
 H   -2.0890577114   -0.1262133076   -2.1162438391
 H   -4.3483361971    0.9487903614   -1.1749405736