17

 N   -0.0545930046   -1.2016374571   -0.0320794714
 C   -0.0459873141   -0.0459024733   -0.0429070577
 C   -0.0042523747    1.4149675286   -0.0538382937
 C    1.4362567261    1.9741507709    0.0123872340
 C    1.4694638653    3.5259092411   -0.0322974844
 C    2.6082799219    3.9487338564    0.9303681702
 C    2.7972661148    2.7225010596    1.7913571584
 C    2.1701543702    1.6572579131    1.2974692175
 H   -0.5028854982    1.7687899511   -0.9636713616
 H   -0.5864757654    1.7878838470    0.7969385622
 H    1.9863629903    1.5502273089   -0.8395968603
 H    1.5993445054    3.9124426604   -1.0461465239
 H    0.5156549833    3.9155369913    0.3416833484
 H    3.5341034597    4.1847569012    0.3875685265
 H    2.3569403283    4.8449802869    1.5081676769
 H    3.4145405156    2.7248105675    2.6830012216
 H    2.1934510560    0.6567214964    1.7148279475