17

 C   -0.2210987371    1.3990428268    0.0682414292
 N    0.1734938109   -0.0019712461   -0.0798777019
 C    0.7731694644   -0.5612582426    1.0909264040
 C    0.1551440287   -1.6512963719    1.9051490364
 O   -0.6428609377   -2.4879899225    1.0711196487
 C    0.5249068571   -2.9135171639    0.3151736575
 C    1.4282733260   -1.9491234114    1.0856116597
 C    2.7707642450   -2.1913523509    1.4803641167
 N    3.8675508283   -2.3818315108    1.8005288870
 H    0.6707554448    2.0150141226    0.2227953763
 H   -0.6957089202    1.7321193180   -0.8583730475
 H   -0.9172184107    1.5913538965    0.9009286695
 H   -0.6367794865   -0.5625882193   -0.3263472419
 H    1.3579707707    0.1487024187    1.6693266171
 H   -0.0289734865   -1.6694140559    2.9737711338
 H    0.7460295185   -3.9649664550    0.5169711945
 H    0.4199581442   -2.7404371521   -0.7604402390