18

 O   -0.2543835847    1.5081635322   -0.2078890489
 C    0.0700342553    0.1302442480    0.0017476878
 C   -1.1935168005   -0.7840884916    0.1744768053
 C   -1.3993748024   -1.5952713756   -1.1476137821
 C   -0.0618713013   -1.4104646672   -1.7889059469
 C    0.7590840715   -0.5025811052   -1.1701570950
 C    1.9666213115   -0.4231373974   -1.9225058509
 C    1.8269586642   -1.3016573939   -2.9740665156
 N    0.5813596031   -1.9000412684   -2.8889611888
 H   -0.4975374374    1.5992578372   -1.1355378895
 H    0.6628878799    0.1354722745    0.9222231517
 H   -1.0218163881   -1.4822400922    0.9993102723
 H   -2.0597868760   -0.1722742797    0.4366642847
 H   -1.6527963480   -2.6414870356   -0.9407419579
 H   -2.2176566248   -1.1926533423   -1.7596686932
 H    2.8334574594    0.1893366600   -1.7269464006
 H    2.5052575961   -1.5601603614   -3.7718796375
 H    0.2305088323   -2.5912733713   -3.5286246749