23

 C    0.5220821082    1.5154518732    0.0718522237
 C   -0.0401642756    0.0987511103    0.1221190794
 C    0.2548831596   -0.7505624801   -1.1355360752
 C    1.4349453262   -1.6442263903   -0.7076610386
 C    1.5561104957   -2.9476439315   -1.4940562683
 O    2.6640383076   -0.9135293301   -0.7641312744
 C    1.1046698835   -1.8422756248    0.7870397389
 C    2.2662861657   -2.2195411829    1.6906001335
 O    0.5676973738   -0.5974749138    1.2186476967
 H    1.5916761052    1.4827580488   -0.1507722528
 H    0.0127764943    2.1083392940   -0.6958728064
 H    0.3817518790    2.0105791898    1.0369968709
 H   -1.1240709614    0.1447288674    0.3004671449
 H   -0.6078188862   -1.3704091185   -1.3995092236
 H    0.5028218522   -0.1394796838   -2.0087835040
 H    1.7207279273   -2.7440118019   -2.5588233518
 H    2.4041200370   -3.5353298377   -1.1304360266
 H    0.6489008903   -3.5537448739   -1.4095833351
 H    2.8535949559   -0.7318549459   -1.6903118387
 H    0.3258020708   -2.6234665086    0.8478186829
 H    3.0659654732   -1.4826328086    1.6049432652
 H    1.9280196408   -2.2599231082    2.7294627021
 H    2.6614067870   -3.2043434126    1.4216905274