22

 C   -0.6386086879    1.5854241337    0.1182444339
 C   -0.4043901850    0.0826553862   -0.0541781209
 C    0.8532754757   -0.2321923009   -0.8760152812
 C    1.0616936391   -1.7202379492   -1.0320227203
 N    0.2877159097   -2.3980594991   -2.0647525826
 C    1.7550236757   -2.3578999367   -2.2109052510
 C    2.3260786814   -1.5490125365   -3.3432517133
 C    3.7294624387   -1.9443587018   -3.7699069227
 O    1.7281141199   -0.6370223927   -3.8670638349
 H    0.2019854119    2.0619551543    0.6354158561
 H   -0.7510123056    2.0794329962   -0.8528404384
 H   -1.5435047255    1.7840343653    0.7011288805
 H   -0.3288418434   -0.3930585598    0.9334337605
 H   -1.2690405780   -0.3732475507   -0.5512014181
 H    0.7744306418    0.2187301892   -1.8682575759
 H    1.7350576020    0.2027342621   -0.3855195812
 H    1.2104224459   -2.2565766230   -0.0930153043
 H    0.0041767207   -3.3267793051   -1.7641449403
 H    2.3097787714   -3.2671896810   -1.9859897255
 H    4.0907222658   -1.2579802511   -4.5360947396
 H    4.4101442465   -1.9362362773   -2.9106794356
 H    3.7294394591   -2.9676002222   -4.1642874749