18

 C   -0.0151467834    1.5756091637   -0.0030934840
 C    0.0489287787    0.0427343746    0.0186821898
 C    0.8874216782   -0.4520990611    1.2047968843
 C   -1.4084018771   -0.5172315076   -0.0027448638
 O   -2.1331723250   -0.0050412270   -1.0913224893
 C   -1.4335072158   -2.0383288142   -0.0871945847
 O   -1.6514382510   -2.6123238401   -1.1291975599
 C   -1.2159739145   -2.8054166313    1.1471900173
 N   -1.0857948676   -3.4026077321    2.1289307534
 H    0.9910978886    1.9933894281   -0.1049659965
 H   -0.6280511352    1.9310884841   -0.8325868324
 H   -0.4433229638    1.9598651763    0.9303706256
 H    0.5149695225   -0.2983839781   -0.9158632598
 H    1.0906292433   -1.5253263626    1.1704026385
 H    1.8535577116    0.0613269335    1.2109538248
 H    0.3950535486   -0.2349212636    2.1594897689
 H   -1.9102565381   -0.2139609061    0.9279502676
 H   -2.1210056099   -0.6869164765   -1.7787144898