16

 C   -0.1802735876    1.4913735891   -0.0793301714
 C    0.1512678958    0.0255587823    0.0257125235
 N    1.3479102923   -0.3851909309    0.0634671585
 N   -1.0154317559   -0.7820834684    0.0734216013
 C   -1.0527376098   -2.1430466832    0.1684267840
 O   -0.1129099524   -2.8961952273    0.2282072988
 O   -2.3732816827   -2.5304208681    0.1856225661
 C   -2.6375877512   -3.8754414755    0.2778396237
 N   -3.8418278607   -4.2334536587    0.2939209899
 H    0.7481894818    2.0590407385   -0.1121312797
 H   -0.7618290130    1.6992226753   -0.9849612597
 H   -0.7749726159    1.8227067446    0.7798139607
 H    1.3894957272   -1.4021660470    0.1349357643
 H   -1.9141309397   -0.3254396874    0.0347420133
 H   -1.7317293400   -4.4794632830    0.3268296251
 H   -3.8993440984   -5.2481534004    0.3644830015