21

 O   -0.0810555020    1.3242971296    0.0519067725
 C    0.0262361512   -0.0529188126   -0.0039263723
 C    0.5072228104   -1.0359240780    1.1057089826
 C    0.0460440429   -1.9216119486   -0.0970559173
 C   -1.1933027744   -0.9745704538   -0.2198593449
 C    0.8032632402   -0.9260843378   -1.0347907818
 C    0.0704310921   -3.4084871460   -0.1700027497
 C   -1.0647314534   -4.2298348684    0.3921427535
 C   -0.8573025077   -4.1531846268   -1.0994897630
 H    0.7983460222    1.6915181222    0.1919188837
 H    1.5782502163   -1.0443072348    1.3320774263
 H   -0.1003389341   -1.0887323392    2.0131966897
 H   -1.9238345419   -1.0115201727    0.5929363657
 H   -1.6759628290   -0.9195477426   -1.1994965619
 H    0.4648630768   -0.8790599715   -2.0734092014
 H    1.8955885039   -0.9265638134   -0.9624096257
 H    1.0640175261   -3.8348994527   -0.0537426563
 H   -0.8234998424   -5.1565716675    0.9008681298
 H   -1.9133540883   -3.6998590813    0.8109333438
 H   -1.5672503910   -3.5719677477   -1.6779215858
 H   -0.4737870377   -5.0273417363   -1.6138824875