19

 C    0.0059495900    1.5518411142    0.0392677269
 C    0.0228894753    0.0240813163   -0.0041657484
 C    0.8106080121   -0.5681567129   -1.2009907221
 C    1.3304612671   -1.9473771473   -0.7351782979
 C    1.4897920187   -1.7819255980    0.7614930363
 O    2.1378399937   -0.5646958691    1.1449023929
 C    0.6929920168   -0.6220491834    1.2105716391
 C    0.0968107377   -0.5084722852    2.5107171514
 C   -0.4400650122   -0.3851505129    3.5795479619
 H    1.0259140882    1.9423077988    0.1142250248
 H   -0.4508600025    1.9629343077   -0.8664828593
 H   -0.5625157409    1.9160999401    0.9004224429
 H   -1.0104874282   -0.3477779961   -0.0241346854
 H    0.1951980980   -0.6341473237   -2.1015172338
 H    1.6571843261    0.0844048326   -1.4290979867
 H    0.5990006067   -2.7426183750   -0.9244469209
 H    2.2639311334   -2.2363065081   -1.2280816866
 H    1.6799651835   -2.6327562862    1.4109406686
 H   -0.9014529435   -0.2846795716    4.5307802463