18

 C   -0.0018985574    1.3678425555    0.0091004044
 O   -0.0200026148   -0.0410096199    0.0025259002
 C   -1.3214287816   -0.5735227765    0.0116222337
 C   -1.1779485882   -2.0957295630    0.0025857984
 N   -2.4705241206   -2.7545021421    0.0111848804
 N   -3.1083584821   -3.0430917549    1.1412227940
 C   -4.2651802234   -3.5617472346    0.7241405057
 C   -4.2768880991   -3.5572055804   -0.6768931987
 N   -3.1271703391   -3.0358046475   -1.1098882897
 H    1.0449231558    1.6799624305    0.0014443904
 H   -0.5057217760    1.7852956142   -0.8765692361
 H   -0.4901382692    1.7767940554    0.9073742692
 H   -1.8785895595   -0.2570552480    0.9084136960
 H   -1.8946955192   -0.2480087561   -0.8717023646
 H   -0.6462583207   -2.4162264933   -0.8945437993
 H   -0.6295922707   -2.4251735486    0.8863688579
 H   -5.0044342550   -3.9082138034    1.4283138719
 H   -5.0278106093   -3.8991627873   -1.3708493137