18

 C   -0.0826771028    1.5273106547    0.0318511481
 C    0.0504615324    0.0392417376    0.1103322981
 N   -1.1115274660   -0.8544283824   -0.0902826718
 C   -0.6079797893   -1.7449470812    1.0118420605
 C    0.6773202547   -0.9273106064    1.1017826380
 C    1.2681923247   -0.7702889121   -0.3216066264
 N    1.1752199436   -1.7263406932   -1.3863234640
 C    2.5101839000   -0.0259067811   -0.3089005180
 N    3.5044502535    0.5648628779   -0.2730889062
 H    0.8821041447    2.0142869330    0.1904012786
 H   -0.4540825958    1.8244971471   -0.9554975554
 H   -0.7848234908    1.8976534327    0.7871280256
 H   -1.9763114503   -0.3919573519    0.1687382673
 H   -1.2051308161   -1.6700230839    1.9245639569
 H   -0.5203603519   -2.7977789314    0.7223848483
 H    1.2847327284   -0.7600866218    1.9819470288
 H    1.5791543702   -2.6201025772   -1.1279631823
 H    0.1934450709   -1.8607088705   -1.6133227961