20

 C   -0.4764726747    1.2322264560   -0.2172388026
 C   -0.1389287904   -0.2580680793   -0.2310917230
 C   -1.3720418637   -1.1476555537   -0.3198406227
 O   -2.5074088149   -0.7658600354   -0.2035546039
 N    0.8093211267   -0.6508354055   -1.2752573450
 C    0.4448863366   -0.3835422148   -2.6604825703
 C    2.0622048543   -1.0818889766   -0.8909258187
 C    3.0569366059   -1.3836285892   -2.0006305055
 O    2.3623585560   -1.2243387974    0.2826122404
 H    0.4277894442    1.8244519338   -0.0561366231
 H   -0.9458317319    1.5508405164   -1.1524119752
 H   -1.1846554033    1.4404481979    0.5875340566
 H    0.3626975237   -0.5331735719    0.7062304429
 H   -1.1303535757   -2.2199811230   -0.5027728232
 H    0.7542185728    0.6152536061   -2.9958551335
 H    0.8843912590   -1.1235158355   -3.3304162479
 H   -0.6413174766   -0.4488155584   -2.7682133821
 H    3.2069036365   -0.5252155514   -2.6623635806
 H    4.0028208280   -1.6467989510   -1.5291788455
 H    2.7234436274   -2.2236304270   -2.6188151371