18

 O    0.0239496996   -0.0453920966    0.0147855324
 C    0.0079062669    1.1665674165   -0.0203364606
 C   -1.2929273123    2.0208866045   -0.1243596683
 C   -0.7826019817    3.4321547337   -0.4236298353
 C   -1.2325188745    4.7040131132    0.3187249991
 C    0.0367082824    5.5918922058    0.2432390390
 N    1.1364080355    4.6140745040    0.1658316793
 C    0.6759924826    3.3582687017   -0.0279645718
 C    1.1372137684    2.0920202048    0.1023634309
 H   -1.9707622672    1.6109597375   -0.8757815779
 H   -1.8041506067    1.9702872520    0.8443840024
 H   -0.8306344051    3.6243355919   -1.5045051417
 H   -2.1051550265    5.1928656429   -0.1190294053
 H   -1.4592082627    4.4687374387    1.3645312768
 H    0.0252334351    6.2347498640   -0.6466317603
 H    0.1538699380    6.2379858421    1.1183973829
 H    2.0361057021    4.8060069481    0.5731335621
 H    2.1411501763    1.7697738553    0.3407874966