17

 C   -0.0796663747    1.5863594686   -0.0344513658
 C   -0.0500588818    0.0471083297   -0.0075054239
 C    0.7595026562   -0.4958202854    1.2078321711
 C    2.1626451311   -0.1158980767    1.1885309592
 C    3.3311627041    0.1921635636    1.1667463833
 C    4.7195503799    0.5706850136    1.1158237137
 O    5.5301472270    0.3258156762    1.9797203237
 C   -1.3989624941   -0.5131314827    0.0148791121
 C   -2.5096154571   -0.9704576872    0.0602631637
 H    0.9387166647    1.9831292514   -0.0607931336
 H   -0.6183512281    1.9444388729   -0.9147961822
 H   -0.5837722604    1.9773298771    0.8545476107
 H    0.4557052352   -0.3044007097   -0.9159872229
 H    0.2957845066   -0.1398036693    2.1363548250
 H    0.6858081183   -1.5893137392    1.2311289601
 H    5.0047390141    1.1220621835    0.1964579462
 H   -3.4912092510   -1.3752724964    0.0842453595