21

 C    2.9427995241   -0.6732321470    0.1461886997
 N    1.5939858536   -1.1871444784    0.3364232005
 C    1.3718800833   -2.1245734880    1.4267253719
 C    0.7909124497   -0.7488628163    1.4815235374
 C    1.2210703969    0.2533685651    2.5102972584
 C    1.3685434573    1.7953858013    2.3885848922
 N    1.6468449356    1.5742869767    3.8843156325
 C    0.4595324909    0.5995070460    3.8158280013
 C    2.4783141888    0.3716830587    3.4146416995
 H    3.5423974975   -0.6072662573    1.0658223374
 H    3.4692248129   -1.3340441797   -0.5501925849
 H    2.8932788009    0.3218814996   -0.3072598887
 H    0.7466722759   -2.9862071023    1.2062226744
 H    2.2063779835   -2.3292997421    2.0980864901
 H   -0.2634280030   -0.6408073619    1.2236562279
 H    2.2278790844    2.1891656327    1.8385118462
 H    0.4680753772    2.3852985177    2.1951503168
 H   -0.5103542964    1.0977831490    3.7278676656
 H    0.4550199937   -0.1416891995    4.6201753207
 H    2.6262264498   -0.3853779028    4.1904277856
 H    3.4270064835    0.6584686885    2.9539983555