20

 C   -0.8073497724    1.1962204080    0.0248647232
 C    0.0289573818   -0.0694227890   -0.0979095434
 N    0.8841477349   -0.0738520404   -1.3029596782
 C    2.1078553406    0.7348943236   -1.1708867181
 C    2.1594403465   -0.7307783134   -0.9341669197
 C    2.1119319725   -1.2043040828    0.5075582386
 C    0.9455914002   -0.4090860439    1.0905448403
 C    1.0466865242    0.3765795835    2.3288961131
 O    0.3376304161   -0.8678046744    2.2926391306
 H   -0.1786973989    2.0882885075    0.1101347238
 H   -1.4434862348    1.3129446545   -0.8563899292
 H   -1.4522643666    1.1408930475    0.9072338085
 H   -0.6517232057   -0.9242833009   -0.2125990451
 H    2.4761013688    1.1479519850   -2.1051557909
 H    2.2151649207    1.3967515676   -0.3141749328
 H    2.5954945935   -1.3857659887   -1.6826556214
 H    1.8768152694   -2.2741754486    0.5503927835
 H    3.0483838431   -1.0482623621    1.0505733693
 H    1.9781671057    0.3646433424    2.8946971572
 H    0.4289589505    1.2602067046    2.4765667507