25

 C    0.0504337843    1.5924137264   -0.0360735320
 C    0.0341245163    0.0698528847    0.0373186452
 O    0.7681843912   -0.2976021539    1.1952134020
 C   -1.3980797219   -0.4927076889    0.0656845376
 C   -1.4572473923   -2.0256416867    0.0220657538
 O   -0.7970318632   -2.6081455341    1.1627127784
 C   -2.8767786382   -2.6065237400   -0.1641050070
 C   -2.8075881229   -4.1162079976   -0.4318706279
 C   -3.8098488013   -2.3043330213    1.0188987679
 H    1.0819039574    1.9545802356   -0.0182112023
 H   -0.4293712128    1.9488066571   -0.9527233083
 H   -0.4735279763    2.0214431632    0.8244610947
 H    0.5319673202   -0.3277262046   -0.8668956074
 H    0.6229065374   -1.2459271679    1.3215080735
 H   -1.8989989985   -0.1188567590    0.9689225317
 H   -1.9534242908   -0.0987152561   -0.7949868373
 H   -0.8490588195   -2.3662198733   -0.8259280791
 H   -1.2680757095   -2.3142742192    1.9511785544
 H   -3.2922010344   -2.1166556723   -1.0554268254
 H   -2.3366776670   -4.6332459327    0.4095014813
 H   -3.8075403382   -4.5367908069   -0.5772158230
 H   -2.2175915344   -4.3339025097   -1.3284744344
 H   -3.9160200953   -1.2315002368    1.2044348523
 H   -4.8094878434   -2.7060276452    0.8280372343
 H   -3.4513786568   -2.7774769910    1.9414257568