17

 C   -0.0613242422    1.5498270655   -0.0792088796
 C    0.0091831000    0.0342193388   -0.0156689785
 C   -1.2319408827   -0.6581120109   -0.5491475118
 C    1.3258215224   -0.6431947501   -0.2060463510
 C    0.6814897109   -0.6606629130    1.1796799279
 C    1.3135765077    0.0938813602    2.2816547669
 O    1.2631496405   -0.2303235504    3.4440470343
 H    0.8673303533    2.0294665658    0.2385145621
 H   -0.2597124374    1.8691460878   -1.1087434741
 H   -0.8720326938    1.9353763288    0.5488263851
 H   -1.4024598976   -0.3866283140   -1.5975474756
 H   -1.1408246352   -1.7469096552   -0.4950751269
 H   -2.1213984498   -0.3655472487    0.0196987297
 H    1.3690557427   -1.5881997521   -0.7363897740
 H    2.2086189850   -0.0219681734   -0.3250803892
 H    0.2257375028   -1.5894696783    1.5069379245
 H    1.8742312433    1.0052841892    1.9710535504