13

 N    0.0879136554    1.3526734756    0.1909802669
 C   -0.0714216749   -0.0087134242    0.0656248384
 C   -1.2321204774   -0.7114857924    0.0238201054
 N   -1.2216343837   -2.0837326920   -0.0128672555
 C   -0.0960923487   -2.7063415072   -0.0188096073
 O   -0.0331436752   -4.0511432994   -0.0529334262
 C    1.2173817092   -2.0444294341    0.0027964902
 O    2.3026135181   -2.5474436263   -0.0197232682
 O    1.1168837421   -0.6535710300    0.0495815130
 H    0.9611736008    1.7041687380   -0.1758138082
 H   -0.7117289436    1.9044774403   -0.0802111836
 H   -2.1941322397   -0.2166572400    0.0280974996
 H   -0.9488166024   -4.3635414984   -0.0652552245