17

 C   -0.2850491958    1.5272229413   -0.0563188299
 N    0.0868976569    0.1200436330   -0.0783044435
 C    0.6868452004   -0.4710147218   -1.2667620523
 C    2.1274468384   -0.0993867940   -1.5008999195
 O    2.6869809199    1.1324909256   -1.1684568149
 C    1.8234028698   -1.0899023166   -0.4253231652
 C    1.1709665232   -0.4163151655    0.7921931132
 C    1.9632089998    0.5284601748    1.5853067942
 N    2.5366821873    1.2543064741    2.2783419040
 H    0.5572524413    2.2192282555   -0.1870412280
 H   -1.0120885099    1.6965439107   -0.8570690829
 H   -0.7773956956    1.7574688538    0.8936557505
 H    0.0547173375   -0.9156246432   -2.0293097487
 H    2.5510928834   -0.5761599060   -2.3878810356
 H    2.4151622850    1.7793717821   -1.8281371361
 H    2.2179322972   -2.0963383700   -0.4115376429
 H    0.7588876512   -1.1547289136    1.4903584673