20

 C    0.5733242455    0.9143564093   -0.3798045408
 C   -0.0881818797   -0.3011038563    0.2550976174
 C   -0.2282744163   -0.1835409732    1.7709058858
 O   -1.3903367340   -0.4209717042   -0.3492124856
 C   -1.9189853541   -1.6547480228   -0.4113406720
 N   -3.1048752938   -1.8127312860   -0.8084919513
 C   -3.6530636139   -3.1587199986   -0.9104381661
 C   -2.7988372288   -4.2854053487   -0.5181916959
 C   -2.0846999940   -5.1967238572   -0.1919931402
 H    1.5819321735    1.0509410569    0.0210122239
 H    0.6409916617    0.7938247347   -1.4639336139
 H   -0.0082757239    1.8170268456   -0.1698684021
 H    0.4921242671   -1.2019631033    0.0088786616
 H   -0.7180237533   -1.0676474384    2.1899819056
 H    0.7554973796   -0.0842094386    2.2403103479
 H   -0.8278243914    0.6948149289    2.0286199910
 H   -1.2409062896   -2.4651322882   -0.1144738134
 H   -4.5739502350   -3.1883683282   -0.3125717923
 H   -3.9805824641   -3.3078696203   -1.9482635251
 H   -1.4707758356   -6.0160225812    0.0906424855