20

 C    0.1120332580    1.7215181994   -0.1004847165
 C    1.6188919729    1.4317316445    0.1186904856
 C    1.2473859867   -0.0192724834    0.5935730153
 C   -0.1477554177    0.1933204130   -0.0763768119
 C    2.1150662905   -1.2222194134    0.1523317162
 C    2.8731506715   -1.7085499220    1.4149285488
 C    2.0972020861   -1.0663835431    2.5398600232
 C    1.2249988100   -0.1639628552    2.0945793863
 H   -0.3370991423    2.2276714799    0.7587948657
 H   -0.1707399978    2.2666474093   -1.0039828783
 H    2.1715534780    1.4067595458   -0.8258028761
 H    2.1638654899    2.0634401088    0.8252334890
 H   -1.0220156745   -0.1723001410    0.4698157654
 H   -0.1667610451   -0.2316794430   -1.0851874087
 H    1.4539115102   -2.0196964016   -0.2054882375
 H    2.7847148902   -0.9688551081   -0.6747795781
 H    2.9056797649   -2.8017558319    1.4896016279
 H    3.9197054541   -1.3730018728    1.4240468589
 H    2.2721745124   -1.3048464757    3.5836443328
 H    0.5806189520    0.4456331003    2.7207463521