14

 C   -0.9913665262   -0.2754816317   -1.0943741283
 C   -0.3314194283    0.4240473159   -0.3739604263
 C    0.4685362079    1.2817251153    0.5023265476
 N    0.7223268808    2.6044452807   -0.0745923481
 C    1.7022259419    2.7193847476   -0.8607998967
 N    2.1036447551    3.8795552041   -1.5084294996
 C    3.2135031991    3.5794095236   -2.2387799897
 N    3.5714719092    2.3465130948   -2.1386424461
 O    2.6057961041    1.7671929057   -1.2595092283
 H   -1.5701351093   -0.8966688294   -1.7317539355
 H   -0.0753717115    1.4341418751    1.4411882984
 H    1.4017004086    0.7584863845    0.7572069204
 H    1.6303977170    4.7610538054   -1.4198776790
 H    3.7471126416    4.2963900784   -2.8442239488