21

 C   -0.3771786242    1.4085388254    0.1667512834
 O    0.0250115821    0.0774565511   -0.0838010951
 C    0.6971723912   -0.5668624150    0.9953807769
 C    0.1034116409   -1.9675389917    1.1617639269
 C   -1.3710023224   -1.9523564116    1.5718261620
 O   -1.8989466824   -3.2578316858    1.7467529415
 C    2.2184877311   -0.6412436226    0.7197634568
 C    2.8522156365    0.7170638968    0.5229623323
 O    3.5607689561    1.2602296086    1.3332789091
 H    0.4737074029    2.0731211608    0.3765847109
 H   -0.8814025177    1.7643426794   -0.7352417344
 H   -1.0780810912    1.4710734653    1.0118432403
 H    0.5383707115    0.0058849561    1.9217346585
 H    0.2107091559   -2.4998073755    0.2067254080
 H    0.6764151811   -2.5256532814    1.9101881771
 H   -1.4836221441   -1.4575633687    2.5434773390
 H   -1.9518876090   -1.3753581385    0.8390265108
 H   -1.9159258211   -3.6855986596    0.8847467293
 H    2.7182674050   -1.1356659425    1.5576525278
 H    2.3649948375   -1.2336655958   -0.1921507164
 H    2.6150993605    1.2075044952   -0.4469969647