17

 N    0.0889848758    1.1727297374    0.1716775315
 C    0.0567825016   -0.0810975808    0.0597595363
 C   -1.0137454555   -0.8886570250   -0.6428502639
 C   -0.7922270862   -2.3102841064   -0.1078553026
 C    0.7027493892   -2.2995866194    0.2674100312
 C    1.6117384421   -2.8007300237   -0.8731809727
 C    3.0323074366   -2.7098960466   -0.5453802082
 N    4.1549372314   -2.6531806036   -0.2799009285
 O    1.0084372578   -0.9325009906    0.5683241770
 H    0.9261037343    1.4712932373    0.6749662211
 H   -2.0040494510   -0.4814064989   -0.4395837792
 H   -0.8540631175   -0.8289249180   -1.7250299950
 H   -1.3910346458   -2.4800004786    0.7907753825
 H   -1.0379717528   -3.0951916528   -0.8263276837
 H    0.9134874994   -2.8795538027    1.1694655692
 H    1.3687082683   -3.8468574282   -1.0917798873
 H    1.4192121424   -2.2247692696   -1.7854543479