20

 C    0.0671570542    1.5389363641    0.1501503247
 C    0.0187052501    0.0206406013   -0.0448401452
 C    0.6649621042   -0.4633641866   -1.3170704407
 C    0.4347159862    0.1148510823   -2.7536083211
 C    1.8726465831   -0.4592296210   -2.8633114449
 O    2.0729397188   -0.1033427543   -1.4728625887
 C    1.6011888814   -1.9854069274   -2.7910650756
 N    2.0386320257   -2.5840556990   -1.5091820265
 C    0.6872257874   -1.9900464628   -1.6303293123
 H    1.0971686534    1.8998852375    0.0901742159
 H   -0.5180432657    2.0599060877   -0.6144525000
 H   -0.3390732374    1.8177640735    1.1268000127
 H    0.5274852711   -0.4794432805    0.7889191095
 H   -1.0200246905   -0.3346141642   -0.0308515204
 H   -0.3569049084   -0.3157074203   -3.3746039506
 H    0.4176192182    1.2053192508   -2.7733971991
 H    2.6339933815   -0.0735405173   -3.5402392028
 H    1.4726574458   -2.5885615705   -3.6816890929
 H    1.9365377749   -3.5950515744   -1.5951711178
 H   -0.2057015241   -2.5984017889   -1.5467483840