25

 C   -0.4614714535   -0.3150261971   -2.3529754849
 C   -0.2767863615   -0.9427976376   -0.9655602278
 C   -1.5907838145   -1.1341617168   -0.2291019005
 O   -2.3482110124    0.0495259287   -0.0951674298
 C   -1.8329495180    0.9811492607    0.8339294980
 C   -2.4653334651   -2.3430736811   -0.4449871047
 C   -2.1342903207   -3.4720713256   -1.3979021491
 C   -1.7597637303   -2.1419152694    0.8928085420
 C   -0.6557600945   -3.0474000082    1.3979128456
 H    0.5048481760   -0.1385643955   -2.8353677881
 H   -1.0504860974   -0.9675580993   -3.0053439247
 H   -0.9895725206    0.6392378398   -2.2802389523
 H    0.2361878251   -1.9036521145   -1.0604565059
 H    0.3901402707   -0.3128786123   -0.3625470268
 H   -1.6757750490    0.5262545055    1.8225776730
 H   -0.8835732163    1.4264439621    0.5037437105
 H   -2.5740086895    1.7793930606    0.9258430801
 H   -3.5230803138   -2.0954374740   -0.4176558340
 H   -1.0652109842   -3.6944697114   -1.4423850153
 H   -2.6449521986   -4.3934615647   -1.0960190545
 H   -2.4619330267   -3.2339881328   -2.4157197387
 H   -2.4235521649   -1.7922161550    1.6801424139
 H    0.0001918716   -3.4024712586    0.5997147962
 H   -0.0267214214   -2.5303322663    2.1312453759
 H   -1.0749235404   -3.9320621172    1.8907161518