23

 C   -0.0224312556    1.5482003757   -0.1601583112
 C    0.0218034925    0.0511940092    0.1497659451
 O    0.6735906840   -0.1934622980    1.4013062255
 C   -1.3589064316   -0.5760558084    0.1268849021
 C   -1.9374359257   -1.1524213524   -1.1436133038
 C   -1.5377226851   -2.0679170333   -0.0083368919
 C   -0.3491889571   -3.0285596745   -0.1174214557
 C   -0.8111472494   -4.4867605984   -0.0929840232
 O    0.4683720402   -2.7784118668   -1.2608736041
 H    0.9831183078    1.9752461375   -0.1155924678
 H   -0.4395048650    1.7324688190   -1.1553398308
 H   -0.6510828818    2.0779581347    0.5674066107
 H    0.6524304077   -0.4570640592   -0.5844173972
 H    0.1384056649    0.2144769608    2.0912377660
 H   -2.0699720816   -0.0764770464    0.7852805689
 H   -2.9909217822   -1.0078850923   -1.3565849988
 H   -1.2971008836   -1.1332909605   -2.0194749516
 H   -2.3617647873   -2.4821972325    0.5669544509
 H    0.3197446767   -2.8451060264    0.7300870923
 H   -1.5089197915   -4.6874008830   -0.9160903605
 H    0.0470633419   -5.1562309563   -0.1954515844
 H   -1.3267805915   -4.7229816789    0.8434195895
 H   -0.0440029067   -3.0245862896   -2.0393208797