16

 C    0.0119952983    1.4230257496    0.2642613532
 N   -0.0666530523   -0.0230213798    0.4171598094
 C   -1.0704507709   -0.6309403177   -0.0042295242
 O   -2.2389459983   -0.1500932769   -0.6121011006
 C   -2.8347052756   -1.4770706039   -0.6244232821
 C   -2.5599035229   -2.2713146279   -1.9145321589
 N   -1.2215664713   -2.6787354393   -1.3909363644
 C   -1.5233242515   -2.0767225349   -0.0595098969
 H    0.8436704051    1.6657293558   -0.4066985057
 H   -0.9017817094    1.8819114893   -0.1306519967
 H    0.2439275073    1.8715464857    1.2359952035
 H   -3.8216525568   -1.4805543762   -0.1644856276
 H   -3.2645471815   -3.1017046179   -2.0441662182
 H   -2.5213756158   -1.6837207079   -2.8367146400
 H   -1.0983808542   -3.6825752011   -1.3457942206
 H   -1.4081890202   -2.7033825568    0.8238885097