16

 N   -0.0635426382    1.4581167566   -0.0318872275
 C   -0.0337586978    0.0158020546   -0.0576986023
 C    0.8173519388   -0.5013032233    1.0158100737
 N    1.5131919092   -0.9069932587    1.8445573490
 C   -1.3800544730   -0.7205697106   -0.1014699475
 C   -1.7564367378   -0.8150958153   -1.5801797123
 N   -0.7083524926   -0.0725509883   -2.3245251924
 C    0.2577316275   -0.7670991721   -1.4088170093
 C   -0.8262429074   -1.8294697894   -0.9860009367
 H    0.8708334774    1.8410508717    0.0754264789
 H   -0.4303839196    1.7663294817   -0.9301674873
 H   -2.1124621462   -0.7884223081    0.6914880840
 H   -2.7841374640   -0.8889045939   -1.9102667307
 H   -0.6206652728   -0.5030653283   -3.2438558315
 H    1.2733609832   -0.9299143373   -1.7610581651
 H   -0.8364370366   -2.9035841094   -0.8719222829