20

 C    0.8806950105    1.0282847348   -0.8445020248
 C   -0.2938317414    0.1585851231   -0.4104920171
 O    0.1224245220   -1.0426881334    0.2390144023
 C    0.5409586200   -2.0472828372   -0.5638779405
 C    0.6108750254   -2.2315094439   -1.9262791968
 C    1.1266809111   -3.5553573657   -2.1404160309
 C    1.3802972869   -4.2021712979   -3.4679585936
 C    1.3467068053   -4.1112122291   -0.9072235346
 N    0.9888948191   -3.1793234279    0.0536441602
 H    1.4972009949    1.2968562187    0.0181915929
 H    1.5098884191    0.5074303094   -1.5702436636
 H    0.5114766594    1.9501771202   -1.3055461573
 H   -0.9039515173    0.6795828255    0.3326137838
 H   -0.9407832111   -0.0917484823   -1.2609968847
 H    0.3361371864   -1.5212209950   -2.6892548929
 H    2.1068977555   -3.6377237061   -4.0651494865
 H    1.7736448327   -5.2154636760   -3.3425340510
 H    0.4649459911   -4.2754334928   -4.0678172913
 H    1.7278277337   -5.0793207890   -0.6258147571
 H    1.0205654667   -3.2981004255    1.0505482034