20

 C    2.7417479225   -0.8410572220    0.1115492679
 N    1.3677296909   -1.2498649460    0.3668405913
 C    1.1268879044   -2.1561588609    1.4820073545
 C    0.6437615454   -0.7440503682    1.5318190171
 C    1.2211749575    0.2684802900    2.5124359475
 N    1.1795048641    1.6557892302    2.0483300406
 C    0.4504101080    0.1646468039    3.8492229905
 C    1.0287279692    0.9878254147    4.9082647117
 N    1.4932080223    1.6108978180    5.7629954894
 H    3.3744180527   -0.7509629647    1.0083241400
 H    3.2048895490   -1.5829350422   -0.5461388865
 H    2.7460918714    0.1188657853   -0.4156095117
 H    0.4413272327   -2.9792113726    1.2978116445
 H    1.9741640020   -2.4079169980    2.1214837266
 H   -0.4121018110   -0.5616309865    1.3177879213
 H    2.2685467554    0.0278927246    2.7183102930
 H    1.8002785476    1.7775294079    1.2548227419
 H    0.2449751399    1.8853630477    1.7181355351
 H   -0.5926812729    0.4688942753    3.6958732437
 H    0.4286323290   -0.8769060564    4.1862731816