20

 C    0.0595086617    1.5777693141   -0.1390404268
 C    0.0200538183    0.0549531172    0.0129052697
 C   -1.4020646736   -0.5130057450   -0.0195542561
 C   -1.4386636446   -2.0465051124    0.1358289923
 C   -2.8191416931   -2.6186421700    0.1302027692
 C   -3.6275895164   -3.1387290118    1.1163599821
 N   -4.8251336381   -3.5027842251    0.5772767781
 N   -4.8145821104   -3.2397354659   -0.6961018337
 N   -3.6067666420   -2.7042719767   -0.9729424424
 H    1.0868312746    1.9534373602   -0.1125681045
 H   -0.3860698693    1.8932858558   -1.0889160206
 H   -0.4965240525    2.0704159530    0.6659894266
 H    0.6150438761   -0.4102168355   -0.7844288868
 H    0.5017958042   -0.2330732153    0.9565986901
 H   -2.0031450266   -0.0603051708    0.7786866818
 H   -1.8887274969   -0.2288386500   -0.9622955183
 H   -0.8391766132   -2.5067836829   -0.6609107451
 H   -0.9583423435   -2.3275754998    1.0789865886
 H   -3.4140951694   -3.2714809553    2.1649641176
 H   -3.3969893354   -2.4350380338   -1.9210441418