21

 O   -0.0438311017    1.4057162867    0.0904292858
 C    0.0120442297   -0.0106966059    0.1535575392
 C   -1.3896469905   -0.5487543620   -0.1253976748
 C   -1.4490937271   -2.0517471778   -0.1086458401
 C   -0.8589760165   -2.9699618734   -1.1948810356
 C   -2.0882686735   -3.9200112078   -1.0612251303
 C   -2.6629236653   -3.0105491059    0.0304131648
 C   -1.6845520986   -2.8533001486    1.1448339036
 O   -0.8957837769   -3.9463095355    1.5274691671
 H    0.8419799828    1.7502026336    0.2360142335
 H    0.7199035720   -0.4159149774   -0.5876675905
 H    0.3479786021   -0.3543672170    1.1461812371
 H   -2.0762421208   -0.1329841434    0.6217689193
 H   -1.7173920228   -0.1630427359   -1.0992557592
 H   -0.8138016565   -2.4798127024   -2.1707233675
 H    0.1194511292   -3.4072409167   -0.9748821151
 H   -2.7018374125   -3.9315073687   -1.9641775384
 H   -1.8791193390   -4.9476073184   -0.7558159091
 H   -3.7129979449   -2.7739650047    0.1632421527
 H   -2.0590658894   -2.2578989000    1.9797177821
 H   -0.0446035099   -3.6095818287    1.8259262554