19

 C    0.1823244374    1.5780332637   -0.0006714409
 C    0.0651013410    0.0660099316   -0.0037114746
 O   -1.2537223059   -0.3813620742    0.3018154481
 C    0.5613414233   -0.7485515765   -1.2375426006
 C    1.3254496160   -1.7462929189   -0.3070969492
 C    2.8049815876   -2.0624531423   -0.5348460052
 O    3.3559899989   -2.7254839380    0.5837578846
 C    1.0852883457   -0.7548256117    0.8319287925
 O    1.6044295048   -0.5986593708    1.9061949878
 H    1.1884136528    1.8994421842   -0.2868639408
 H   -0.5382200909    2.0126503328   -0.7002403838
 H   -0.0195514554    1.9759214839    1.0002333515
 H   -1.4751813859   -0.0613801507    1.1844410689
 H   -0.2438747949   -1.1696291013   -1.8389898650
 H    1.2337464774   -0.1668950433   -1.8733993987
 H    0.7704890172   -2.6758895600   -0.1459539433
 H    2.9311023485   -2.7280526947   -1.3954038706
 H    3.3469131902   -1.1286958081   -0.7635894593
 H    3.1783963421   -2.1698711056    1.3541849786