16

 C    0.0072893042    1.4921325063   -0.1072926006
 C    0.0136726919    0.0040700902   -0.0032197568
 N    0.0007191863   -0.7845495456   -1.0607345354
 N    0.0123119613   -2.0283899720   -0.5381192394
 C    0.0032156154   -3.1508045248   -1.3881781925
 O    0.0124581109   -4.2849421657   -1.0105030884
 N    0.0325657139   -2.0839981213    0.8041812024
 C    0.0336179817   -0.8156703469    1.1720163195
 C    0.0532446703   -0.3978540170    2.6038128195
 H    0.8949918526    1.9257255297    0.3663621761
 H   -0.0105570047    1.7969206576   -1.1549470341
 H   -0.8673599890    1.9201535016    0.3948372873
 H   -0.0134397095   -2.8101319929   -2.4357879465
 H    0.9363464890    0.2113394390    2.8263321432
 H   -0.8263090682    0.2065704266    2.8519099448
 H    0.0650274838   -1.2766367047    3.2504001010