21

 C    0.0097651862    1.5097640459    0.0375063634
 C   -0.0302965393   -0.0115652163    0.1967045626
 C   -1.4097174531   -0.5903155329   -0.1374367033
 N   -1.4575683454   -2.0367729266   -0.0301487995
 C   -1.9980710331   -2.7870036602    0.9605860698
 C   -1.7400121425   -4.1052658751    0.6524164662
 C   -1.0211424903   -4.0570689120   -0.5651767108
 C   -0.4850413698   -5.1931613841   -1.3789460984
 N   -0.8532356435   -2.7968851718   -0.9685973686
 H    1.0016067493    1.9036419639    0.2768747389
 H   -0.2270604428    1.8081028635   -0.9897094153
 H   -0.7114138436    2.0019900334    0.6999474522
 H    0.7061766414   -0.4852055149   -0.4602525350
 H    0.2340342366   -0.2932529182    1.2229932514
 H   -2.1720428542   -0.1859855503    0.5364372925
 H   -1.6927095205   -0.3210051907   -1.1602251448
 H   -2.5186730277   -2.3308489951    1.7884959276
 H   -2.0344083051   -4.9758573436    1.2165394348
 H   -1.2865845559   -5.8607761014   -1.7142850650
 H    0.0315097873   -4.8077200090   -2.2605802379
 H    0.2218381860   -5.8007957145   -0.8031535207