18

 C    0.0007968511    1.4568243375    0.0017454460
 N    0.0020550689    0.0034676007    0.0259848430
 C   -1.3177623592   -0.5508238814   -0.2330994936
 C   -1.2678560197   -2.0566363693   -0.3577542249
 N   -2.0718549822   -2.6588500727   -1.1367134691
 N   -0.3204857830   -2.6684462123    0.4628820585
 C    0.5945431676   -2.0377865976    1.2892501421
 O    1.3545476881   -2.6691256790    1.9879355873
 C    0.5480219199   -0.5188502007    1.2664414409
 H    1.0199747894    1.8276357427    0.1462233175
 H   -0.3561109624    1.8081799891   -0.9707631510
 H   -0.6406916134    1.9019295801    0.7859744134
 H   -2.0438130376   -0.2924484791    0.5666377730
 H   -1.7141393847   -0.1575602936   -1.1702711421
 H   -1.9586555956   -3.6740542054   -1.0926427103
 H   -0.2605813425   -3.6793200625    0.4629047165
 H    1.5729585959   -0.1673746507    1.4074487945
 H   -0.0298834306   -0.1969873855    2.1589224482