14

 O   -0.8860141399    1.0028574177   -0.4500939944
 C    0.1474233017    0.8611804933    0.1564058757
 C    1.3056785339    1.7805941574    0.0348205849
 C    1.8189931013    2.6651789764    1.2269756667
 C    2.3879453877    3.5745625742    0.1313439381
 C    1.4955339726    3.0299503543   -0.8958812758
 N    2.9933092595    2.7260564394   -0.9640436731
 C    2.6677472622    1.3654732657   -0.5653042756
 O    3.2291963386    0.3471788737   -0.8000229470
 H    0.3039106149    0.0103509853    0.8548948693
 H    0.9950088459    3.1554203418    1.7503132794
 H    2.5027805473    2.1971994549    1.9413113942
 H    2.8116984657    4.5647164095    0.2317905966
 H    0.9538312586    3.4155829365   -1.7451583791