21

 C   -0.0599493994    1.6009045740    0.0064375065
 C    0.0162290672    0.0742128461    0.1047388146
 C   -1.3563124906   -0.5836873055    0.0163506028
 O   -1.9890365790   -0.2809131279   -1.2423733815
 C   -2.4122623364   -1.5600003617   -1.8030712772
 C   -2.8194507333   -2.3372250453   -0.5427262660
 C   -1.4057712757   -2.1493851734    0.0715879899
 C   -0.5447661604   -2.6575610817   -1.0730115706
 C   -1.1522376415   -2.3088844072   -2.2133644788
 H    0.9365490878    2.0506281315    0.0534124021
 H   -0.5284924835    1.8980696415   -0.9354669299
 H   -0.6555712481    2.0223379805    0.8242364493
 H    0.6505693925   -0.3182695640   -0.6968047208
 H    0.4788838003   -0.2178803725    1.0571935679
 H   -1.9939026420   -0.1900510182    0.8236278738
 H   -3.1606424420   -1.3587034395   -2.5677087730
 H   -3.6200665748   -1.8469210621    0.0185939325
 H   -3.0661088363   -3.3830712659   -0.7310135294
 H   -1.2172199431   -2.5655340278    1.0609252512
 H    0.4288772640   -3.1166673970   -0.9574080512
 H   -0.7834856657   -2.4117226235   -3.2256338122