15

 C   -0.0456966484    1.4297163596    0.1835401427
 N   -0.0050250666   -0.0233972214    0.0285390275
 C   -1.2239649582   -0.6957844320   -0.0194762071
 N   -2.3211605358   -0.0508424945    0.0697994359
 N   -1.0994590614   -2.0772139911   -0.1682100387
 N    0.0369028082   -2.7855311881   -0.2654084415
 C    1.1403959333   -2.1266266662   -0.2168629903
 C    1.2313240587   -0.6655082680   -0.0637194666
 O    2.2892144499   -0.0693484863   -0.0208143189
 H    0.9840203994    1.7794223227    0.2027013765
 H   -0.5947990762    1.8759560739   -0.6483008334
 H   -0.5643584945    1.6891620010    1.1088521697
 H   -3.1292753874   -0.6671106823    0.0199766627
 H   -1.9419596661   -2.6269631897   -0.2105189274
 H    2.0682137751   -2.6792939378   -0.2934434512