20

 C   -0.1619502094    1.3257509414   -0.0125924078
 O   -0.0346909971   -0.0757156686    0.0173834269
 C    0.5587465503   -0.5969746879   -1.1467086450
 C    0.6051668797   -2.1044411556   -1.0433961137
 O   -0.7390010422   -2.6018580569   -1.1576195202
 C   -0.8888171659   -3.9319144410   -1.0214376590
 O    0.0210666449   -4.7001597084   -0.8303300716
 C   -2.3575455540   -4.3311428785   -1.1443466375
 N   -2.6249595990   -5.7508651457   -0.9999018788
 H    0.8168120373    1.8242227533   -0.1006316920
 H   -0.7933683284    1.6608517766   -0.8505266898
 H   -0.6297224713    1.6310447047    0.9262237862
 H   -0.0078634895   -0.3014600079   -2.0453706360
 H    1.5895634424   -0.2203555853   -1.2668865518
 H    1.2206322466   -2.5279529856   -1.8436425663
 H    1.0290917902   -2.4143393110   -0.0842663790
 H   -2.9240360378   -3.7646631005   -0.3962700781
 H   -2.7210379571   -3.9787225621   -2.1170017022
 H   -2.0628567554   -6.2617032709   -1.6755504357
 H   -2.2799456543   -6.0602020202   -0.0951499387