19

 C   -0.0327635554    1.4194435758   -0.1301857611
 C    0.0431891881   -0.0658209959   -0.0361434385
 O   -0.5113732026   -0.8468399877   -1.1129709888
 C   -0.4031000603   -1.9884121743   -0.2231100747
 C   -0.2921367602   -1.0563144517    1.0312643075
 C    1.1770447506   -0.8942087731    0.6021779785
 C    2.3445145273   -0.3488393479    1.3654457369
 C    1.1313138196   -2.2236524170   -0.1468954920
 O    1.5145205014   -3.2608317037    0.7330821286
 H    0.5426752296    1.7823204478   -0.9887408115
 H   -1.0706966980    1.7447152263   -0.2506053142
 H    0.3717098467    1.8855321778    0.7725137619
 H   -1.1180029500   -2.7860699515   -0.4207563545
 H   -0.7910740892   -0.9922832500    1.9883474854
 H    2.7491212614   -1.1133710568    2.0364755200
 H    3.1488721099   -0.0316559277    0.6912112505
 H    2.0612676919    0.5156465498    1.9746497165
 H    1.6502677676   -2.2939469792   -1.1142221242
 H    1.3850696118   -4.0985418010    0.2770890037