17

 C    0.1853336647    1.4448093003    0.1990793301
 C    0.0359597148   -0.0346914582    0.0107335879
 C    1.1257108364   -0.9283762136   -0.4009400056
 C    0.5979190752   -1.1518742434    1.0250173698
 C    1.4664941288   -0.9374624762    2.1916013508
 O    2.4644557904   -0.2492590784    2.1720739984
 C   -0.7578346155   -1.7784394921    0.9867932426
 O   -1.2907898490   -2.5969833707    1.6833073053
 C   -1.3046374526   -0.7886395300   -0.0736707714
 H    1.1822333746    1.6848527948    0.5789537597
 H    0.0477263427    1.9666416166   -0.7551430636
 H   -0.5568088427    1.8343251078    0.9030161506
 H    0.9608518072   -1.7142041098   -1.1330613076
 H    2.1274785689   -0.5093998978   -0.3879923105
 H    1.1212998956   -1.4327123121    3.1223052872
 H   -2.1572665598   -0.2351630647    0.3299446207
 H   -1.5698355098   -1.1932506825   -1.0548848845