21

 O   -0.1126666661    1.4985703023    0.0683986716
 C    0.0337248276    0.0848198967    0.0572645755
 C   -1.3645977221   -0.5314499796   -0.0526954450
 C   -2.0583031587   -0.1437453181   -1.3433032048
 C   -2.5507097031   -1.0983883366   -2.1335589867
 C   -2.3911151489   -2.5427479269   -1.7052048587
 C   -2.7593062632   -2.6438592363   -0.1922854999
 C   -1.3390628204   -2.0688081283    0.0811177499
 C   -0.9117894446   -2.7491119445   -1.2559245817
 H    0.7631688127    1.8930568318    0.0327894690
 H    0.6569230564   -0.2429382361   -0.7885492853
 H    0.5153599822   -0.2698008971    0.9835446495
 H   -1.9371244803   -0.1189173691    0.7923282011
 H   -2.1237480290    0.9115431827   -1.5846178687
 H   -3.0556598067   -0.8685907258   -3.0670999160
 H   -2.8347923735   -3.2519940185   -2.4055042813
 H   -3.6241158597   -2.0728062441    0.1553911420
 H   -2.8395289476   -3.6822131454    0.1415926514
 H   -0.8288203786   -2.3764471938    0.9984245566
 H   -0.6762439772   -3.8052857487   -1.0978990437
 H   -0.1321566293   -2.2832131046   -1.8631958846