17

 C    0.0134732837    1.5069523548    0.0744145566
 C   -0.0250331243   -0.0024887353   -0.0889423771
 C    0.8184639319   -0.5154177107   -1.2453898452
 O    0.8049048722   -1.9280524795   -1.2601280272
 C    1.4193668226   -2.4421506215   -0.0948961096
 C    0.8757106270   -1.8584347208    1.1953858242
 N    0.9400351729   -2.5248573304    2.2679585712
 O    0.4297918094   -0.5716215369    1.1612261839
 H    1.0415961911    1.8558625931    0.2110135782
 H   -0.4089932643    1.9970031246   -0.8079912061
 H   -0.5693619198    1.8074234213    0.9485272559
 H   -1.0579512667   -0.3433335869   -0.2436913276
 H    0.3983543948   -0.1786506037   -2.1973014083
 H    1.8504627018   -0.1331460697   -1.1619536777
 H    1.2683240855   -3.5214053151   -0.0838060821
 H    2.5055127533   -2.2465148391   -0.1196006744
 H    0.5918255387   -1.9672115642    3.0511287653