23

 C    0.7309279824    1.4298266752   -0.3860128981
 C    0.0299988646    0.1245739922   -0.0089652788
 O    0.1027162714   -0.8020970995   -1.1086213277
 C    0.8888091687   -1.9053409182   -0.7563071340
 C    2.3243787929   -1.6682677886   -0.3487395303
 C    1.2374473507   -1.8856077376    0.6977467247
 C    1.2694875652   -3.1228649424    1.5629107165
 C    0.5610028961   -0.6308287325    1.2558860738
 C    1.4222854701    0.1936985766    2.2171150167
 H    1.8085531441    1.3055519343   -0.5205129129
 H    0.3164824900    1.7959101745   -1.3294259026
 H    0.5662073800    2.1968288841    0.3774574037
 H   -1.0346733791    0.3531288927    0.1283307894
 H    0.6044742449   -2.8032606683   -1.2950349348
 H    3.0273829863   -2.4829292289   -0.4942938518
 H    2.7505248087   -0.6827762672   -0.4977790773
 H    1.6717287331   -3.9799630540    1.0135481101
 H    1.9015609333   -2.9786150094    2.4474191505
 H    0.2647304766   -3.3902804079    1.9113876841
 H   -0.3152391755   -0.9820983315    1.8162607778
 H    2.3324922241    0.5613978977    1.7354614230
 H    0.8748819034    1.0571816199    2.6085201342
 H    1.7243405681   -0.4168143408    3.0742250040