15

 O    0.0065420176    1.3924381426    0.1341754706
 C    0.0119230133   -0.0003766011    0.0055033610
 C   -1.4155802388   -0.5575876645    0.0059066852
 O   -1.3421528533   -1.9641667057   -0.2080778876
 C   -0.8179701480   -2.2461593995   -1.4562598473
 O    0.5125111870   -1.7282236829   -1.6547634237
 C    0.7252772992   -0.4455489545   -1.2601913418
 N    1.5198013952    0.3514578329   -1.8361399962
 H    0.6804856452    1.7111918962   -0.4869603619
 H    0.5464498497   -0.4796801372    0.8439191182
 H   -1.9031746705   -0.3977923932    0.9686072132
 H   -2.0104719711   -0.0685031767   -0.7803688495
 H   -0.7300790873   -3.3285896979   -1.5531395689
 H   -1.4530688039   -1.8324724678   -2.2566186956
 H    1.9449539857   -0.0658892609   -2.6639796657