22

 C    0.0286695574    0.7364477003   -2.2019719196
 C    0.0706722916   -0.3465262596   -1.1447774505
 C    1.2851603073   -0.5990390748   -0.2675839000
 C    2.5669816157    0.1966211242   -0.3857284076
 C    0.0252319402   -0.0143040460    0.3220845653
 C   -0.1104506342    1.3667097798    0.9871572768
 C   -0.7203548931    0.6589354484    2.2335316440
 C   -0.8377132244   -0.6610153132    1.4157355632
 H    0.5289069970    1.6520902515   -1.8748698605
 H    0.5107225888    0.4094514832   -3.1302953244
 H   -1.0065953009    1.0025649449   -2.4443113893
 H   -0.4773377224   -1.2451702359   -1.4242010893
 H    1.4506664390   -1.6472292332   -0.0227496650
 H    2.3820846201    1.2521091180   -0.6022789515
 H    3.1428926996    0.1516314012    0.5458912743
 H    3.2043076393   -0.1959933267   -1.1861739237
 H    0.8106544657    1.9322072477    1.1541443249
 H   -0.8240193792    2.0217290079    0.4762245955
 H   -0.0075477935    0.5789069370    3.0579477786
 H   -1.6514415552    1.0762090843    2.6232713677
 H   -1.8616416073   -0.8683999314    1.0864586746
 H   -0.4385334114   -1.5651529076    1.8854295365