21

 C    0.5399917182    0.7264693752    0.1550901510
 O   -0.0914052878   -0.5089675249   -0.0923207828
 C   -1.5236954544   -0.5087109212    0.0005964761
 C   -2.0298762170   -1.7398248780   -0.7660442709
 C   -2.0507414015   -2.8615548455    0.2953768743
 O   -0.8330420549   -3.6019251356    0.3563909925
 C   -2.2934111926   -2.0766512782    1.5677902590
 C   -2.0014657681   -0.7801037031    1.4286515863
 C   -2.0750748254    0.2798513078    2.4844484416
 H    1.5937942426    0.6075331710   -0.1109002606
 H    0.1095131072    1.5292433767   -0.4630799034
 H    0.4818157828    1.0349984980    1.2081574443
 H   -1.9045309428    0.4397856778   -0.4060213370
 H   -3.0453662926   -1.5502300970   -1.1274292941
 H   -1.3918207407   -1.9845537370   -1.6172425605
 H   -2.8242472705   -3.6090237028    0.0959052492
 H   -0.1305867107   -2.9524857971    0.4891885323
 H   -2.5950916502   -2.5527826465    2.4951426515
 H   -2.5360520551   -0.1032602179    3.3991301445
 H   -1.0827296619    0.6641595083    2.7486089770
 H   -2.6619366045    1.1410720896    2.1414592598