17

 C   -0.0892403622    1.5385851567    0.0911940957
 C    0.1330435440    0.0622594038    0.0159380537
 N   -0.8032676751   -0.9309349503    0.5941439518
 C    0.6368239890   -0.9550245261    0.9769137349
 C    1.3381581998   -1.7589577101   -0.1123757269
 C    0.7357468362   -0.7458877472   -1.1794252353
 O   -0.1952309140   -1.2475167342   -2.0921100330
 C    1.7695513193   -0.0095481373   -1.9065013993
 N    2.6049843081    0.5952680548   -2.4271942876
 H    0.8137387434    2.0828145131   -0.2007283341
 H   -0.8989719984    1.8462609620   -0.5796763087
 H   -0.3563278509    1.8410607721    1.1092134180
 H   -1.3259395117   -0.4640633386    1.3335955221
 H    0.9332762300   -0.8334634593    2.0108665549
 H    2.4268853890   -1.7117913411   -0.0618719294
 H    1.0071486314   -2.7910172271   -0.2467203469
 H   -0.9342226780   -1.5433276814   -1.5375397799