23

 C    0.0388693017    1.3996040702   -0.3493549089
 C    0.0117279620   -0.0586131964    0.1348600297
 C    0.7958105054   -0.2351708235    1.4436765166
 C   -1.4114616951   -0.5696870794    0.2457528994
 C   -2.4058047131   -0.0195412973    1.2624104856
 C   -3.6240154971   -0.9698163778    1.1628881971
 C   -3.0502577730   -2.3313410811    0.7006975971
 C   -1.8169165272   -1.9441273999   -0.0886625335
 O   -2.0486291261   -0.8696262530   -1.0152286361
 H    1.0674617093    1.7301735408   -0.5257169620
 H   -0.5202233662    1.5081091472   -1.2831236197
 H   -0.4023887057    2.0747039258    0.3924948267
 H    0.4906516267   -0.6739211706   -0.6371879484
 H    0.7697300200   -1.2731814686    1.7912925786
 H    1.8442809203    0.0451897976    1.3013544390
 H    0.3940185339    0.3978740148    2.2421358351
 H   -1.9556673198   -0.0574526683    2.2614988607
 H   -2.6773615370    1.0223235735    1.0670098621
 H   -4.1743507562   -1.0434602184    2.1039406766
 H   -4.3148892549   -0.5939598155    0.4057794420
 H   -2.7461368271   -2.9537797333    1.5518827778
 H   -3.7677845638   -2.9109684520    0.1114365434
 H   -1.1055605670   -2.6973762246   -0.4215976490