19

 C   -0.0170112052    1.5928359424   -0.1523979798
 C    0.0224253237    0.1064684776   -0.0221113144
 C    0.0371831058   -1.0096912392   -1.0387516846
 C    1.2699202926   -1.6531523896   -0.4155005672
 C    0.8767996097   -0.8913363949    0.8777120537
 C   -0.4599541214   -1.5832167335    1.3187718460
 C   -1.0201939349   -0.9585229349    2.5636347382
 O   -1.4153428628   -1.5682381834    3.5256061818
 C   -1.0514988052   -0.9587286114    0.0509477039
 H    0.9509824937    1.9952315559   -0.4731285290
 H   -0.7621237067    1.8920356723   -0.8976473573
 H   -0.2816864438    2.0792585527    0.7936332811
 H   -0.2414608715   -0.9514967769   -2.0836146044
 H    1.3342646613   -2.7455542324   -0.3589481766
 H    2.1905418342   -1.2518720832   -0.8485090983
 H    1.6225759744   -0.6179942386    1.6218056989
 H   -0.4505682697   -2.6722785687    1.4250960868
 H   -1.0453640548    0.1566928455    2.5420547542
 H   -2.0986015995   -0.8677579597   -0.2100924631