17

 O   -0.0148378026    1.4142970733    0.0503501064
 C   -0.0047016841    0.0011498128   -0.0018158524
 C    0.5296229547   -0.6777125540    1.3402054029
 C   -0.7822205059   -1.3403226218    1.6646173680
 O   -1.4768421488   -2.1896082128    2.6128275956
 C   -2.4740198724   -1.8622172896    1.5342747388
 C   -1.9884599990   -0.4021144165    1.3777786435
 C   -1.4828070127   -0.4911625285   -0.0781363102
 C   -1.4322293750   -1.9591525075    0.3951323125
 H    0.8949604646    1.7276305973    0.0424194362
 H    0.5773051638   -0.3535580868   -0.8646171299
 H    1.3536071769   -1.3744453055    1.1644824049
 H    0.8385651690    0.0879906292    2.0563098800
 H   -3.4649572420   -2.2955362457    1.6586849505
 H   -2.2692723182    0.4651997322    1.9714609845
 H   -2.0557222975   -0.1480692453   -0.9386829950
 H   -1.0843803708   -2.8552359811   -0.1177442861