21

 C    0.1631008433    1.4249256009    0.8011835660
 C   -0.0639909912   -0.0421618437    0.4764548626
 O    0.9080795423   -0.8072795677    1.1668083891
 C    0.8898409439   -2.2100745219    0.8732113335
 C    2.0509894828   -2.8508674779    1.6494451194
 C    1.4336973028   -3.2174664650    3.0174129209
 O    1.5576699917   -2.1785456694    3.9851518465
 C   -0.0222868862   -3.4512665374    2.6529502829
 C   -0.3254729236   -2.8975608809    1.4792198567
 H    1.1673680360    1.7343311901    0.4984047622
 H   -0.5673471575    2.0490622052    0.2777533700
 H    0.0603906859    1.6009072335    1.8759608622
 H   -1.0805550878   -0.3457765167    0.7707084254
 H    0.0261089086   -0.2169016759   -0.6086959130
 H    0.9675033652   -2.3463168518   -0.2153839990
 H    2.3777179118   -3.7572415059    1.1307708847
 H    2.9016932751   -2.1740578943    1.7483297466
 H    1.9105027452   -4.0906280870    3.4718705920
 H    1.2129441166   -1.3808931826    3.5626225602
 H   -0.7173772209   -3.9387873473    3.3274377889
 H   -1.3098908240   -2.8717003844    1.0260004622