16

 N   -0.0447140942   -1.1157019605    0.1154931177
 C   -0.0444675080    0.0400579924    0.0875541967
 C   -0.0137819067    1.4777165530   -0.0008449968
 O   -0.6203197717    2.2861608675    1.0586293425
 C   -0.0852654072    3.2551611283    0.0844507323
 C    1.2266554209    2.4312916443   -0.0764221133
 C    1.7199822812    2.5108280648   -1.5141051499
 C    0.3582608342    2.4928091807   -2.2799635339
 C   -0.6123949030    2.4069626442   -1.1107374691
 H   -0.2197740127    4.3136995542    0.2987095947
 H    1.9262347552    2.4061747803    0.7572996757
 H    2.2935636545    3.4241044226   -1.6964184927
 H    2.3597109831    1.6633756750   -1.7752828115
 H    0.1978770733    3.3963767655   -2.8750679742
 H    0.2663097227    1.6356778050   -2.9526552332
 H   -1.6874554616    2.3583699827   -1.2751064351