16

 C   -0.0528640281    1.5518919531    0.1016123777
 C   -0.0359004785    0.0381469320    0.0928792860
 C   -1.2869341716   -0.6523695309   -0.3030322285
 O   -2.2965780155   -0.1078352168   -0.6784266997
 C    1.2693168518   -0.7068687956   -0.3377169247
 O    2.3798489529    0.0427894651   -0.6778770956
 C    0.8365122234   -0.7297271720    1.0863743786
 O    1.5663388310    0.0878420750    1.9623546127
 H   -0.0995159050    1.9499765732    1.1184034744
 H    0.8373214301    1.9573832027   -0.3859506676
 H   -0.9364836382    1.8888591900   -0.4441189724
 H   -1.2326706926   -1.7662488915   -0.2473807466
 H    1.1643185260   -1.5917909520   -0.9569214246
 H    2.6582443329    0.4988883307    0.1296399429
 H    0.4318278701   -1.6394422051    1.5269503224
 H    2.2148101912   -0.4654741779    2.4120847449