17

 C    0.0529573923    1.4668467897   -0.0677903461
 N    0.0191016962    0.0205160174   -0.1129414239
 C   -1.0700543430   -0.6034166842    0.0367915838
 C   -2.4640447808   -0.0704908309    0.2748022766
 O   -1.0881642479   -1.9621738082   -0.0076287780
 C    0.1578351079   -2.6091542076   -0.2261794814
 C   -0.1044752325   -4.1019028015   -0.2366133073
 O    0.7603883564   -4.9205294761   -0.4011923547
 H    0.7362456956    1.7886609074    0.7269236225
 H    0.4654060586    1.8491449538   -1.0089191841
 H   -0.9165592364    1.9549763955    0.1005152098
 H   -2.7757027332    0.5809891958   -0.5466078759
 H   -3.1700308317   -0.8966811767    0.3559661566
 H   -2.5021134480    0.5183120136    1.1957593648
 H    0.6064138418   -2.2955753157   -1.1763858111
 H    0.8796528558   -2.3557136616    0.5594361493
 H   -1.1698208111   -4.3809266306   -0.0785339411