15

 C   -0.0012634946    1.5209460205   -0.0418547706
 N    0.0187283691    0.0658053759    0.1201274355
 C   -1.2921948484   -0.5458413029    0.0386533929
 C   -1.8613802278   -0.6710818141   -1.4033636310
 O   -1.2187011320   -0.3766047523   -2.3717843181
 C   -1.3121508771   -1.8862807313    0.6247483299
 C   -1.3396799714   -3.0163483434    1.0510666351
 C   -1.3660826796   -4.2867831224    1.5507473322
 N   -1.3921906438   -5.3680541676    1.9742003279
 H    1.0269632129    1.8886915986   -0.0035483011
 H   -0.4574159526    1.8676868734   -0.9803573137
 H   -0.5440038612    1.9701400223    0.7971214220
 H    0.6099878722   -0.3482397184   -0.5940139376
 H   -2.0071754462    0.0752270386    0.6008115479
 H   -2.8969638593   -1.0671191069   -1.4699085614