21

 C   -0.0243810435    1.5469360000   -0.0177767818
 C   -0.0451434065    0.0191276306    0.0338130472
 O    0.6580948729   -0.5115377692   -1.0982261715
 C    1.6315112979   -1.4567052637   -0.6801035394
 C    1.6177769270   -1.4210769849    0.8320587289
 C    0.6530792457   -0.5864911065    1.2194072507
 C    2.5217888850   -2.2064205896    1.6892703797
 C    3.0126144264   -3.5862166908    1.2836303751
 C    3.9778160502   -2.4382743795    1.3192296937
 H    1.0021707530    1.9182689563    0.0530990943
 H   -0.4590729915    1.8978403790   -0.9582142384
 H   -0.6080728649    1.9673859323    0.8081659349
 H   -1.0965222993   -0.3158698104   -0.0166015333
 H    1.3795026750   -2.4582112576   -1.0677244830
 H    2.6099899188   -1.1858634270   -1.1058110672
 H    0.3792284273   -0.3567627116    2.2420802858
 H    2.3335358072   -2.0782076835    2.7508227912
 H    3.0725251559   -4.3419620875    2.0586842546
 H    2.7106199331   -3.9687602031    0.3152751805
 H    4.3334471131   -2.0399977948    0.3759207320
 H    4.7066680671   -2.3956554284    2.1207723160