25

 C   -0.1050707638    1.5209025069   -0.0008369190
 C    0.0086557358   -0.0107124744   -0.0227969190
 C    0.7128599529   -0.4712987294   -1.3077937373
 C    0.7104015534   -0.5483050353    1.2358320892
 C    0.0433839546   -0.1507191665    2.5815249345
 C    0.4555493999   -1.2322505363    3.5803280178
 C   -0.3359813092   -2.5153218972    3.5793745248
 C    0.9478913267   -2.4314764350    2.7936046558
 C    0.8415376641   -2.0948289482    1.3061385810
 H    0.8883471934    1.9850717610    0.0323018458
 H   -0.6106364212    1.8890417674   -0.8999099238
 H   -0.6680735827    1.8770695135    0.8666914797
 H   -1.0116620883   -0.4248317525   -0.0300958224
 H    1.7463583575   -0.1047519302   -1.3386977861
 H    0.7437438805   -1.5616413309   -1.3892291933
 H    0.2000451528   -0.0854999252   -2.1952822390
 H    1.7317126733   -0.1389619421    1.2510092236
 H    0.3620897700    0.8416271575    2.9122139261
 H   -1.0488617295   -0.1095050635    2.4724175673
 H    0.9417459925   -0.9320286102    4.5018568493
 H   -0.3376137252   -3.1110932473    4.4865047393
 H   -1.2738642309   -2.5400674301    3.0301554918
 H    1.7962116076   -3.0133004887    3.1364883008
 H   -0.0360209805   -2.5765408644    0.8539794127
 H    1.7140596261   -2.4514448788    0.7518729204