16

 C   -0.1023817960    1.5577540854    0.0189194770
 C    0.0546725797    0.0371969057   -0.0014523597
 C    0.8182431662   -0.5025913912   -1.2353719351
 C    1.9064135303   -1.3661785810   -0.6238283492
 O    2.7108869633   -2.0943610193   -1.1524576336
 C    1.7726954897   -1.1507157025    0.8614061728
 N    2.6940727801   -1.7220078223    1.6782205774
 N    0.7809245113   -0.4134775325    1.2035282184
 H    0.8769903243    2.0462687085   -0.0299100313
 H   -0.7016593074    1.9000972967   -0.8310629148
 H   -0.5923428406    1.8750947307    0.9430969393
 H   -0.9475367981   -0.4095221599    0.0394792826
 H    0.2041294502   -1.0851799424   -1.9272974133
 H    1.2857334196    0.2998499305   -1.8172075631
 H    3.2649865058   -2.4416960573    1.2630870062
 H    2.4930084415   -1.7901968292    2.6619386965