16

 N    0.0991772551    1.2853171204   -0.4070171827
 C    0.0854341840    0.0871168378   -0.0129157535
 O    1.1411417739   -0.5771014407    0.5427213285
 C    0.7481756803   -1.8715936099    0.9737539533
 C   -0.2441447164   -1.9219929407    2.0949870369
 C   -0.7065002366   -2.0796245165    0.6589262893
 C   -1.1402576916   -0.8248681173   -0.0658908076
 C   -2.3743166353   -0.1058532642    0.4747382330
 O   -3.1185953213   -0.5739899145    1.2940624689
 H    1.0131524870    1.7135172037   -0.2541111273
 H    1.5309834536   -2.6056338224    0.8354772817
 H   -0.2593278978   -2.8121316556    2.7136020256
 H   -0.4677632683   -1.0004040590    2.6210429112
 H   -1.0867937948   -3.0375997103    0.3306233409
 H   -1.3522048185   -1.0311669996   -1.1243827711
 H   -2.5252691433    0.9014190689    0.0368177430