17

 O   -0.0007888039    1.4210002887   -0.0772380870
 C    0.0508743984    0.0080323495   -0.0436660571
 C    1.0070145230   -0.5204360096   -1.0098856708
 C    1.8261340319   -0.9296687922   -1.7902430362
 C    0.0115627858   -0.6651132590    1.3551121633
 C   -1.4982235056   -0.2866627813    1.5543601425
 C   -1.8804966347   -1.7362659663    1.9128850197
 C   -0.8110036872   -1.8835028101    0.8123614897
 C   -1.3471863238   -0.6348920655    0.0313196527
 H    0.9016146752    1.7506918986   -0.1416015013
 H    2.5385149810   -1.2968459656   -2.4872481011
 H    0.7891950500   -0.6918991047    2.1198228703
 H   -1.8737235421    0.6509344512    1.9591920938
 H   -1.6085248029   -2.0854756916    2.9141256713
 H   -2.8963682385   -2.0553466096    1.6585787464
 H   -0.3950135437   -2.7843340448    0.3627085784
 H   -2.1305831728   -0.6220752276   -0.7268199249