20

 C    0.0031064286    1.5720686061   -0.0254066426
 C    0.0056308329    0.0394238804   -0.0064054144
 C    0.7830105650   -0.4980363489    1.2227493617
 C    2.1897205718   -0.1176430081    1.2235362557
 C    3.3495336119    0.1978157189    1.2034965842
 C   -1.4403475055   -0.5337425264   -0.0249039146
 C   -2.2824139267   -0.0605102598   -1.2279455279
 C   -1.4181093129   -2.0020051440   -0.0015621877
 N   -1.4007166591   -3.1580548619    0.0019939602
 H    1.0247504231    1.9455810720    0.0778651951
 H   -0.4058007590    1.9711462105   -0.9563891594
 H   -0.5875515279    1.9750137729    0.8065944508
 H    0.5172248437   -0.3248824443   -0.9055905756
 H    0.3036262121   -0.1287485265    2.1403471117
 H    0.7078661717   -1.5911596262    1.2544415992
 H    4.3769388771    0.4659869793    1.1978352510
 H   -1.9432187866   -0.2115102669    0.8978814501
 H   -1.7815744121   -0.3014761886   -2.1701359220
 H   -3.2590418255   -0.5502773873   -1.2280603919
 H   -2.4421761928    1.0181872990   -1.1834648936