19

 C   -0.0206896176    1.5215906092    0.0577166217
 C   -0.0257459913    0.0247661696   -0.0196628124
 C   -0.0455051448   -0.6812570137   -1.1537904282
 C   -0.0169590632   -2.1947902280   -1.1715462236
 C    0.1145607188   -2.7608416803    0.2642558226
 O   -0.7284024193   -1.9767939509    1.1129702054
 C    0.0314286188   -0.7793303645    1.2808922366
 C    1.4562334867   -1.3131386037    1.4508775098
 C    1.5012442224   -2.4908548508    0.8351207250
 H    0.8684530214    1.8943803192    0.5837073077
 H   -0.0350749787    1.9744456327   -0.9376535853
 H   -0.8898430219    1.8937649199    0.6157129240
 H   -0.0783137568   -0.1742589627   -2.1160861924
 H   -0.9387954646   -2.5766993746   -1.6301337401
 H    0.8090736994   -2.5532644046   -1.8022710970
 H   -0.2091887393   -3.8034538776    0.3204830815
 H   -0.3711249296   -0.2273066628    2.1347194083
 H    2.2696407464   -0.7604412857    1.9018911340
 H    2.3633163231   -3.1236523709    0.6696584124