15

 O   -0.1573657563   -0.0850913425    0.0024642461
 C   -0.0553300853    1.1144076169    0.0063298165
 C    1.2505631091    1.8776560539   -0.0016532850
 C    2.4725451473    0.9604595764   -0.0169842410
 C    3.7828206595    1.7710605000   -0.0243636385
 C    4.9659235913    0.9132529225   -0.0392305988
 N    5.8923654464    0.2232860918   -0.0507971113
 C   -1.2643491159    1.9679763114    0.0200316081
 N   -2.1967152112    2.6516592360    0.0304809057
 H    1.2340081609    2.5516161807   -0.8703092107
 H    1.2494990906    2.5428628266    0.8739119466
 H    2.4510654913    0.3006446701    0.8546951441
 H    2.4357957604    0.3095364485   -0.8948261381
 H    3.8221904578    2.4293935283   -0.9005080298
 H    3.8376449041    2.4204242494    0.8576476761