21

 C   -0.0054372445    1.5426677099    0.0447865769
 C    0.0414026543    0.0135463730   -0.0164304416
 C    0.7297031367   -0.5121865712   -1.2803497320
 C    0.7668185244   -2.0430766864   -1.3392418308
 N    1.4277728907   -2.5675410168   -2.5383279715
 C    2.8265168782   -2.6314793773   -2.5208576277
 N    3.5511096170   -2.9427241161   -3.5124970683
 C    0.6302285409   -2.9319662617   -3.6221350233
 O    0.9968141974   -3.3421892132   -4.6890553917
 H    1.0029586230    1.9701796414    0.0289335259
 H   -0.5529690313    1.9556042290   -0.8092209517
 H   -0.5001531060    1.8885205500    0.9572598755
 H    0.5625070388   -0.3737373390    0.8692708793
 H   -0.9797640239   -0.3871870474    0.0342046423
 H    0.2140328627   -0.1360160000   -2.1732879417
 H    1.7555183818   -0.1245783630   -1.3346533579
 H    1.2773682519   -2.4448233688   -0.4567827798
 H   -0.2516839267   -2.4426332884   -1.3140446818
 H    3.2061569625   -2.3798471852   -1.5221922187
 H    4.5305264613   -2.9338085350   -3.2298736057
 H   -0.4409494693   -2.8003988241   -3.3640191856