18

 C   -0.0711330916    1.5737827374    0.2240388289
 C    0.0848153447    0.0957929917    0.0512973662
 N   -0.8397644017   -0.9036095388    0.6327823384
 C    0.6120762476   -0.9615586686    0.9466868349
 C    1.3387591396   -1.6375775468   -0.2658730112
 O    0.3621868508   -1.9689552935   -1.2667941867
 C    0.8182886432   -0.6116755615   -1.1655507993
 C    1.3707144622   -0.0011179323   -2.4202452500
 O    2.1661687567   -0.9265566918   -3.1271847875
 H    0.8540550928    2.1042806318   -0.0267514039
 H   -0.8675232405    1.9700753721   -0.4166639859
 H   -0.3221377953    1.8186351769    1.2617730691
 H   -1.2852368790   -0.4496329749    1.4321736295
 H    0.9857061271   -0.8966922377    1.9602821997
 H    2.2721280624   -2.1863399831   -0.2615489615
 H    0.5351059023    0.3741906212   -3.0363690275
 H    2.0043625757    0.8592829324   -2.1760504591
 H    1.6800926230   -1.7612115944   -3.1016214540