18

 C   -0.0447390596    1.4220149865    0.0082774158
 N   -0.0138700040   -0.0180458783   -0.0950718794
 C   -1.2021835286   -0.8340949674    0.0535472034
 C   -0.7159982684   -2.2458855334   -0.3793209551
 C    0.7910058206   -2.2134517472   -0.0366013333
 C    1.1592575686   -0.7309695532   -0.1055088316
 O    2.2751164631   -0.2568427552   -0.1413511844
 C   -1.4679078351   -3.3344434829    0.2229774006
 C   -2.0871928811   -4.2292357382    0.7333536592
 H    0.9804628700    1.7805548992   -0.0984584683
 H   -0.6687900717    1.8594863705   -0.7797360719
 H   -0.4394374514    1.7463662076    0.9802687526
 H   -1.5645342592   -0.8427217586    1.0918638709
 H   -2.0170998178   -0.4708926566   -0.5815961909
 H   -0.8139983646   -2.3067483262   -1.4698315483
 H    0.9742200268   -2.5686672679    0.9830744872
 H    1.4098626678   -2.8052083250   -0.7118409163
 H   -2.6331078954   -5.0242060036    1.1779912495