20

 C   -0.0456884165    1.5677261766    0.1255391074
 N    0.0215880174    0.1255034339    0.1298265021
 C   -1.2242985866   -0.6304744640    0.4087910501
 C   -0.4307885250   -1.5625633215    1.3471528436
 C    0.7372292179   -0.5444275030    1.2393958510
 C    1.6205478029   -1.7263927104    0.7903087081
 N    0.4025671207   -2.5600145521    0.6381368717
 C    0.4373970600   -3.9119634948    1.1436786385
 H    0.9575832007    1.9881185459   -0.0039052224
 H   -0.6579571915    1.9060287311   -0.7175260400
 H   -0.4795590941    1.9972965763    1.0503763278
 H   -1.9720754634   -0.0362286890    0.9598500505
 H   -1.6919868517   -1.0856006401   -0.4705696810
 H   -0.8898581669   -1.8962113523    2.2814300249
 H    1.0834143565    0.1032955515    2.0490566421
 H    2.2045117625   -1.5947764784   -0.1266484465
 H    2.2800932807   -2.0751603200    1.6022969500
 H    0.7425789108   -3.9835422772    2.2066172650
 H   -0.5510470663   -4.3736019799    1.0441383652
 H    1.1424119819   -4.5082536226    0.5542109717