23

 C   -0.1584682650    1.1800733969    0.6168228813
 C   -0.3859379445    0.5312129430   -0.7535120681
 C   -1.5847457540   -0.4038841536   -0.7512531941
 O   -1.9318407737   -0.9600849860   -2.0539538758
 C   -2.1138472245   -2.2523517308   -1.4636518024
 C   -0.8113017576   -2.8077330308   -0.9774582892
 C    0.5041050298   -2.6210513477   -1.7047845962
 C   -1.5778351603   -1.8027001784   -0.1169080390
 C   -2.0298122851   -2.1004030512    1.2847255483
 H    0.6773161939    1.8847377503    0.5819192879
 H   -1.0447914765    1.7314701219    0.9500187907
 H    0.0727920619    0.4306588235    1.3811766148
 H   -0.5732293298    1.3076452019   -1.5061939861
 H    0.5141479669   -0.0015706269   -1.0684736420
 H   -2.4616563379    0.1459686160   -0.3730452860
 H   -2.9924480456   -2.8179362613   -1.7563017666
 H   -0.9412442426   -3.8030582600   -0.5524435831
 H    0.4548505313   -1.7651619925   -2.3801500545
 H    1.3413809491   -2.4759427102   -1.0135604335
 H    0.7250064465   -3.5079232620   -2.3087516379
 H   -1.2437183561   -1.8850973395    2.0185551168
 H   -2.9085874399   -1.5031494571    1.5547604361
 H   -2.2979985063   -3.1559647154    1.3975200887