25

 C    0.0256910215    1.5665136125    0.2015050581
 O    0.2332088081    0.1894921323    0.0035768760
 C    0.6843244902   -0.5248670168    1.1501338648
 C   -0.4515151752   -0.7674431965    2.1500959150
 C    1.2987991085   -1.8320951677    0.6610032411
 C    0.4726810333   -2.7479844087   -0.2880185073
 C    1.7779248744   -3.0414825529   -1.0807198663
 C    1.7143801274   -3.1301217951   -2.5976074507
 C    2.4078305433   -1.7802941540   -0.4243303678
 H    0.9295820024    2.0627068012    0.5896036911
 H   -0.2203235396    1.9986826637   -0.7721504091
 H   -0.8035473171    1.7780616893    0.8925252742
 H    1.4758028580    0.0675390458    1.6436747742
 H   -1.2448594495   -1.3624709763    1.6873045544
 H   -0.0789033793   -1.3089701388    3.0255699408
 H   -0.8892390051    0.1702917730    2.5039306978
 H    1.6424051095   -2.3959290910    1.5351637658
 H   -0.0612253445   -3.5956707124    0.1495605314
 H   -0.2262111272   -2.1539547886   -0.8837639292
 H    2.2561926006   -3.9420216971   -0.6772295386
 H    1.2399821178   -2.2378349029   -3.0215306136
 H    2.7159579392   -3.2151316440   -3.0350009165
 H    1.1352851718   -4.0021671754   -2.9228565004
 H    2.2783466730   -0.8988318036   -1.0586930181
 H    3.4493100684   -1.8374886061   -0.0960229871