15

 C    0.0506218524    1.5872204805   -0.0326931027
 C    0.0178049941    0.0485470856   -0.0350893503
 C   -1.4309930401   -0.5218271924    0.0424175917
 C   -2.1042820752   -0.1644692006    1.2784477064
 C   -2.6497964424    0.1319060023    2.3147210082
 C   -3.2716558482    0.4654937305    3.4838973600
 N   -3.7985948113    0.7510804842    4.4787910183
 C    0.6756053835   -0.4883555950   -1.2302404590
 N    1.1813758151   -0.9096603536   -2.1798905662
 H    1.0802105263    1.9496737080   -0.0660527438
 H   -0.4821104475    1.9880767434   -0.8996004613
 H   -0.4238947556    1.9657216381    0.8757024678
 H    0.5707576853   -0.3220207653    0.8358655742
 H   -2.0095871110   -0.1523448001   -0.8129960597
 H   -1.3985084254   -1.6134624356   -0.0495049936