15

 N    0.0739846715   -1.0765563752    0.2369180919
 C    0.0219337392    0.0618493424    0.0399160032
 C   -0.1269518134    1.4752314031   -0.1792278380
 C   -1.3885650276    2.1941692868    0.3668437579
 C   -1.0717078973    3.6049521114   -0.0892066911
 C   -0.0805281520    3.5722010651   -1.0073206344
 C    1.3310563566    3.6639256480   -0.4164691159
 N    1.2936113478    2.1263746149   -0.4044486727
 C    0.2428545448    2.1407070718   -1.4433557617
 H   -2.2765123683    1.6882541088   -0.0354068825
 H   -1.4753837982    2.1780605280    1.4578974561
 H   -1.1472411110    4.4209670212    0.6237438224
 H    2.1536796480    3.9194739711   -1.0904537990
 H    1.4464986517    4.1603662880    0.5493814763
 H    0.3638652182    1.7083071347   -2.4295784625