20

 C   -0.2845963127    1.4994515600    0.2991831895
 C    0.0158271716    0.0441035120    0.0042046052
 C    0.5782633556   -0.5807349143   -1.2779507095
 C    1.4048122325    0.1819315898   -2.2846056945
 N    1.6629225858    1.6124690115   -1.9954636809
 C    2.6823039084    0.6036492216   -1.6458293741
 C    2.6683944225    0.1546743129   -0.1869495490
 C    1.3593294513   -0.6358568459    0.0203162039
 O    1.4824833966   -1.8570554636    0.6986097993
 H   -1.1786047289    1.8252437134   -0.2440398665
 H   -0.4880642413    1.6229250499    1.3699514298
 H    0.5281135325    2.1607422936    0.0082747156
 H   -0.7367943723   -0.6246041450    0.4221555796
 H    0.0740933210   -1.4705994209   -1.6379030043
 H    1.3595575449   -0.1296770498   -3.3226560828
 H    1.9392816501    2.0793822851   -2.8559118052
 H    3.6243630752    0.6159549551   -2.1848576955
 H    3.4918761121   -0.5427632381   -0.0071031627
 H    2.7844821411    0.9969918448    0.5035653478
 H    1.3516241840   -1.6897396721    1.6379477744