23

 C    0.1778843583    1.5399884001    0.1396615934
 C    0.0459179202    0.0534906129    0.0188595393
 C   -1.0729625934   -0.6785138757   -0.0846826248
 C   -2.4939200923   -0.1937047083   -0.1147147306
 C   -3.1197479688   -0.2557529445   -1.5109155552
 O   -4.4733710979    0.1569210560   -1.3944637608
 C   -0.7587668442   -2.1640461490   -0.1162273237
 C    0.7646755404   -2.2119894746   -0.3700824715
 C    1.2820039364   -0.8231450033    0.0682472716
 H    0.7846665218    1.9487575907   -0.6789414528
 H   -0.7869915011    2.0525498470    0.1275317034
 H    0.6936246729    1.8136685047    1.0697842140
 H   -3.1139557110   -0.8065685983    0.5528754407
 H   -2.5734409224    0.8370787644    0.2442236254
 H   -2.5558853615    0.4004282037   -2.1924180607
 H   -3.0494369372   -1.2795870745   -1.9106995085
 H   -4.8735619181    0.1246218503   -2.2681421876
 H   -1.0291705868   -2.6253370715    0.8459003165
 H   -1.3271499449   -2.7094932436   -0.8790069855
 H    1.2591360003   -3.0371188938    0.1491370409
 H    0.9505282627   -2.3470963338   -1.4405794456
 H    2.0886150270   -0.4507561347   -0.5754528334
 H    1.6943920398   -0.8400039742    1.0886644555