17

 O   -0.0401234989    1.4492378508   -0.0784595772
 C    0.0232664327    0.0486642094    0.0032176549
 C    0.0056436756   -0.6310665657    1.3985276912
 C   -1.4897054549   -0.1875321122    1.5708988067
 C   -2.2379493602   -1.2616089172    2.3500488757
 C   -1.5878132452   -2.5004399133    1.7105999479
 O   -1.7899095295   -3.6628868727    1.9458243320
 C   -0.6254469419   -1.8980183425    0.7150980828
 C   -1.3422693951   -0.6512845081    0.0778914055
 H    0.8556742080    1.7978350433   -0.0420612266
 H    0.7370163253   -0.3680015706   -0.7194715264
 H    0.7842719262   -0.6421829068    2.1640028779
 H   -1.6974694708    0.8610290183    1.7650506558
 H   -2.0594239446   -1.2368249919    3.4301920513
 H   -3.3212155040   -1.2571576760    2.1895028156
 H   -0.0216201130   -2.5697631837    0.1071099112
 H   -2.1219375598   -0.6814481411   -0.6847944085