21

 C   -0.0132896939    1.5976910247    0.0162074025
 C    1.5280651809    1.7119954790    0.0138043341
 C    1.7817482891    1.0381190513    1.3791510279
 C    1.1350749132   -0.3251495059    1.0501486013
 O    2.1491217923   -1.1508069547    0.4605815020
 C    2.9026942561   -0.3989419069   -0.5003817191
 C    1.9689942828    0.6614228228   -1.1026254284
 C    0.6634015977   -0.1344089404   -1.3880211783
 C    0.0046951403    0.0504599352   -0.0103097936
 H   -0.4621233274    2.0414642752    0.9087922017
 H   -0.5082628551    2.0182975382   -0.8631864154
 H    1.9544345567    2.7080893315   -0.1125274857
 H    2.8250150914    0.9178459142    1.6767655655
 H    1.2659191989    1.5745097059    2.1806071863
 H    0.7543604764   -0.8830515206    1.9063313771
 H    3.7997080060    0.0407068235   -0.0411395265
 H    3.2352738838   -1.1097622388   -1.2647363663
 H    2.4151638038    1.1373454121   -1.9779010359
 H    0.0486601286    0.3063651812   -2.1774728883
 H    0.8682109349   -1.1740408162   -1.6495058261
 H   -0.9459890367   -0.4635434911    0.1379842452