23

 C   -1.5014672946   -0.3181534161   -0.1074155845
 C   -0.0114794982    0.0321570031    0.0525828918
 C    0.1796651932    1.5504973408    0.1186924399
 O    0.4757122341   -0.4649937477    1.2991236313
 C    0.8058192094   -0.5436273947   -1.1209779485
 C    2.3578713663   -0.5360671792   -1.0244704640
 C    2.3752023354   -1.9565956703   -1.6507982704
 C    0.8563925767   -2.0852519201   -1.3610545870
 O    0.5575447342   -2.7984148060   -0.1601925237
 H   -1.9085482368    0.0769712700   -1.0449941275
 H   -1.6453763993   -1.4021934031   -0.0998703455
 H   -2.0725353369    0.1082658805    0.7225080243
 H   -0.3440744082    1.9487663395    0.9924962106
 H    1.2394344569    1.8020160771    0.2176867777
 H   -0.2146654136    2.0393195032   -0.7774417395
 H    0.4815504510   -1.4284330587    1.2192382270
 H    0.4732267316   -0.0649226514   -2.0483661611
 H    2.8908248051    0.2496834770   -1.5635259200
 H    2.6777275020   -0.5362674065    0.0193438252
 H    2.5859749599   -1.9474055416   -2.7238294721
 H    3.0134684641   -2.7078299788   -1.1757658922
 H    0.2336277013   -2.4706550810   -2.1782042370
 H    0.9018675964   -3.6931303560   -0.2431221647