18

 C   -0.0199999863    1.5583323501    0.0467254044
 C    1.5355600106    1.5127177001    0.0117352960
 C    1.4399747035    0.0474917199    0.5302239402
 C   -0.0162703513    0.0071490874   -0.0228018717
 O   -0.1176934394   -0.5515746681   -1.3241483290
 C    0.4767558937    0.1608148427   -2.3805556565
 O    1.8389266201    0.4398498010   -2.2032338412
 C    2.1248684622    1.5817898971   -1.4012382092
 H   -0.3818770704    1.8847012936    1.0253193267
 H   -0.5549663739    2.1211590661   -0.7227034757
 H    2.0519790632    2.2399666995    0.6452092189
 H    2.1332961167   -0.6860861634    0.1169033074
 H    1.4512645761   -0.0007636313    1.6225126819
 H   -0.7609973607   -0.5256835916    0.5718493254
 H    0.3998847295   -0.5012653415   -3.2461763910
 H   -0.0721608137    1.0964327982   -2.5817671193
 H    1.7765947211    2.4959903794   -1.9095682453
 H    3.2173036892    1.6212042509   -1.3515011519