12

 C    0.0817455762   -1.1820229776    0.0601419742
 C    0.0475832591    0.0179343049    0.0168269110
 C   -0.0278661968    1.4743563449   -0.0089654611
 C   -0.6246792580    2.0849239958    1.3015056507
 O    0.3994043843    2.9973628626    1.7587484666
 C    1.4118132376    2.8833368260    0.8698850955
 N    1.3144603807    2.1038394620   -0.1236578379
 H    0.1236154015   -2.2429366342    0.0872455482
 H   -0.6178527672    1.7788304852   -0.8817025699
 H   -1.5408719810    2.6539664349    1.1302164574
 H   -0.7945268478    1.3353053643    2.0765403550
 H    2.2708862115    3.5071082612    1.0910824103