15

 O   -0.0317808624    1.4241737657   -0.0417357457
 C    0.0520601690    0.0103740146   -0.0420147530
 C    0.7381087825   -0.4816837453   -1.2512615461
 N    1.3087060599   -0.8052564936   -2.2019552864
 C    0.7251994495   -0.5155448934    1.2341969932
 C   -0.0106597284   -0.1868478955    2.5489395381
 O   -0.2219610685   -1.6134154826    2.7925227233
 C    0.4234771562   -1.9547243240    1.6216760433
 N    0.6408063071   -3.0652070454    1.0891533840
 H    0.8502133654    1.7842692452   -0.1925058356
 H   -0.9845188433   -0.3432503303   -0.0693984709
 H    1.7909609630   -0.2747424732    1.2298308770
 H    0.5912448735    0.2620771377    3.3411393844
 H   -0.9596499923    0.3429623975    2.4415602514
 H    0.2645885789   -3.8355223574    1.6440244529