21

 C    0.3392689776    1.4382449316   -0.1643607462
 C    0.0895793288   -0.0503571007    0.0862864278
 C    0.6686346686   -0.5413618338    1.4167081614
 C    0.8158547996   -2.0813654990    1.5876997416
 C    2.3181462149   -1.7863412456    1.7744255160
 C    3.3174699838   -2.4593835881    0.8571300189
 O    2.1190227388   -0.3868945659    1.4457075131
 C    0.0402019669    0.1187949285    2.5615563181
 C   -0.4874315560    0.6460425866    3.5047827949
 H    1.4112127023    1.6526047057   -0.1374971885
 H   -0.0465396157    1.7359857799   -1.1436689498
 H   -0.1493268946    2.0536746355    0.5964944396
 H   -0.9849727595   -0.2714190697    0.0765362361
 H    0.5509892941   -0.6460684757   -0.7095233585
 H    0.2915263136   -2.5212860391    2.4351664682
 H    0.5791853811   -2.6353438914    0.6762644964
 H    2.6403951732   -1.8827611205    2.8203394176
 H    2.9972009933   -2.3910297044   -0.1870735364
 H    4.2987840686   -1.9827289069    0.9470190117
 H    3.4269301621   -3.5170209759    1.1216817079
 H   -0.9456907415    1.1178770387    4.3387396302