17

 O   -0.0375716002   -0.0861097011   -0.1060429085
 C   -0.0128355596    1.1274634554   -0.1129049705
 C    1.2128887938    1.9095956265    0.0483695228
 C    1.2756189760    3.2628118165    0.0817449612
 C    2.7017986122    3.7368222827    0.3061760362
 C    3.5450776826    2.4664815945    0.0412887959
 C    2.5709365851    1.2806189843    0.2426822814
 C    0.1980005288    4.1694639774   -0.0263496847
 C   -0.6772942557    4.9941641917   -0.1153602819
 H   -0.9388032003    1.7240797268   -0.2475493611
 H    2.9632325958    4.5783902620   -0.3422826212
 H    2.8039744789    4.0969674862    1.3389182271
 H    3.8985230607    2.4770658144   -0.9943992168
 H    4.4260788354    2.4072556025    0.6841254457
 H    2.6427122254    0.8532838433    1.2517939359
 H    2.7429492015    0.4521115775   -0.4497938084
 H   -1.4624599406    5.7051957293   -0.1943963831