13

 O   -0.1230081171    0.4837593342    0.8718803254
 C    0.5285643611    1.4738259426    1.1000222711
 C    1.5447523784    1.9918140432    0.2128000375
 C    2.4024596693    2.4448421097   -0.5105624056
 C    3.3722030314    3.0269396371   -1.4252604513
 O    3.0346656851    3.7773016924   -2.3134101966
 C    4.8073468450    2.6531248030   -1.2045970163
 C    5.3866246516    2.6782087917    0.1559833692
 O    5.0634175616    1.4528412182   -0.4804134470
 H    0.3931075673    2.0698508386    2.0243760077
 H    5.4470939773    2.8529218687   -2.0615942316
 H    6.4477362152    2.8979646781    0.2575439073
 H    4.7587228540    2.9465932625    1.0033339102