25

 C   -0.2485787887    1.5353142591    0.0914971228
 C    0.0293631189    0.0214191949    0.0450745169
 C    0.7727546192   -0.4063809438    1.3242886354
 C   -1.3146107849   -0.7285937660   -0.0217344200
 C    0.8430316302   -0.3539160889   -1.2187051691
 C    2.2304664820    0.2884784945   -1.3711185944
 C    2.9165799817   -0.1700748805   -2.6354490160
 C    4.3647003575   -0.3932950083   -2.7163770587
 O    3.4595470662   -1.4951339797   -2.6250622566
 H    0.6718325464    2.1180485076    0.1971495592
 H   -0.7580708186    1.8727881160   -0.8182334418
 H   -0.8911862650    1.7840691279    0.9431218373
 H    0.1579603153   -0.2132705904    2.2103280031
 H    1.0054578874   -1.4769328272    1.3079496178
 H    1.7125867233    0.1390751449    1.4548688009
 H   -1.8829747823   -0.4448087423   -0.9144906717
 H   -1.1620240423   -1.8129868869   -0.0538454814
 H   -1.9337194978   -0.5037289808    0.8537524025
 H    0.9715180140   -1.4434314647   -1.2422157024
 H    0.2418355365   -0.0992692358   -2.1029450531
 H    2.1500972698    1.3823901718   -1.3994125950
 H    2.8697245660    0.0333095734   -0.5191921081
 H    2.3954111083    0.0769847342   -3.5635054586
 H    4.8810898513   -0.2882962810   -3.6698723743
 H    4.9828113255   -0.2226548179   -1.8353271347