15

 N    0.0796668809    1.3823785634    0.0758555351
 C    0.0338498074   -0.0238617346    0.0105815882
 N   -1.0972875118   -0.7200379964    0.0089571847
 N   -0.6939259038   -2.0086248387    0.0059157717
 C    0.6547327310   -2.1582490708   -0.0079523871
 C    1.1655605279   -0.8755196561    0.0083785134
 N    2.4898461941   -0.4299708326    0.0547344698
 C    3.5894822513   -1.2309746974   -0.0055341745
 O    3.5651736134   -2.4347732050   -0.1591290605
 H    0.3778312795    1.7903889831   -0.8056181124
 H   -0.8436929246    1.7460882871    0.2864888466
 H   -1.3881352251   -2.7346316316    0.0024139615
 H    1.1490065650   -3.1127436896   -0.0186852417
 H    2.6158454016    0.5503437366    0.2612178256
 H    4.5246361432   -0.6484840273    0.0974729595