19

 C   -0.0083157291    1.4857296250    0.2433518923
 C    1.5225994573    1.5553341359   -0.1497116032
 C    1.2622862127    0.2308492772   -0.8476771754
 O    1.9738487351   -0.9796980839   -1.0027486617
 C    0.8992616879   -1.6548635368   -1.7090267694
 C    0.8797804464   -0.8950865266   -3.0467020677
 C    0.3387741551    0.2317779265   -2.1684217793
 C   -0.4280028229   -0.7859569345   -1.2648452640
 C    0.0136030742   -0.0732960138   -0.0032920790
 H   -0.2390696291    1.7690709059    1.2706056288
 H   -0.6535454561    2.0538862248   -0.4282046242
 H    1.8748295164    2.3994940055   -0.7481927062
 H    2.1575557623    1.4438925632    0.7339549920
 H    0.9901935570   -2.7348962914   -1.6085181322
 H    1.8383653799   -0.7848257045   -3.5599621152
 H    0.1090397735   -1.2622264500   -3.7306716340
 H   -0.0646253821    1.1703998507   -2.5408956710
 H   -1.3981795870   -1.2261031874   -1.5029143905
 H    0.1397624986   -0.6421937858    0.9203444398