14

 C    0.0286117003    1.3817709027    0.0836510253
 N    0.0199059325   -0.0619168520   -0.0168434842
 C   -0.1767976626   -0.8059521869   -1.1476174563
 C   -0.0803761631   -2.1217227311   -0.7314513159
 N   -0.1272435266   -3.4724000849   -1.0800874974
 C    0.0882791346   -4.0645726280    0.0464438811
 O    0.2834268831   -3.2675702488    1.1628558861
 C    0.1706148415   -2.0184306748    0.6378831991
 N    0.2407383125   -0.7943915440    1.1180631999
 H    1.0101234454    1.7347271661    0.4117957812
 H   -0.1977422211    1.8030007677   -0.8969807287
 H   -0.7245822216    1.7128961728    0.8031100709
 H   -0.3592695142   -0.3347732432   -2.0990788502
 H    0.1369732592   -5.1264792757    0.2325073489