25

 C   -0.0096140427    1.4889476210   -0.0034837069
 C    0.0135884632   -0.0300992408   -0.0177032834
 O    0.6779812746   -0.4613921598   -1.1860329458
 C    0.7573556679   -1.8649907248   -1.3004981630
 C    1.4927391761   -2.2360136319   -2.5977011707
 C    0.7209084888   -1.6882950494   -3.8115054322
 C    2.9215944444   -1.6644049955   -2.5707847376
 C    1.5467048305   -3.7709877989   -2.6637725185
 O    2.2209839923   -4.1571186307   -3.8527642233
 H    1.0085809438    1.8883150439   -0.0111116768
 H   -0.5341563672    1.8728956157   -0.8830957788
 H   -0.5198145204    1.8545676212    0.8926940270
 H    0.5290715694   -0.4178453758    0.8779327315
 H   -1.0135977821   -0.4332696509    0.0063323673
 H    1.2905885484   -2.2851990467   -0.4289950446
 H   -0.2574382288   -2.3015868466   -1.3018924815
 H    0.6553713604   -0.5991995297   -3.7617361265
 H    1.2178820496   -1.9744929986   -4.7409221080
 H   -0.3003295647   -2.0865655925   -3.8385644369
 H    3.4795007155   -2.0449612741   -1.7069567335
 H    3.4644969785   -1.9507469318   -3.4740990904
 H    2.8950583729   -0.5748378360   -2.4997998220
 H    2.0703002007   -4.1587477466   -1.7741662546
 H    0.5210831893   -4.1756266218   -2.6472441032
 H    2.2484470195   -5.1172034788   -3.8840978774