20

 C   -0.0965452450    1.4736660379    0.0916415504
 N    1.1945080089    0.7552881596    0.1287754659
 C   -0.0613265823   -0.0013682531   -0.0031607284
 C   -0.4155284273   -0.9376782841    1.1445956716
 O   -0.2023379560   -2.2519761602    0.6368194376
 C   -0.5182144778   -2.2477577661   -0.7426700273
 C   -2.0330485577   -2.2559534145   -1.1092685248
 C   -1.9009956394   -0.8154681436   -1.6831645988
 C   -0.3987786536   -0.7777508339   -1.2635856383
 H   -0.3754771674    1.9578440856    1.0244167365
 H   -0.3590281761    2.0371281476   -0.8007361780
 H    1.6549870836    0.8312848386   -0.7757345653
 H    0.2309059135   -0.7910997248    2.0121976997
 H   -1.4649483228   -0.8011488377    1.4531617774
 H    0.0864570202   -3.0204450077   -1.2218837336
 H   -2.3209610119   -3.0198157302   -1.8352091950
 H   -2.6814934327   -2.3518935322   -0.2352144600
 H   -2.0492274733   -0.7524601687   -2.7634377161
 H   -2.5288346702   -0.0562393641   -1.2094302273
 H    0.3091137072   -0.5814390985   -2.0722754964