17

 O   -0.0815826168    0.0342481554   -0.3483221942
 C   -0.0056947620    1.2202372639   -0.1672640337
 O   -1.1153542597    2.0048305346   -0.0162488448
 C   -0.7217904879    3.3610113302    0.1841693794
 C    0.7744787475    3.3401344794    0.1423115073
 C    1.2046396146    2.0897807716   -0.0628360966
 C    2.5811894478    1.5877070773   -0.1758377948
 C    2.9800270733    0.2203968601    0.3595129275
 C    2.9424457839    0.4502776272   -1.1197393570
 H   -1.1663222086    3.9800942613   -0.6060152145
 H   -1.1210539942    3.7080157792    1.1461705369
 H    1.3793691679    4.2292474311    0.2649435271
 H    3.3315513310    2.3659196436   -0.0739736672
 H    3.9408050409    0.1546489254    0.8574186612
 H    2.1947871782   -0.3947403610    0.7798160394
 H    2.1326162716   -0.0144413725   -1.6673335563
 H    3.8768225525    0.5460436233   -1.6611241396