18

 C   -0.1107932386    1.5417591682    0.1617250530
 N    0.0345050573    0.1030951157    0.1238208155
 C   -1.1685923707   -0.7135035796    0.4128968849
 C   -0.3448670721   -1.5918134765    1.3869221142
 O    0.4527074748   -2.5992396690    0.7188461049
 C    1.6225537894   -1.7383980115    0.6868518277
 C    0.8061204247   -0.5477018623    1.2018404097
 C   -0.9388989331   -2.0316705739    2.6213327467
 C   -1.4452000074   -2.3831892286    3.6539819440
 H    0.8670003009    2.0169884670    0.0313366322
 H   -0.7506893805    1.8660941261   -0.6655267893
 H   -0.5553910859    1.9200694064    1.1019845251
 H   -1.9551549440   -0.1577918177    0.9441411971
 H   -1.5965952850   -1.2316713529   -0.4506424563
 H    2.3944407715   -2.1016111490    1.3773853249
 H    2.0301743504   -1.6283886281   -0.3221675200
 H    1.2016625694    0.0973949332    1.9887729138
 H   -1.8895579411   -2.7021225774    4.5644440218