17

 C   -0.0325644454    1.4687329197    0.0923711254
 C    1.2913151669    0.7560451444    0.0176434092
 C    2.0552625815    0.4459157279    1.3235184513
 C    1.0955781944   -0.4575923223    2.0570378951
 C   -0.0031892454   -0.7450229594    1.2777278238
 N   -0.8010032603   -1.5600520612    1.9991667456
 N   -0.2755430006   -1.8359464012    3.2209030010
 C    0.8731365506   -1.1548166629    3.2601624019
 C   -0.0175104718   -0.0459869209   -0.0229767987
 H   -0.3498525998    1.8973098197    1.0375609523
 H   -0.3390084837    2.0299666623   -0.7846433673
 H    1.8684505341    0.8808599995   -0.8911293793
 H    3.0087870280   -0.0498246168    1.1027439066
 H    2.2986879923    1.3632644878    1.8726133610
 H   -1.6845216688   -1.9706844116    1.7509991806
 H    1.4854168159   -1.2144125371    4.1484439044
 H   -0.3776741580   -0.5232972080   -0.9269109130