17

 C   -0.0378656217    1.5995643611   -0.0789607477
 C    0.0558453311    0.0833781268   -0.0153071093
 O   -1.1859070257   -0.5251757140   -0.2918640004
 C    1.1302682892   -0.6690771836   -0.8414115880
 N    1.6831203457   -1.3808718815    0.3696379498
 C    2.1996140781   -0.3292050199    1.2484600940
 C    0.7323194835   -0.5520292602    1.2300938458
 C   -0.0170952733   -1.0733215652    2.3314316003
 N   -0.6758681055   -1.4349427274    3.2115808390
 H    0.9268011572    2.0805949693    0.1026503700
 H   -0.3978090220    1.9046311807   -1.0660418285
 H   -0.7448650012    1.9718180934    0.6718672100
 H   -1.8287549411   -0.2285350412    0.3636554645
 H    0.6740855998   -1.3840661040   -1.5251389149
 H    1.8757895076   -0.0622346578   -1.3632760030
 H    2.7447079591   -0.7132009040    2.1048919911
 H    2.6059103392    0.5827245375    0.8162727372