13

 N   -0.1170583454    1.2959682961   -0.2110917781
 C    0.0154786174    0.0330596235   -0.0364433708
 C    1.2282440451   -0.7373656520    0.1546568574
 C    1.1448058601   -2.0639488414    0.3214701611
 O   -0.0087433550   -2.7613522723    0.3262635813
 N   -1.2222873120   -2.1096123704    0.1505801560
 C   -1.2013296515   -0.8215115068   -0.0158893867
 C   -2.4796745689   -0.2169579703   -0.1902398735
 C   -3.5574455311    0.2939266362   -0.3373792071
 H    0.7981388517    1.7525097141   -0.2022744258
 H    2.1949917619   -0.2484565968    0.1631048678
 H    1.9862009171   -2.7306802439    0.4713020453
 H   -4.5063519095    0.7533475241   -0.4681372369