21

 C    2.6186633025    1.6014367667    0.4851790637
 C    1.3450691067    1.4093685686   -0.3457207214
 C    1.4642313296    0.4095406804   -1.4624424555
 N    2.1562878007   -0.8946486818   -1.3427660831
 C    2.5624370130    0.0725003492   -2.3990180356
 C    1.5495472497   -0.0232043196   -3.5782296970
 N    0.5292011617   -1.0528688302   -3.2458254997
 C    0.4328911434    0.3080099325   -2.6645577047
 C   -0.7748898102    1.1756018146   -2.8369241772
 H    2.8904925647    0.6935547270    1.0335888949
 H    3.4670640191    1.8841886802   -0.1470093516
 H    2.4761018580    2.3945981782    1.2245813749
 H    0.5207122395    1.1098585880    0.3164798498
 H    1.0503178468    2.3767298980   -0.7724244522
 H    2.8416474749   -0.7899630410   -0.5935978924
 H    3.5759393520    0.4478901477   -2.4619861044
 H    1.7337433624    0.2867506020   -4.5993018277
 H   -0.1209905474   -1.0674675526   -4.0338610502
 H   -1.5950405613    0.8575815717   -2.1819937518
 H   -0.5555821779    2.2244152152   -2.6094621836
 H   -1.1362304878    1.1312876953   -3.8703437652