17

 C    0.3343509016    1.3053677311   -0.8538787837
 C    0.1219310914   -0.0173019794   -0.2820643672
 C   -0.0429310555   -1.1096365216    0.1966550294
 C   -0.2408628641   -2.4342137605    0.7783812667
 C   -1.5178543623   -3.1061623634    0.3517130922
 C   -2.4964525029   -2.6496693339   -0.4906788802
 N   -3.4380772477   -3.6565128104   -0.5339409948
 C   -2.9922240593   -4.6597324116    0.2718124268
 N   -1.8382340933   -4.3622121565    0.8216908077
 H    1.2800087652    1.7387230408   -0.5094690453
 H    0.3692111912    1.2683288459   -1.9485065660
 H   -0.4666129350    1.9978571181   -0.5715456179
 H    0.6059098603   -3.0845438332    0.5197592932
 H   -0.2252550646   -2.3652843145    1.8746699699
 H   -2.6032673665   -1.7323610139   -1.0429078041
 H   -4.2933315411   -3.6476892977   -1.0631625051
 H   -3.5475752875   -5.5745423894    0.4166118086