21

 C   -0.0160656470    1.4644683550    0.0769135135
 C   -0.0030598367   -0.0402869349   -0.0326075310
 C    1.0517950473   -0.7249123731   -0.9110349170
 C    0.4171889671   -2.0892446839   -1.2977220524
 C   -0.6963554730   -2.2408202555   -0.2700900253
 O   -0.0827407441   -2.2139652443    1.0634360910
 C   -0.4610055035   -0.8424349029    1.1790070914
 C   -1.3084031278   -0.8321346482   -0.0577976805
 C   -2.6952654142   -0.3693776440   -0.3843171492
 H    0.9439120825    1.8365573630    0.4527329149
 H   -0.1972633154    1.9374539986   -0.8956209099
 H   -0.7928597747    1.8150726298    0.7649225961
 H    1.2743182128   -0.1146523924   -1.7923775706
 H    1.9914237676   -0.8625202556   -0.3666030836
 H   -0.0089280422   -2.0613948188   -2.3080674368
 H    1.1270012044   -2.9199421027   -1.2528991917
 H   -1.3651820255   -3.0971160244   -0.3839229466
 H   -0.5985737464   -0.4323759139    2.1747513397
 H   -2.8620522062    0.6561015670   -0.0400258757
 H   -2.8770202445   -0.3831104188   -1.4661486061
 H   -3.4534670006   -1.0042558501    0.0879570797