17

 C   -0.0508772450    1.5685427696   -0.1771245736
 C   -0.1337297677    0.0509260181   -0.2315096768
 C   -0.1671081952   -0.7501329690    1.0439025762
 C   -1.4021211968   -0.6484295420    0.1805115459
 C    1.3522528739    2.0569638746   -0.0189653829
 N    1.8621312915    2.5246311005    1.1172565172
 N    3.1102022518    2.7860997030    0.7492258763
 N    3.3849483574    2.5137667921   -0.5167512798
 N    2.2734935628    2.0470539241   -1.0214907823
 H   -0.4679994897    1.9951657212   -1.0962294574
 H   -0.6443949904    1.9456182076    0.6611556184
 H    0.4141527554   -0.3867938370   -1.0607057632
 H    0.3651514657   -1.6942051308    1.0745271299
 H   -0.1584686766   -0.2056167767    1.9825473648
 H   -2.2237433150   -0.0384314479    0.5420946817
 H   -1.7140952008   -1.5216686958   -0.3814465935
 H    3.7974242388    3.1732383284    1.3783722492