17

 N   -0.4350059800   -1.0763218385   -0.0485386383
 C   -0.2225232017    0.0468321274    0.1291029818
 C    0.0239701149    1.4563255976    0.3201423055
 C    1.0510112530    1.8810082548    1.3301990285
 N    1.2962145221    2.0614967924   -0.0866580623
 C    2.3055674471    1.2132346117   -0.7208690440
 C    3.6364750395    1.9299938443   -0.7062554230
 C    4.6744978360    1.6233743791    0.2867288513
 O    4.7667830223    1.1357373648   -1.0530896178
 H   -0.8490837095    2.0799553721    0.1494835962
 H    0.8771255569    2.7821213083    1.9107857047
 H    1.5789616574    1.0834802394    1.8498401782
 H    2.4123853004    0.2273756987   -0.2431876871
 H    1.9952417508    1.0428083866   -1.7578115467
 H    3.6231995228    2.9267641710   -1.1476476404
 H    5.4043399526    2.3838876436    0.5594172166
 H    4.4877098853    0.8640776470    1.0454683870