19

 O    0.0507403768    1.3657551664    0.2207950791
 C   -0.0244193358   -0.0192115833    0.0131880538
 C   -1.4614734694   -0.5240585654    0.0348609782
 C   -2.3805444176   -0.1506372334   -1.0942483192
 C   -1.9194011906   -1.5823064876   -0.9550120280
 C   -0.9547472372   -2.1804094679   -1.9805959430
 C    0.5309186013   -1.8544341471   -1.6872488464
 C    0.6685974076   -0.4059639222   -1.2913483757
 O    1.2532647072    0.4367463590   -1.9390732780
 H    0.5985457863    1.6989336243   -0.5085756262
 H    0.5315489932   -0.5480672378    0.8098001496
 H   -1.8980545321   -0.5577039213    1.0279808836
 H   -3.4116110868    0.0929959061   -0.8650091031
 H   -1.9577077592    0.4368727509   -1.9044045349
 H   -2.6603474979   -2.2788876102   -0.5755912425
 H   -1.0696777563   -3.2679631940   -2.0078906382
 H   -1.2058023449   -1.8197118112   -2.9841860609
 H    0.8680492500   -2.4703023488   -0.8444816805
 H    1.1670771152   -2.0634449664   -2.5499483077