18

 C   -0.0736081389    1.5421648808    0.1802373814
 C   -0.0794134425    0.0119914174    0.1944284105
 C   -1.4409019914   -0.5955884229   -0.1215304921
 C   -1.5024261487   -2.1448477195   -0.0305954339
 N   -2.4459529801   -2.4384302430    1.0548589287
 C   -2.8693635970   -1.3094570510    1.4656301473
 O   -2.4115921470   -0.1697574170    0.8771727526
 C   -3.8121003403   -1.1174024402    2.5170123354
 C   -4.6069041843   -0.9448783350    3.4009197467
 H    0.9194437377    1.9333942278    0.4195622510
 H   -0.3571896801    1.9293922483   -0.8047561152
 H   -0.7825150416    1.9378438996    0.9122992799
 H    0.6348197136   -0.3777387831   -0.5427100955
 H    0.2471972625   -0.3616565543    1.1731897893
 H   -1.8061363586   -0.2230826398   -1.0848967243
 H   -1.8525670424   -2.6097976542   -0.9583832476
 H   -0.5235217335   -2.5816782669    0.2006933573
 H   -5.3105545675   -0.8021582571    4.1840609283