23

 C   -0.2367466640    1.5343224061   -0.0073041790
 C    0.0387083120    0.0358390715    0.0094310247
 C    1.1706422270   -0.5130494413   -0.9139033614
 C    0.9127068426   -1.9108566502   -1.5526369146
 C    1.7157069799   -2.5999613846   -0.4029033073
 C    1.8489800622   -1.2426597693    0.2998861568
 C    2.9799594210   -0.6418856872    1.1366701628
 C    1.9208082888    0.2098593634    1.9040069363
 C    0.7645453139   -0.6009744553    1.2336799522
 H    0.6773964802    2.1243730174    0.1141065539
 H   -0.6894537681    1.8311320624   -0.9601263122
 H   -0.9270384671    1.8222402095    0.7938356230
 H   -0.9041204951   -0.4899946997   -0.1859810399
 H    1.7015478286    0.2128480661   -1.5355710649
 H   -0.1440096713   -2.1882471254   -1.6098930599
 H    1.3513427166   -2.0432786639   -2.5444900063
 H    1.2085081355   -3.3924571534    0.1565960377
 H    2.6789884159   -2.9926342559   -0.7451255516
 H    3.4545832561   -1.3858103331    1.7859635139
 H    3.7695861678   -0.1065982663    0.5991027897
 H    1.9610955039    0.1220146736    2.9918624076
 H    1.9339484089    1.2729872531    1.6548378286
 H    0.1588934446   -1.1901760475    1.9271568400