17

 C    0.0260369012    1.4441057646    0.0923917671
 O    1.3170879453    1.9444336382   -0.2467123742
 C    2.2285849956    2.0870454718    0.8178672919
 C    2.4324495612    0.9292946583    1.7822057646
 O    1.3315750524    0.5655719244    2.6179251424
 C    1.8348535513   -0.4222099969    1.7218962778
 C    0.9184382638   -0.9185822749    0.6371627965
 O   -0.4861986016   -0.9119815526    0.9126230393
 C    0.0089268951   -0.0587343520   -0.1245016196
 H   -0.2476653392    1.6735949649    1.1261175179
 H   -0.6814939706    1.9358453694   -0.5825286618
 H    3.1927702579    2.3091929051    0.3470463544
 H    1.9614945486    2.9585736913    1.4408296457
 H    3.3766258748    1.0224736314    2.3263863773
 H    2.3823171475   -1.2236958414    2.2223198710
 H    1.2772211293   -1.8325226471    0.1617068032
 H   -0.2581032625   -0.3857220643   -1.1299909136