18

 C   -0.0187518235    1.5746733637    0.1685457137
 C   -0.0447440253    0.0633108314    0.0819190366
 C   -1.3116183600   -0.5389629969   -0.4916720067
 O   -1.5168740154   -0.2238690333   -1.8644443729
 C    1.2387309747   -0.6899872341   -0.2356505442
 O    2.4605472997   -0.0033066099   -0.3013207309
 C    0.6717969976   -0.7463179812    1.1578975398
 O    1.3790321525   -0.0961512722    2.1649629677
 H    0.8290321117    1.9252614269    0.7584937516
 H    0.0383401010    2.0392284021   -0.8239900915
 H   -0.9282740688    1.9432518778    0.6569364031
 H   -1.2630548360   -1.6325559156   -0.4488694408
 H   -2.1756616053   -0.2304055113    0.1185540837
 H   -1.7241726749    0.7136002690   -1.9228189097
 H    1.1774871106   -1.5620904896   -0.8843660985
 H    2.4279912548    0.6222720837   -1.0321073216
 H    0.2064113669   -1.6664717087    1.5026671191
 H    2.2251408397    0.1622799783    1.7735526314