19

 C    0.8165159647    1.0594987941    0.6514092151
 N    0.0584593045   -0.0288127837    0.0564401178
 C   -0.2369240451   -1.2270843909    0.8369424004
 C   -1.5885724561   -1.2032714054    1.5224361723
 C   -1.8944154150   -0.1396370719    2.5386098471
 N   -2.3828295132   -2.1333342690    1.1490777544
 O   -3.6239900812   -2.0833518542    1.7913295970
 C   -0.3409985734    0.0556874987   -1.2474402817
 O   -0.1489156771    1.0009574718   -1.9830344334
 H    1.7706346240    0.6917409438    1.0471720673
 H    1.0053732761    1.7937462016   -0.1320586718
 H    0.2668377002    1.5427164448    1.4666894108
 H   -0.2099604109   -2.1046929114    0.1859048201
 H    0.5588428613   -1.3422200571    1.5831702974
 H   -2.0831440632    0.8194022440    2.0423314048
 H   -2.7767441800   -0.3996423349    3.1220397971
 H   -1.0432820549    0.0047334293    3.2119454817
 H   -4.0745789811   -2.8497607398    1.4210407482
 H   -0.8714467298   -0.8605550397   -1.5702655445