18

 O   -0.2241765843    1.4786466791    0.1366283495
 C   -0.0016871722    0.0782553502    0.2390557352
 C   -1.3471812755   -0.5825402886    0.0690179518
 C   -1.8348748507   -1.1753262613   -1.2068211998
 N   -0.8444570391   -1.3949748816   -2.2553958827
 C    0.0517138194   -2.4832006656   -1.8419182168
 C   -0.4022443008   -2.9498390759   -0.4455208761
 O    0.0679086602   -3.8868286225    0.1511549323
 C   -1.5568862576   -2.1019341654   -0.0265861887
 H    0.6260528770    1.9214781300    0.2128912652
 H    0.6994077637   -0.2645792736   -0.5330059113
 H    0.4200459172   -0.1860953257    1.2215398872
 H   -2.1130352873   -0.1041868647    0.6736510726
 H   -2.8404877225   -0.9611234909   -1.5493508449
 H   -1.3172826529   -1.6322340476   -3.1162720099
 H    0.0069654616   -3.3430702133   -2.5201652533
 H    1.1023427299   -2.1695789354   -1.7974275450
 H   -2.3046066060   -2.5580278073    0.6100634345