19

 N   -0.0153618403    1.5069673681    0.0933195112
 C   -0.0482466260    0.0410458110   -0.0538205617
 C   -1.4885672748   -0.4954128986    0.0767654094
 C   -2.1119319970   -0.1842119006    1.4433930268
 O   -2.3733122592    1.2014601838    1.6120287368
 C   -3.4610888227   -0.8769235150    1.6346627064
 O   -4.0330286892   -0.5269477329    2.8749852788
 C    0.5691992567   -0.4130154951   -1.3169946637
 N    1.0513838060   -0.7309567213   -2.3184716379
 H    0.9443098682    1.8384547386    0.1205564102
 H   -0.4533536203    1.9433540769   -0.7142528384
 H    0.5479182609   -0.3767271796    0.7665420669
 H   -2.1111466748   -0.0635414192   -0.7157685472
 H   -1.4652279588   -1.5792845517   -0.0816998675
 H   -1.4323175831   -0.5425817647    2.2368951441
 H   -1.5473853733    1.6674144391    1.4057688961
 H   -4.1202498275   -0.6053051523    0.7926448509
 H   -3.3338012319   -1.9646736811    1.6279630290
 H   -3.9401087730    0.4320810446    2.9384208397