14

 O    0.4076541192    0.9392450756    0.6843347349
 C   -0.0656351096   -0.1753400457   -0.0186445777
 C   -1.5530297028   -0.1198305093   -0.2476535935
 C   -2.0783513538   -0.8500347318   -1.2238787765
 C   -1.1806296761   -1.6667177471   -2.1062758707
 O    0.1253581036   -1.0797937973   -2.2997559212
 C    0.6632419822   -0.2937138115   -1.3602593817
 O    1.6916993183    0.3018140411   -1.5618274632
 H    1.2294721074    1.1938077187    0.2359409689
 H    0.1670746250   -1.1064771172    0.5366771787
 H   -2.1347915114    0.5081798415    0.4175904407
 H   -3.1443625828   -0.8894589533   -1.4198977564
 H   -1.0398612749   -2.6822401350   -1.7094252935
 H   -1.5899308344   -1.7650094484   -3.1148589088