19

 C   -0.0931990317    1.5804743095    0.1600074575
 C    0.0022483601    0.0790755922    0.0071129441
 C    0.5646417089   -0.5918504302   -1.2159857318
 C    1.0893077383    0.1927193418   -2.4112310633
 C    1.8565119577   -0.6444866238   -3.3287471860
 C    2.4729114597   -1.3508858253   -4.0805044664
 C    1.3447335965   -0.6521344523    0.0969531312
 C    2.5640764996    0.0822955173    0.2591781767
 C    3.5894253409    0.6963582117    0.4031563968
 H    0.7958928615    2.0899290037   -0.2172522104
 H   -0.9661658184    1.9728219007   -0.3730062440
 H   -0.1978816554    1.8508426412    1.2157186944
 H   -0.8159850788   -0.4598664519    0.4779707029
 H    0.0955978928   -1.5298764469   -1.4971685383
 H    0.2449737971    0.6409627094   -2.9517579862
 H    1.7181120159    1.0224883298   -2.0719249080
 H    3.0283711791   -1.9654800295   -4.7443323797
 H    1.3318944245   -1.6105387877    0.6076847361
 H    4.4997908416    1.2276905503    0.5295555543