17

 O    0.0003625562    1.3300995203    0.1648585033
 C    0.0496613679   -0.0335621167    0.1801671580
 C   -0.0977748305   -0.8901816828   -1.1870065257
 C   -1.0802931536   -0.9703326674   -0.0259426196
 C   -0.1370141204   -2.1028692321    0.4718488828
 C    0.4971490724   -2.3151748044   -0.9187493850
 C    2.0132730117   -2.5193374929   -0.5664936390
 C    2.1814585090   -1.4187428339    0.4867601924
 C    0.9435403112   -1.0549199183    0.8755354933
 H    0.8365124369    1.6678137657   -0.1778172367
 H   -0.2150328439   -0.3501248805   -2.1201868633
 H   -2.1524762640   -0.8431877169    0.0162436367
 H   -0.4077358650   -2.9004659404    1.1610034027
 H    0.0700422391   -3.0749373403   -1.5825010045
 H    2.1666063969   -3.5598846757   -0.2453536004
 H    2.7175505455   -2.3401217930   -1.3885576934
 H    3.0271102205   -0.7388780207    0.4430805384