21

 C   -0.0342438411    1.5397683185    0.0324587842
 C   -0.0131853540    0.0138549346    0.0350022664
 C    0.7115482991   -0.5708227684   -1.2403415189
 C    0.7019000706   -2.1179715416   -1.1824328475
 C   -0.0323714081   -2.5665574410    0.1368450024
 C    0.7392023582   -1.9109739091    1.2688697939
 C    0.7475415042   -0.5813297723    1.2138089114
 C   -1.4148903688   -1.9427045296    0.0592643811
 C   -1.4020022662   -0.6129936576    0.0067500339
 H    0.9818309546    1.9485319179    0.0194926472
 H   -0.5604054560    1.9258220664   -0.8471903489
 H   -0.5404877587    1.9272780520    0.9231464575
 H    0.1977192587   -0.2071264659   -2.1356202445
 H    1.7350089847   -0.1844100513   -1.2725019097
 H    0.1816947494   -2.5409985395   -2.0465038199
 H    1.7197099959   -2.5182797305   -1.1827067562
 H   -0.0619100023   -3.6540228955    0.2180018635
 H    1.2614329689   -2.5032939602    2.0115487457
 H    1.2758855965    0.0657859135    1.9063267818
 H   -2.3073657173   -2.5558547459    0.0075640627
 H   -2.2825789583    0.0133764155   -0.0919121760