19

 C    0.0573052511    1.3943452248    0.0736864593
 O   -0.1132580781    0.0086026924   -0.1224767929
 C    0.6590109006   -0.5523359377   -1.1768737968
 C    2.1358124672   -0.6956962251   -0.8009479345
 C    0.0277132485   -1.9079144219   -1.4992118743
 C   -1.4534017705   -1.7723306880   -1.9009087845
 C   -2.0768070581   -3.0609227227   -2.1885206346
 N   -2.5550771259   -4.0885046684   -2.4145241883
 H    1.0636757010    1.6500613393    0.4334862540
 H   -0.1332386274    1.9613972000   -0.8509561631
 H   -0.6681422365    1.7018490749    0.8307361871
 H    0.5762372533    0.1004030209   -2.0647123713
 H    2.6966701750   -1.1554649987   -1.6205868560
 H    2.5932963519    0.2749937508   -0.5917296783
 H    2.2410882881   -1.3244540384    0.0886260569
 H    0.5907403900   -2.3866407634   -2.3062723209
 H    0.1062527319   -2.5555336757   -0.6195242330
 H   -2.0009444958   -1.2786733212   -1.0931155662
 H   -1.5505791264   -1.1348425117   -2.7880293626