18

 C   -0.0782248619    1.5166832958    0.0120875905
 C    0.0996695610    0.0092057047    0.0040437051
 O    1.1787039834   -0.5246813647   -0.0054327067
 C   -1.2108377000   -0.8002817769    0.0087995029
 N   -1.0285454011   -2.2245798009   -0.0005250707
 C   -0.8779031005   -3.0017909494   -1.1252145261
 C   -0.6320906083   -4.2933262441   -0.7267212839
 C   -0.6209022150   -4.3012396575    0.6962643454
 C   -0.8602849670   -3.0142367948    1.1129220048
 H    0.8982612798    2.0014298243    0.0099751459
 H   -0.6514126288    1.8404365914   -0.8641837751
 H   -0.6438032084    1.8322817140    0.8962239631
 H   -1.7946891840   -0.5085035467    0.8905391642
 H   -1.8072286406   -0.4986830004   -0.8611316505
 H   -0.9615558992   -2.5637809483   -2.1073620626
 H   -0.4851319803   -5.1387628739   -1.3810146708
 H   -0.4637062404   -5.1538768193    1.3387274699
 H   -0.9282264286   -2.5871582032    2.1010784844