16

 O   -0.2387394438    0.0034547126   -0.0272650353
 C   -0.0188561194    1.1851160663    0.0361325057
 C    1.3362906151    1.8286684925   -0.1384018671
 C    1.3127317415    2.9382008045   -1.2119931279
 C    2.5858676519    3.7187265065   -1.2456741164
 C    3.4851446543    3.8825611385   -2.2458973550
 O    4.4941770492    4.6883906306   -1.7913372058
 C    4.1430669746    4.9691931559   -0.5184202289
 N    3.0340022337    4.4321613301   -0.1322924074
 H   -0.8439102566    1.9101631350    0.2374019963
 H    1.6155786747    2.2899893592    0.8185973353
 H    2.0719591780    1.0553898542   -0.3745347047
 H    1.1236549893    2.5028567207   -2.1986130756
 H    0.4799021138    3.6213238443   -0.9997532982
 H    3.5660904342    3.5356071581   -3.2613927974
 H    4.8113488895    5.6049686310    0.0409520726