13

 N    0.0159288850    1.3283932828    0.1676652971
 C    0.0016456457   -0.0389358039    0.0357388063
 N   -1.1167161893   -0.6785582767   -0.0198474047
 O   -1.0393199854   -2.0716723309   -0.0442890297
 C    0.1713573646   -2.7662470926   -0.0154674910
 N    0.1715026332   -4.0306950929    0.0051091322
 N    1.3516109294   -2.0382329405   -0.0247152536
 C    1.2721128601   -0.7669314170    0.0039455550
 O    2.3691277450   -0.0006756542   -0.0156251056
 H    0.8252740220    1.7963686971   -0.2096758804
 H   -0.8673141047    1.7822170381   -0.0168476787
 H   -0.7861049649   -4.3815111259    0.0084143241
 H    3.1315738994   -0.5994413235   -0.0520818009