20

 C   -0.2086827844    1.4818679567    0.0611176091
 C   -0.0521850565   -0.0365709457   -0.0229840031
 C   -1.3830383681   -0.7576264659    0.1869202545
 C    0.7679658149   -0.5344021872   -1.2657252278
 O    1.0320991098    0.4861469230   -2.1929059121
 C    1.9197062840   -0.9387814667   -0.2962051082
 N    1.0538734780   -0.5610251940    0.8139142180
 C    1.2677359334   -0.6572001723    2.1423812079
 O    2.2757143746   -1.1129847878    2.6471496923
 H    0.7467595288    1.9868204583   -0.0901420759
 H   -0.9032154419    1.8357105170   -0.7059497808
 H   -0.6059325549    1.7655449714    1.0409107296
 H   -2.0952869987   -0.4660557912   -0.5921735331
 H   -1.2528948266   -1.8430890714    0.1500528566
 H   -1.8235154201   -0.5003141509    1.1556235154
 H    0.2950365552   -1.3998327652   -1.7466055525
 H    1.5312296272    0.1130570059   -2.9260106640
 H    2.2204010687   -1.9910474846   -0.2930411515
 H    2.8099676801   -0.3072238039   -0.3936556998
 H    0.4100889465   -0.2766046755    2.7342175153