18

 C   -0.1578860084    1.5180878241    0.0726713722
 C    0.0222430546    0.0237263492   -0.0782447466
 C    0.6863606571   -0.6828660538   -1.2302165741
 N    1.2534420465   -0.7196619991    0.1475084398
 C    2.5093565507    0.0847041236    0.1491029102
 C    2.6862714255    0.7673965244   -1.2169221778
 O    3.9703895354    0.5519487738   -1.7549767372
 C    1.6309334410    0.0652161535   -2.0999160023
 O    1.7159386974    0.0227439100   -3.3041825023
 H    0.6241968139    2.1173468652   -0.3949456415
 H   -1.1126654593    1.8143793897   -0.3729681804
 H   -0.1951086324    1.7831076453    1.1349835683
 H   -0.8341525443   -0.5271850770    0.3101160743
 H    0.2488086163   -1.5884104648   -1.6380282270
 H    2.4942555206    0.7830355664    0.9893063486
 H    3.3426254635   -0.6080217758    0.2915067952
 H    2.4658211314    1.8465766857   -1.1797795048
 H    3.8529236706    0.5294829798   -2.7160841446