22

 C   -0.1537977132    1.5660120829   -0.0278079928
 C   -0.0088305605    0.0600261236   -0.1143274345
 C    0.6524214126   -0.7012042852   -1.2098157329
 C    1.6482539003    0.0017758438   -2.1235197874
 O    0.9745798258    0.9439026417   -2.9508073482
 C    2.6998209852    0.6202284678   -1.1669459672
 C    2.5276039252   -0.1516021281    0.1619060719
 C    2.8189953207    0.6450844433    1.4301164481
 N    1.1809547744   -0.7726769033    0.1662190406
 H    0.6032048749    2.1229957597   -0.5749815680
 H   -1.1228125830    1.8417478950   -0.4581008526
 H   -0.1552110160    1.8966297029    1.0163760799
 H   -0.8871065388   -0.4364638839    0.2989224614
 H    0.1770772294   -1.5958396300   -1.6047909053
 H    2.1254240454   -0.7639881316   -2.7535710367
 H    1.6078612482    1.2814443854   -3.5920468712
 H    3.7175993252    0.5271525960   -1.5584415172
 H    2.4987551098    1.6880337425   -1.0463286706
 H    3.2125218111   -1.0098373704    0.1457434042
 H    2.2075282725    1.5496172408    1.4903837277
 H    2.6168223689    0.0357442241    2.3157413042
 H    3.8707233820    0.9483865229    1.4572554865