14

 C   -0.0809543574    1.5432404451    0.0540904156
 C   -0.0428042437    0.0521070423    0.0006690339
 C    0.0379271400   -0.7815933617   -1.0891191444
 N    0.0450660465   -0.5873704485   -2.4487866491
 O    0.0348585884   -2.0641905044   -0.6619552646
 C   -0.0498640272   -1.9623385705    0.7071575677
 N   -0.0997762642   -0.7373394113    1.1306953609
 C   -0.0581153680   -3.1608768545    1.4528452686
 N   -0.0642849035   -4.1484068938    2.0585659446
 H    0.3423129792    1.9876877313   -0.8528896512
 H   -1.1031890330    1.9240061166    0.1620479413
 H    0.4975942145    1.9053387667    0.9079451943
 H    0.3145193457    0.3434989665   -2.7317699270
 H    0.5293833827   -1.3042789038   -2.9719932306