20

 C   -0.0116902309    1.5563068441    0.3028767870
 C    0.0122529407    0.0495891575    0.0095222821
 C   -1.3640297242   -0.5320677927   -0.1518981257
 C   -2.2194302504   -1.0149556620    0.9981829289
 C   -1.8451317365   -1.9791119044   -0.0982793221
 N   -2.6700431224   -1.7481792338   -1.2756277609
 C   -2.2501416467   -0.3407007344   -1.4028517453
 C   -3.8559622864   -2.3017720556   -1.6374479128
 O   -4.6450743544   -1.7992202526   -2.4097819121
 H    1.0028106315    1.9511252500    0.4109473624
 H   -0.4999314988    2.1101707539   -0.5060386453
 H   -0.5587800584    1.7673629940    1.2272359282
 H    0.5961245221   -0.1383045034   -0.9010467688
 H    0.5314848861   -0.4747058377    0.8210827260
 H   -1.6840688404   -1.1510354593    1.9335626900
 H   -3.2533340971   -0.6977767893    1.1077961805
 H   -1.2980410138   -2.9036545419    0.0435894346
 H   -3.0724251217    0.3786565771   -1.3413805574
 H   -1.6777899576   -0.1634702003   -2.3193401646
 H   -4.0015866804   -3.2988990592   -1.1716934847