19

 C   -0.0348728506    1.4349360814    0.0214884153
 N    0.0242072731   -0.0107231366    0.1346830442
 C   -1.2187087242   -0.7774090571    0.0887181381
 C   -1.1206504310   -1.9822943260    1.0088025011
 C   -1.0547523507   -3.3572973273    0.4478778458
 N    0.1472729685   -2.7164506062    0.9762891442
 C    1.1276867916   -2.1840170630    0.0210645262
 C    1.2271611036   -0.6566406752    0.0302406635
 O    2.2975324184   -0.0844831524   -0.0765466748
 H    0.9827723497    1.8176278427    0.0919673229
 H   -0.4655107911    1.7468298306   -0.9394243747
 H   -0.6456793670    1.8571468614    0.8273748363
 H   -2.0326118634   -0.1230103593    0.4126880762
 H   -1.4509671597   -1.0838799566   -0.9417954512
 H   -1.5177821649   -1.8321803439    2.0102916141
 H   -1.4212105077   -4.2055512732    1.0189230030
 H   -1.1491296910   -3.4613820736   -0.6327824233
 H    2.1202665186   -2.5662638087    0.2655713726
 H    0.9042235279   -2.4891322068   -1.0141194894