19

 C    0.2218733434    1.4118033798   -0.3732586716
 O    1.2804952212    0.4571886309   -0.1694144545
 C   -0.0539618029    0.0115917632   -0.0674198498
 C   -0.6519448964   -0.6708410437    1.1550091392
 O   -1.2461293915   -1.6737770792    0.3010560634
 C   -0.6587434596   -1.1241552967   -0.8952993963
 C   -1.5490203186   -0.8558121906   -2.1256332885
 C   -0.3693768870   -1.3260165578   -3.0231809821
 C    0.2705244750   -1.9921439841   -1.7720987030
 H    0.1205055893    2.1674244750    0.4047688186
 H    0.1170558540    1.7785018813   -1.3933368451
 H    0.0888805250   -1.0907812511    1.8461477881
 H   -1.4044426903   -0.1068123205    1.7185280678
 H   -2.3813395781   -1.5652747281   -2.1400539453
 H   -1.9431718659    0.1553172335   -2.2575212117
 H   -0.6147654983   -1.9764473399   -3.8643102225
 H    0.2292974485   -0.4898554487   -3.3933215318
 H    1.3448242029   -1.8759302478   -1.6163943223
 H   -0.0039157607   -3.0462744855   -1.6786438425