15

 O    0.0007738374   -0.0591237272    0.1442466309
 C   -0.0041810931    1.1294012350    0.0720741413
 C   -1.0696136405    2.2580231934   -0.0334851220
 C   -0.6824826709    3.0602004952    1.2239922519
 O    0.7755118344    3.0151239052    1.1484215182
 C    1.0168274082    2.2926743835   -0.0702004451
 C   -0.0446884031    2.8667648164   -1.0226115588
 C   -0.0798228708    3.0331102961   -2.4682600899
 O   -0.0812196623    4.1590374185   -1.5610241728
 H   -2.1188154321    2.0893400265   -0.2580158323
 H   -1.0185789022    4.1017655526    1.1848533701
 H   -1.0200419935    2.5959569699    2.1557872761
 H    2.0790482356    2.2016483268   -0.2751808479
 H    0.8300618089    2.9142435720   -3.0535192446
 H   -1.0111671260    2.8734762960   -3.0084468152