16

 O    0.2083760283    1.3732399087   -0.1705690083
 C    0.0399510468   -0.0022346803   -0.0199797362
 C   -0.0259954650   -0.6811673050    1.3795545124
 O    1.0073370313   -0.6477820152    2.2888016341
 C   -1.4789973531   -0.1190053786    1.5406267649
 C   -1.3681651213   -0.6596537176    0.0748129445
 O   -2.3054578891   -0.5946736176   -0.9316074326
 C   -0.6489362982   -1.9162087943    0.6571171530
 H   -0.3739288083    1.8414868049    0.4358421022
 H    0.7235360613   -0.4730224266   -0.7309236087
 H    0.7455493095   -1.1393989565    3.0746457734
 H   -2.1415014216   -0.6725058243    2.2130021732
 H   -1.6038261427    0.9577771599    1.6868067315
 H   -3.0916951468   -1.0777171861   -0.6554357512
 H    0.0016643893   -2.4733338050   -0.0213359029
 H   -1.2623870904   -2.5752510764    1.2773007107