20

 C   -0.0692885339    1.5847775030    0.0100660869
 C    0.0089911463    0.0564554359    0.0025049431
 C   -1.3718487800   -0.6006757417    0.0129289961
 C   -1.3352668746   -2.1164335511    0.0054618742
 O   -0.3026384627   -2.7504212561   -0.0092878624
 C   -2.6844245500   -2.8271449304    0.0168313494
 N   -2.4865224861   -4.2525634804    0.0070304293
 C   -3.5196600760   -5.1276503530    0.0053988801
 O   -4.6910861679   -4.8076224166    0.0143787527
 H    0.9302749991    2.0291526744    0.0023395406
 H   -0.6074698165    1.9618478125   -0.8668254996
 H   -0.5903184846    1.9539936615    0.9005526342
 H    0.5615514817   -0.2900434790   -0.8771890195
 H    0.5784407875   -0.2977778959    0.8682500839
 H   -1.9525962274   -0.2825579333    0.8908358365
 H   -1.9693753765   -0.2746250360   -0.8507170447
 H   -3.2558286647   -2.5068536303    0.8992551319
 H   -3.2757626419   -2.4980883477   -0.8490315204
 H   -1.5244380996   -4.5614789024   -0.0040887112
 H   -3.1746338223   -6.1801711833   -0.0050891712