22

 C    0.1621892841    1.6028374391   -0.0869236293
 C    0.0382061160    0.0754655914    0.0312761265
 C    0.5316783599   -0.5805008827   -1.2784610913
 C    0.6450562620   -2.0952128256   -1.1980635685
 N    2.0096778664   -2.6265873535   -0.9842703047
 C    1.0034378049   -2.6867816380    0.1113099277
 C    1.1778932663   -1.7716390297    1.2629474524
 C    0.7391653579   -0.5076178860    1.2590748686
 C    0.8663873775    0.3553313004    2.4870412591
 H    1.2109854777    1.9092867359   -0.1695490637
 H   -0.3550432230    1.9521172757   -0.9866304288
 H   -0.2756342534    2.1236114330    0.7686420073
 H   -1.0345210100   -0.1517161715    0.1431402449
 H   -0.1382183225   -0.2923053870   -2.0966295403
 H    1.5218981398   -0.1779060015   -1.5181445580
 H   -0.0138850563   -2.6675912056   -1.8460813152
 H    2.0833708881   -3.5473721557   -1.4131344771
 H    0.6117899285   -3.6736900862    0.3519682531
 H    1.6595563637   -2.1728711380    2.1522729493
 H    1.3196302518   -0.2019105853    3.3110049234
 H    1.4778966107    1.2460589488    2.3032729853
 H   -0.1145315802    0.7163446521    2.8232285693