19

 O   -0.6397920353    0.7525909083    0.7744606113
 C    0.0058463238    1.0242229986   -0.2046401862
 C    1.3219292600    1.7667953707   -0.2006003895
 C    1.2710102716    3.0225425240   -1.0893650037
 C    2.6151577574    3.7346755775   -1.1908490527
 C    3.7920222905    3.0365863879   -1.9787962437
 C    3.8144774176    4.2477896304   -2.9188971263
 O    2.5105866633    4.3490244450   -3.5048751104
 C    2.7106468238    4.8982043997   -2.1970213043
 H   -0.3506815784    0.7369235275   -1.2225772866
 H    1.5816980606    2.0110811757    0.8339160700
 H    2.0879541023    1.0807229357   -0.5911699540
 H    0.9427733717    2.7535680414   -2.1000324652
 H    0.5223802099    3.7179843966   -0.6881230499
 H    2.9621212096    4.0506973906   -0.2013535617
 H    4.6970167128    2.9277004600   -1.3771845130
 H    3.5613876561    2.0861936335   -2.4678107347
 H    4.6414043158    4.6704617104   -3.4771833038
 H    2.4655456268    5.9452047864   -2.0578257557