15

 C   -0.0120097195    1.4924458944   -0.0160211501
 C   -0.0262676946    0.0003792563    0.0137755203
 N   -0.0543178713   -0.6830489250   -1.1007163202
 O   -0.0604703312   -2.0514486446   -0.7020355953
 C   -0.0353076816   -2.1113249191    0.6268918671
 N   -0.0904642851   -3.3417796898    1.2045779583
 C   -0.0090164924   -0.8441718200    1.1723207811
 C    0.0333142625   -0.5038209404    2.5362455267
 C    0.0764772581   -0.2269143566    3.7095799948
 H    0.8793731677    1.8793737247    0.4878718281
 H   -0.0214573781    1.8482895707   -1.0475585515
 H   -0.8832720134    1.8963224167    0.5093465929
 H    0.2252798196   -4.1140936096    0.6378245712
 H    0.1956462642   -3.3759857027    2.1712063714
 H    0.1040344052    0.0258606750    4.7401827652