17

 C   -0.1944250548    1.5570060166    0.1850989528
 C    0.0728311546    0.0770238479    0.0246629548
 C   -1.1388479023   -0.9048195944    0.1306730712
 C   -0.3366433202   -1.7438896825    1.1415049312
 O   -0.5241882533   -2.7848747345    1.6965224411
 C    0.8472668461   -0.7198404899    1.1359387295
 O    2.0496590312   -1.1432654002    0.5401301026
 C    1.7742423065   -1.1902647688   -0.8466569394
 O    0.8823133439   -0.1343561041   -1.1304532978
 H    0.7476128047    2.1064524730    0.2647634451
 H   -0.7433850355    1.9423470314   -0.6795940575
 H   -0.7918491113    1.7497015758    1.0814495027
 H   -2.0444220941   -0.4651705773    0.5608900472
 H   -1.4064500336   -1.4226357348   -0.7946096819
 H    1.0631059643   -0.2391896827    2.0928564103
 H    2.7045001298   -1.0372658849   -1.3992209872
 H    1.3281067741   -2.1637907008   -1.1157420148