17

 O    0.0919010968   -0.0719974508    0.0045842842
 C    0.0276652232    1.1063748846    0.1641740549
 O    1.0681299548    1.9238449283   -0.2015611608
 C    0.9053974572    3.2936427386   -0.1381734210
 N   -0.2399006442    3.8183926665   -0.1653484718
 C   -0.3326423358    5.2753885007   -0.0597011664
 C    0.9500463423    5.9491736915    0.4432000041
 N    2.1507938967    5.4351262579   -0.2204157231
 C    2.2465563108    3.9887416853   -0.0605134536
 H   -0.8057995175    1.6639197681    0.6099587847
 H   -0.6051935646    5.6614248661   -1.0519568401
 H   -1.1782462778    5.5106218999    0.5978718470
 H    0.8958387423    7.0329157494    0.3007071968
 H    1.0632434014    5.7710729584    1.5205364582
 H    2.1049680281    5.6577163659   -1.2101842625
 H    2.7036682076    3.7448307179    0.9097103464
 H    2.9104210086    3.5668788218   -0.8212950069