17

 C    0.0233356674    1.5408544894    0.0228192181
 C    0.0309128668    0.0344737939    0.0066456439
 C   -1.1558877755   -0.6607812179    0.0433403863
 N   -2.4083851091   -0.0804261231    0.1370080355
 C   -1.1855530487   -2.1218285883    0.0310661979
 O   -2.2211332329   -2.7851827898    0.0423444039
 N    0.0636863204   -2.7185212391   -0.0031953323
 C    1.2586711245   -2.0462871083   -0.0396657900
 C    1.2603194175   -0.6898171430   -0.0376440261
 H    1.0322282590    1.9444185428    0.1369477296
 H   -0.3917934905    1.9568433237   -0.9057257937
 H   -0.5927609906    1.9217880465    0.8461299120
 H   -2.5362964599    0.8063841888   -0.3250833674
 H   -3.1425374764   -0.7551617493   -0.0413691098
 H    0.0427777695   -3.7282895950   -0.0169673353
 H    2.1512886717   -2.6562668061   -0.0669200346
 H    2.2012789768   -0.1547900353   -0.0638919780