17

 C   -0.0911354758    1.5133843025    0.3801910291
 C   -0.0013743800    0.0043943609    0.1548903760
 O    0.7645075975   -0.6410003311    1.1664758271
 C   -1.3836042571   -0.6171650922    0.0163044679
 N   -1.8348808671   -0.9532279253   -1.3288382788
 C   -1.5852821877   -2.0529489054   -0.3700567007
 C   -0.4349652875   -2.9529807326   -0.6713686300
 O   -0.3701853024   -4.0903065786   -0.2786821199
 H    0.9096771847    1.9431598700    0.4681487750
 H   -0.6114760540    2.0005289998   -0.4507498338
 H   -0.6432437675    1.7384768703    1.3016581404
 H    0.5442649762   -0.1864918782   -0.7737001978
 H    0.3227312985   -0.5087098105    2.0126698016
 H   -2.1266271114   -0.2323930560    0.7173136777
 H   -2.8350819641   -0.8083810490   -1.4360068532
 H   -2.4326030299   -2.5662328027    0.0781888430
 H    0.3576006276   -2.4994594620   -1.3024206836