15

 C   -0.0186066664    1.5268059961    0.0463107358
 C   -0.0100303104    0.0401585510   -0.0155724126
 C   -0.0322011097   -0.8544273036   -1.0637987621
 N   -0.0116552116   -2.1836407899   -0.6570247129
 C    0.0229683166   -2.0674747856    0.6358458819
 O    0.0574418964   -2.9355683972    1.6731201402
 C    0.0829375732   -2.1516706440    2.8092881319
 C    0.0651917103   -0.8388824403    2.4980933153
 N    0.0267274979   -0.7824342149    1.1065750513
 H    0.8784134773    1.9294326236    0.5337238742
 H   -0.0529104042    1.9319290140   -0.9678741471
 H   -0.8894332336    1.9167704474    0.5884150310
 H   -0.0627853152   -0.6056545665   -2.1143976313
 H    0.1122855929   -2.6761042626    3.7475884434
 H    0.0765522164    0.0274047926    3.1357241311