17

 N    0.0653020467   -1.1453400470    0.1010368958
 C    0.0597936123    0.0103722235    0.0528779513
 C    0.0316204232    1.4362765677   -0.0603664141
 C   -0.7093138310    2.2286060865   -1.1618921119
 C    0.4480552378    3.2518539628   -1.1293969278
 C    1.0855621636    3.9066360999   -2.3147726187
 C    0.3979683283    4.7476247433   -1.2606261395
 C    1.1602081286    2.4494680141   -0.0568287418
 N    0.3205835550    2.2578573066    1.1141550682
 H   -0.7628156346    1.6827591304   -2.1064496660
 H   -1.7103065158    2.5757171949   -0.8865636816
 H    2.1696418157    3.9335545696   -2.3587912392
 H    0.6033448364    3.7965343397   -3.2804668694
 H   -0.5539189158    5.2018424712   -1.5159425538
 H    1.0158989013    5.3457816840   -0.5988306639
 H    2.2265057316    2.2809820764    0.0418862627
 H   -0.3661032631    3.0012330362    1.2342271396