9

 O   -0.4033643102    0.4353823587    0.8561744287
 C   -0.0039148257    1.1490041522   -0.0291402195
 C    1.2280426974    1.9094072083    0.0607192995
 C    2.2522059256    2.5502014416    0.1194342088
 C    3.4625503473    3.3257558059    0.2019038650
 O    3.5143351762    4.4599447133    0.6119107267
 C    4.6630849344    2.6161213202   -0.2672428371
 N    5.6080619834    2.0631975284   -0.6385649925
 H   -0.5470585284    1.2807942212   -0.9843184595