19

 C    0.2106930164    1.4841721713    0.0955664288
 C    0.0037655900    0.0052464337    0.0102906305
 C    0.1079177585   -0.7599977599   -1.0830901375
 C   -0.1537655605   -2.2043228677   -0.7911819409
 O    1.0490975505   -3.0199879434   -0.6582870254
 C    0.9356810879   -3.0390864461    0.7780829830
 C   -0.3993442951   -2.2512798530    0.7478466446
 O   -1.5340605084   -2.9031454239    1.2570866457
 C   -0.3780287014   -0.7980033098    1.2382841821
 H    1.0130529512    1.7277064217    0.8035163374
 H    0.4697180558    1.9136763211   -0.8755357508
 H   -0.6916880275    1.9875595094    0.4651405403
 H    0.3675378308   -0.3937434217   -2.0706813888
 H   -0.8803203242   -2.6903631878   -1.4534269131
 H    0.8479367846   -4.0604543172    1.1738607975
 H    1.7784241080   -2.5382803820    1.2717433612
 H   -1.5455886545   -3.8049426054    0.9183538276
 H    0.3240970305   -0.6420592056    2.0673786513
 H   -1.3715009524   -0.5201404536    1.6121148366