19

 O   -0.0685389229    1.4534361890   -0.0967808645
 C    0.0173770765    0.0397393263    0.0222586289
 C   -1.3888516608   -0.5325630373   -0.0465321679
 C   -2.1247737200   -0.2732909701   -1.3731692346
 C   -3.2639022877   -1.3015967099   -1.3470340179
 C   -2.6015526473   -2.5756053864   -0.7765229871
 C   -1.4322812025   -2.0740469815    0.1213893518
 H    0.8221452734    1.8136326027   -0.0604311510
 H    0.6255133099   -0.3918170995   -0.7914976788
 H    0.4934714269   -0.2494607575    0.9737211455
 H   -1.9708642424   -0.0674589802    0.7598564964
 H   -2.4632295192    0.7601611394   -1.4741384494
 H   -1.4498620580   -0.4808384874   -2.2155837013
 H   -4.0557728372   -0.9532174463   -0.6724653273
 H   -3.7250933272   -1.4648029717   -2.3254612832
 H   -3.3106563069   -3.1999141914   -0.2259191600
 H   -2.2109235514   -3.1922884643   -1.5926314666
 H   -0.4838684777   -2.5186336612   -0.2026076189
 H   -1.5641702653   -2.3572288528    1.1695170259