22

 C   -0.4363157612    1.4346493589    0.6554655390
 C   -0.1009366972   -0.0071601444    0.2936617330
 C    0.1885949989   -0.3624743668   -1.1730906777
 C    1.4649579511    0.2704700181   -1.6503014752
 C    1.5462402540   -0.9603927359   -0.7924378010
 C    1.3094355799   -0.6033188329    0.6775144018
 N    2.2643633176    0.3203256036    1.2659721343
 C    2.3544902789    0.3201632970    2.7228827722
 C    3.4344077485   -0.2836177469    1.8958161598
 H    0.3351259393    2.1285493264    0.3142143391
 H   -1.3882087519    1.7306025956    0.2003688248
 H   -0.5332442211    1.5568877187    1.7396183609
 H   -0.8772461534   -0.6697972796    0.6897848740
 H   -0.5434685745   -0.7553817128   -1.8689308374
 H    1.6893340465    0.1103573315   -2.7001345570
 H    1.8027696557    1.2250057524   -1.2603521836
 H    2.0088735060   -1.8761362402   -1.1402624038
 H    1.1920181745   -1.5088739102    1.2958433848
 H    2.4923598989    1.2910734826    3.1900688552
 H    1.7102111812   -0.3635128632    3.2744459971
 H    3.5103476322   -1.3702554905    1.8943060605
 H    4.3757225763    0.2374929585    1.7469467093