12

 N    0.0793507827    1.3076590500    0.1284283659
 C   -0.0356027803   -0.0385537916    0.0440199927
 N   -1.1474099478   -0.7369156960    0.0171024345
 C   -0.7004933680   -2.0345255556   -0.0079105320
 C    0.6650217806   -2.0768761578   -0.0004309412
 O    1.0970123989   -0.7542659560    0.0337911926
 C    1.6187930550   -3.1574177759   -0.0267726907
 O    2.8265489176   -3.0429378908   -0.0250133433
 H    0.9587505456    1.7152569525   -0.1447333623
 H   -0.7515040234    1.8307101526   -0.0947708857
 H   -1.3858754196   -2.8686755461   -0.0334215227
 H    1.1203133288   -4.1517267152   -0.0507892378