18

 O   -0.7639911972    0.5395189868   -1.1257280231
 C   -0.2845956809    1.2673162668   -0.3190665627
 C   -0.3034986680    2.7544967539    0.0351530765
 C    0.6572129561    2.3298365951    1.1577893385
 C    0.1697975738    2.4612964451    2.5893350464
 N    0.1566282927    3.8667090183    2.9692716914
 C    0.1289954765    4.1483812090    4.4005228891
 C    1.3683971657    4.3784978755    3.6097932615
 O    0.5814216383    0.9354538097    0.6983450591
 H    0.1042536024    3.4039539031   -0.7406245752
 H   -1.2718524727    3.1372122842    0.3611491842
 H    1.6814451153    2.6964593535    1.0487770725
 H   -0.8522678068    2.0696015824    2.6567675439
 H    0.8035853437    1.8406453299    3.2474136652
 H   -0.4960117205    4.9831371805    4.7033310521
 H    0.1265111640    3.3025471328    5.0859375704
 H    2.1938950620    3.6860110748    3.7679657181
 H    1.6639856356    5.3840041585    3.3259507521