18

 C   -0.0566936943    1.5477162489   -0.0822246186
 C    0.0219192699    0.0377001114    0.0118341384
 C   -1.1988433669   -0.6934297562   -0.5268384924
 C    1.3059379831   -0.7047816780   -0.1955885129
 O    2.4435249995    0.0424988174    0.2718099215
 C    1.9675297162   -0.0681914082    1.6346716677
 C    1.9468927700    1.1960305778    2.3789620009
 N    1.9371747381    2.1679078903    3.0040209191
 C    0.6595963887   -0.7147321732    1.1782401895
 H    0.8982793354    2.0231846788    0.1434202492
 H   -0.3409435710    1.8397847530   -1.0992870234
 H   -0.8105475807    1.9472790807    0.6037693567
 H   -1.3811575557   -0.4180549067   -1.5707991109
 H   -1.0783744930   -1.7809008481   -0.4812535953
 H   -2.0922316798   -0.4324195772    0.0504364052
 H    1.4941509592   -1.4838939804   -0.9254323897
 H    2.5958928516   -0.7775532421    2.1873867972
 H    0.1529824098   -1.5012089982    1.7207943879