14

 N    0.0816952744    1.3359447485   -0.1331703816
 C   -0.0789934607   -0.0245617153   -0.0160168343
 C   -1.2329295542   -0.7171758964   -0.1364673092
 C   -1.1868306938   -2.1507270101   -0.0593690487
 C    0.1582292141   -2.6855464305    0.1558750516
 N    1.2383381884   -2.0061291787    0.2772679493
 O    1.1310966046   -0.6106195340    0.1930840573
 N   -2.2585446891   -2.8681338850   -0.1703040503
 O   -1.9699354565   -4.2437535733   -0.0588267609
 H    0.9054316630    1.6998725805    0.3238243677
 H   -0.7490503361    1.8839501527    0.0291421364
 H   -2.1728796094   -0.2068556733   -0.2982480871
 H    0.3026326668   -3.7566645607    0.2284654221
 H   -2.8414169917   -4.6372974743   -0.1620506524