16

 N    0.1221745020    1.2419133735    0.3858688697
 C    0.1051952257    0.0401051241   -0.0106612519
 O    1.2412673451   -0.6494529396   -0.3019799169
 C    1.1261015549   -1.8444710275   -1.0903336978
 O    0.0807166626   -2.6551206844   -0.6948850165
 C   -1.1646454769   -1.9929399658   -0.8873073715
 C   -1.2077182567   -0.7239428688   -0.0368669754
 C   -1.6345648063   -1.0192973833    1.4132068212
 O   -2.1389706694   -2.0510752405    1.7623298878
 H    1.0801660370    1.5972065777    0.4088925807
 H    1.0222315476   -1.5439920715   -2.1462928360
 H    2.0590022630   -2.3877949542   -0.9364019583
 H   -1.3009073430   -1.7554420938   -1.9526117250
 H   -1.9427802281   -2.6857234909   -0.5650035580
 H   -1.9636627404   -0.0231804548   -0.4121307357
 H   -1.4610964571   -0.1725284901    2.1073282037