14

 O   -0.0640310339    1.4445274807    0.1526508065
 C    0.0419408144    0.0632692534   -0.1016754795
 C   -1.3425885157   -0.5910184826   -0.0875311361
 C   -1.4741429126   -2.1211608697    0.0759646753
 O   -2.1185374328   -1.9295688112    1.3816014671
 C   -1.9801931825   -0.5663374203    1.2827097420
 N   -2.2186164668    0.3587592735    2.0992042733
 H   -0.5856754425    1.5459911693    0.9627333559
 H    0.5116014675   -0.0478955345   -1.0848004282
 H    0.6894899691   -0.4444207902    0.6335404903
 H   -1.9713704963   -0.1602144667   -0.8697152328
 H   -2.1425451684   -2.6345698498   -0.6176756489
 H   -0.5388692688   -2.6754834254    0.1897615746
 H   -2.5930043408    0.0116213435    2.9831556306