21

 C    0.9866895651   -1.1641859186   -0.5067833224
 O    0.0369923307   -2.2077003141   -0.3703227100
 C   -1.2837098090   -1.7983932010   -0.1752088376
 C   -1.9062836511   -1.0296008257   -1.3215446645
 C   -2.1062475429   -2.7528976735    0.6177178487
 C   -1.5697550010   -4.0850371725    1.0975987798
 C   -1.6965962678   -1.4106585222    1.2616025850
 C   -0.7029147077   -1.3592905235    2.3532062659
 O   -0.7581703502   -0.5744471672    3.2730785566
 H    1.9691377162   -1.6402348633   -0.5360500484
 H    0.8445910129   -0.5935079378   -1.4333507179
 H    0.9500242095   -0.4692187101    0.3435414531
 H   -1.8083493492   -1.6003045744   -2.2512115947
 H   -2.9689422946   -0.8563536490   -1.1339173868
 H   -1.4335518584   -0.0532238457   -1.4656293644
 H   -3.1585915108   -2.7752146686    0.3465835857
 H   -0.4842963800   -4.0738827305    1.1997291668
 H   -2.0111242030   -4.3641489479    2.0595058860
 H   -1.8223940540   -4.8670492957    0.3740631306
 H   -2.4734432219   -0.6592868413    1.3615961785
 H    0.1241094672   -2.0959984475    2.2844005898