18

 C    0.2124072856    1.4713170794    0.0743957080
 C   -0.0299490055   -0.0361310956   -0.0281069755
 C    0.6776903306   -0.6478405171   -1.3047014025
 C    1.8812044920   -1.2407646745   -0.6570093286
 C    1.7579414184   -1.2813169470    0.6969188445
 N    0.5318922899   -0.7677729050    1.1538992691
 N    2.8078315845   -1.9011615794    1.3065683555
 C    3.5841852948   -2.2553006553    0.2930527913
 N    3.0638877133   -1.8992040240   -0.9241806847
 H    1.2862654319    1.6866062117    0.0962557233
 H   -0.2268943854    1.9967844919   -0.7803607855
 H   -0.2397953822    1.8809163317    0.9843081815
 H   -1.1065946202   -0.2246746936   -0.0772210673
 H    0.0357630110   -1.3986025343   -1.7856598429
 H    0.8730543603    0.1332497316   -2.0496608689
 H    0.6063968705   -0.1759373725    1.9741418006
 H    4.5340106948   -2.7610859054    0.3791700624
 H    3.4935853957   -2.0604989925   -1.8186790403