21

 C    0.1987439884    1.0888591142   -0.3429100771
 O    0.0291316164   -0.1981584704    0.2061663666
 C   -1.2960693922   -0.6318645944    0.1984821440
 C   -1.9510988031   -1.1134004301   -1.1410712615
 C   -2.3758379406   -2.4345959242   -0.4361300197
 C   -1.3708991532   -3.6010086013   -0.5398043794
 C   -0.6338763527   -3.9318967694   -1.8194807067
 O   -0.5211622094   -2.9923608484    0.4712331960
 C   -1.5309270418   -2.0256483682    0.8090828228
 H    1.2611723890    1.3338606539   -0.2734097841
 H   -0.1046882493    1.1304111380   -1.4000486178
 H   -0.3788695532    1.8469952090    0.2100259921
 H   -1.9524314666    0.1036602124    0.6956222531
 H   -2.7794430064   -0.4962701699   -1.4948143818
 H   -1.2395329376   -1.2430332372   -1.9590701736
 H   -3.4377247905   -2.6732149326   -0.4123874702
 H   -1.8182313796   -4.5212874491   -0.1320936428
 H   -0.1548501664   -3.0510518385   -2.2536613756
 H    0.1478217605   -4.6699917077   -1.6133630086
 H   -1.3211502548   -4.3622769488   -2.5560815471
 H   -1.8413464169   -2.0946454374    1.8558046015