19

 C    0.2509685085    1.3035152241    0.1480137823
 C   -0.2942871888   -0.1049493500    0.3960116738
 O   -1.0606707455   -0.1584553752    1.5950444975
 C   -1.0622117101   -0.6159536010   -0.8322285742
 N   -1.5202971569   -2.0171234809   -0.8311599815
 C   -1.5258640676   -2.8420120056    0.3652266179
 C   -2.8158538464   -2.3812987076   -0.2480181317
 C   -3.5997299072   -1.3766287565    0.4273181950
 N   -4.2211832364   -0.5251886594    0.9063473426
 H    0.7741416608    1.6565296024    1.0400019394
 H    0.9478794912    1.3225459952   -0.6958867075
 H   -0.5634114145    2.0050141345   -0.0684967518
 H    0.5486943697   -0.7822768986    0.5826402211
 H   -1.8905198341    0.3163359576    1.4626779939
 H   -1.9257746170    0.0372616109   -1.0129244398
 H   -0.4054815772   -0.5096365135   -1.7034228342
 H   -1.2298920541   -3.8772267843    0.2154614614
 H   -1.2592943122   -2.3950551661    1.3166536068
 H   -3.4113326320   -3.0672640960   -0.8454315011