19

 C   -0.2544955268    1.5931403063    0.0234378873
 C    0.0463858683    0.1027388439    0.0149202450
 C    1.0562440824   -0.5201081735   -0.9767786614
 C    2.4350900825    0.1648234323   -1.0635506411
 C    2.7924230531   -0.5494430975    0.2526017601
 C    2.1970880202    0.1021345365    1.5140086963
 C    0.8604757344   -0.5716882884    1.1434596757
 N    1.5686238387   -1.4713922709    0.1171726272
 H    0.6526386729    2.1973269198    0.1215844562
 H   -0.7545892475    1.8967100084   -0.9029599120
 H   -0.9164802043    1.8539413634    0.8566388494
 H   -0.8925192490   -0.4541722607   -0.0853173700
 H    0.6533855391   -0.9515029006   -1.8962207319
 H    3.0160259359   -0.2257687788   -1.9031627596
 H    2.4810049886    1.2578055840   -1.0885041076
 H    3.7811290348   -1.0063929866    0.3327816450
 H    2.6162978688   -0.3310526371    2.4259343874
 H    2.2327822248    1.1924291484    1.5995938207
 H    0.2980896931   -1.0451111590    1.9517689434