15

 O   -0.1399947275   -0.0607171957    0.1097414449
 C   -0.0258505006    1.1179044523   -0.1083685477
 C    1.2572635126    1.8442405145   -0.1259796836
 C    1.3500381294    3.3054238687    0.2921447099
 C    1.7634314368    2.9340000253   -1.0903562556
 C    3.1257951987    2.2163470988   -1.0368819524
 N    2.5464262414    1.1651094262   -0.1534142380
 C    3.5997875113    1.6875549709   -2.3178243659
 N    3.9767766335    1.3059800448   -3.3407652379
 H   -0.9080026829    1.7722847266   -0.2994771607
 H    0.4039122583    3.8332657396    0.3642682617
 H    2.0869274651    3.5863970658    1.0404040719
 H    1.2915976222    3.3084457470   -1.9880702531
 H    3.9272647356    2.8185045357   -0.5919053806
 H    3.0081118360    1.0531496696    0.7445014071