21

 C   -0.0508831249    1.5414407782    0.0292866265
 C   -0.0074324613    0.0286689632    0.0294966476
 C    0.9378785890   -0.7932878834   -0.9222260246
 C    0.6091314047   -1.9273244148    0.1047853613
 C    0.6546838780   -0.8012660462    1.1905017880
 C   -0.9072652063   -2.0522762440   -0.0988673824
 C   -1.3154073437   -0.7815593762   -0.1489296736
 C   -2.6726375621   -0.2024157394   -0.3288238934
 O   -3.6163662446   -1.2523093360   -0.4544173979
 H    0.9513404209    1.9605040315    0.1652342473
 H   -0.4464703273    1.9325276256   -0.9152969572
 H   -0.6817362588    1.9260669211    0.8390717726
 H    0.6111854550   -0.9376915486   -1.9552976673
 H    1.9791744317   -0.4533677936   -0.8851066319
 H    1.2046799271   -2.8363356399    0.1811913993
 H    1.6686689693   -0.4621500525    1.4314687293
 H    0.0675829370   -0.9530143014    2.0999465259
 H   -1.4865730416   -2.9593999420   -0.1795201513
 H   -2.9142822569    0.4525241687    0.5283262719
 H   -2.6824061039    0.4529422083   -1.2190512144
 H   -4.4853377113   -0.8586602186   -0.5733888159