18

 C   -0.2789463950    1.4403485927    0.2552843622
 C   -0.0374134183   -0.0144318520   -0.0597977174
 C    0.7026843356   -0.5141149605   -1.2679566476
 C    1.4857468139    0.3459277576   -2.2351376835
 C    2.9639312070    0.0606742078   -1.9546935299
 O    3.3001412360    0.4038624021   -0.6024357044
 C    2.3930645430    0.2032984997    0.3928158943
 O    2.5837466086    0.6631147288    1.4858652275
 N    1.2991260914   -0.6067549279    0.0692349753
 H    0.4577397383    2.1015655343   -0.2067192217
 H   -1.2742651880    1.7356012219   -0.0908954881
 H   -0.2247232677    1.6012540861    1.3356759406
 H   -0.8154802238   -0.6782868963    0.3134100087
 H    0.3982066003   -1.4824672872   -1.6620586445
 H    1.2416161538    0.0927646048   -3.2704592884
 H    1.2926019305    1.4141082459   -2.1002322064
 H    3.1898074219   -0.9988784509   -2.1300275976
 H    3.6286767225    0.6624253733   -2.5790546292