21

 C    0.2769377965    1.6371539254   -0.2264571858
 C    0.0109115498    0.1551676605    0.0876024041
 C    0.5203713048   -0.6957282152   -1.0785687685
 O    0.0499914025   -0.8042904797   -2.1737394205
 O    1.6662964767   -1.3347476286   -0.7131437278
 C    2.0387631444   -0.9710800613    0.6242306769
 C    0.7534960810   -0.4524039110    1.3072962391
 C    1.0705955403    0.5210607706    2.4449318296
 C   -0.0565535854   -1.6455736843    1.8478598823
 H    1.3461991868    1.8512866825   -0.3259207153
 H   -0.2041652417    1.8990906878   -1.1723593657
 H   -0.1269699091    2.2841565017    0.5565934355
 H   -1.0697862653    0.0070499993    0.1655476101
 H    2.4550086618   -1.8583117003    1.1084345343
 H    2.8185136573   -0.2008959382    0.5762236623
 H    1.6573569276    1.3782475764    2.1040734753
 H    0.1530062394    0.9009601074    2.9061373968
 H    1.6452557005    0.0164634829    3.2297527672
 H    0.4851925788   -2.1544107948    2.6521919785
 H   -1.0184330857   -1.3109397624    2.2498734054
 H   -0.2592846813   -2.3815233987    1.0628464862