20

 C   -0.0945853963    1.4101571534   -0.2417574625
 C    0.2511820787   -0.0608340363   -0.1526796341
 C    1.6731422277   -0.5185494774    0.0946007534
 O    2.6627925123    0.4333247798    0.4003384465
 C    0.6304730398   -0.7407370711    1.1561778950
 C    0.6774201482    0.0005863074    2.4830430787
 C    1.6205712169   -0.6801680856    3.4821625484
 N    2.9455415060   -0.4926203377    3.2150340698
 O    1.2173486879   -1.3227429187    4.4329921780
 H    0.6043408609    2.0284065817    0.3257776398
 H   -0.0648643752    1.7493930220   -1.2833616333
 H   -1.1029164786    1.6050563457    0.1378785973
 H   -0.3138964281   -0.6873290659   -0.8385536811
 H    2.0478289756   -1.3834690147   -0.4508076481
 H    2.9368357896    0.8715972538   -0.4116500208
 H    0.2952664852   -1.7695384667    1.2572962594
 H    0.9944813298    1.0354797337    2.3353202110
 H   -0.3141962497    0.0059969000    2.9409973679
 H    3.2414602112   -0.0884289810    2.3385567391
 H    3.6084023682   -1.0110894025    3.7680028653