17

 N   -0.1097072953    1.3122322264    0.3210198325
 C   -0.0875761433   -0.0341068309    0.0987702667
 N   -1.1038865850   -0.7577763112   -0.2006570908
 C   -0.6863724810   -2.1659551289   -0.2163316113
 C    0.8207614491   -2.1854137839    0.0136976641
 O    1.5457465493   -1.4555448121   -0.9872969807
 C    1.2099667581   -0.7905571038    0.2581109830
 C    2.3757617012   -0.2550528560    1.0352488507
 O    2.8797893202    0.9312398438    0.4209190167
 H    0.7654499212    1.8011527714    0.2041603070
 H   -0.9516709377    1.7985291943    0.0538866254
 H   -1.2043580900   -2.7269975975    0.5730709533
 H   -0.9515241532   -2.6330286368   -1.1722892248
 H    1.3399760155   -3.0402168884    0.4393342637
 H    2.0667481646    0.0356727458    2.0435469781
 H    3.1548792385   -1.0242325491    1.1165759616
 H    3.1714334178    0.6825257471   -0.4642981652