15

 C    0.0574570609    1.4520239775   -0.3602258562
 C   -0.0559476714    0.0417112318    0.2464378408
 C   -1.4417470525   -0.5183463539    0.1889251755
 N   -2.3196929740   -0.5159072286    1.1702389844
 C   -3.4605874698   -1.0906278346    0.6573354933
 C   -3.2754405323   -1.4465464559   -0.6503205791
 N   -1.9795920182   -1.0742475381   -0.9403338189
 H    1.0815185383    1.8288373166   -0.2776234857
 H   -0.2172682959    1.4550562150   -1.4203445991
 H   -0.6080890449    2.1471121433    0.1591636605
 H    0.6427321213   -0.6353964086   -0.2614664789
 H    0.2342942059    0.0686689802    1.2998342393
 H   -4.3461531883   -1.2183813949    1.2611780805
 H   -3.9114250784   -1.9188094544   -1.3803184088
 H   -1.5119102607   -1.2002574855   -1.8221601974