19

 C   -0.3412024176    1.3735412635   -0.0789727164
 O    0.0718750475    0.0304546470    0.0639077537
 C    0.6752047861   -0.5113560695   -1.0943762882
 C    1.3082904547   -1.8608123507   -0.6869003129
 C    2.4069416011   -1.7081001378    0.2577648580
 C    3.3247064320   -1.5751560524    1.0250190537
 C    4.4282988330   -1.4204103502    1.9618028700
 C   -0.2896077681   -0.6946802500   -2.1886600677
 C   -1.0824012923   -0.8558931489   -3.0778511981
 H    0.5069956784    2.0316228504   -0.3230300161
 H   -1.1065383338    1.4845743016   -0.8592534220
 H   -0.7619502340    1.6787261947    0.8815607501
 H    1.4786218461    0.1585473326   -1.4431619751
 H    0.5119700012   -2.4818284947   -0.2608116396
 H    1.6517926278   -2.3649277038   -1.5973279020
 H    4.4353932073   -2.2267917131    2.7036160748
 H    5.3962554786   -1.4348098930    1.4485041488
 H    4.3563054932   -0.4725184216    2.5066641048
 H   -1.7809408414   -0.9927347642   -3.8662867958