19

 C   -0.0429550962    1.5536817498    0.0669221050
 C    0.0283535512    0.0559366702    0.0020884613
 C   -0.8748644733   -0.8607456170    0.7755242333
 C    0.6113093310   -0.9433785404    1.0095762181
 C    1.2709968053   -1.7457230457   -0.1158796973
 O    0.8091252403   -3.0861636995   -0.1671648419
 C    0.6464376230   -0.7332948564   -1.1606354036
 C    2.7299880162   -1.6948816623   -0.0902299526
 C    3.9326557013   -1.6821762476   -0.0946153355
 H    0.9238859563    2.0101200253   -0.1741206641
 H   -0.7813900564    1.9468810846   -0.6424754508
 H   -0.3344953725    1.8927634610    1.0664846743
 H   -1.4274616835   -0.3944507810    1.5855599783
 H   -1.3942516778   -1.6817916353    0.2904486401
 H    1.0609717325   -0.7734140553    1.9800265880
 H    1.3328772681   -3.5538536969   -0.8269550203
 H   -0.0553335602   -1.1898232150   -1.8659408245
 H    1.4135281300   -0.1826141177   -1.7084655082
 H    4.9946310147   -1.6681035608   -0.0878514094