20

 C   -0.2793503700    1.5901565462   -0.0163425256
 C    0.0294507169    0.1021327742    0.0137405880
 C    1.1410353567   -0.5330111862   -0.8752571414
 C    2.3559568949    0.3878364602   -1.0417011274
 C    3.0323843399    0.2574521572    0.3099386119
 C    2.1750864597    0.0554895922    1.5614163068
 C    2.8041436611   -1.1205867425    0.8290565176
 N    1.4747324915   -1.5153784844    0.2677895889
 C    0.8012566556   -0.5185727282    1.1903155069
 H    0.5952465150    2.1963701218    0.2381513341
 H   -0.6348593311    1.9083335288   -1.0027822452
 H   -1.0653953864    1.8314199714    0.7078227221
 H   -0.8935482437   -0.4712127518   -0.1244152583
 H    0.8233755248   -1.0197719824   -1.7989921160
 H    3.0291847949    0.0260844597   -1.8280483546
 H    2.0661272064    1.4097724564   -1.3034869234
 H    3.9963672292    0.7232805391    0.4859575350
 H    2.4546504084    0.5070661515    2.5061439558
 H    3.5519501178   -1.8518302655    1.1100176966
 H    0.2505312185   -0.9345000378    2.0395793482