21

 C   -0.0445875211    1.5286117269    0.0256871644
 C    0.0300081444    0.0297039519   -0.0129990793
 C    0.8603251732   -0.7962177488   -0.9976755067
 C   -0.1290083365   -1.9953252875   -0.7953331808
 C   -0.6025151878   -2.7424518511   -2.0239372686
 C    0.3912926088   -2.8642856889    0.3553786124
 O    0.5332193846   -1.9674394093    1.4618265306
 C   -0.2870093815   -0.8511446853    1.1819938269
 C   -1.0963270056   -1.0201149248   -0.0557303828
 H    0.9147722347    1.9626824521    0.3322932183
 H   -0.2973422364    1.9423889243   -0.9577809173
 H   -0.8050627245    1.8721500113    0.7352582500
 H    0.7902489294   -0.3923584398   -2.0126169789
 H    1.9142352117   -0.9715734080   -0.7514409702
 H    0.2210690761   -3.2945213371   -2.4913123428
 H   -1.3881104577   -3.4646206733   -1.7729729047
 H   -1.0075330347   -2.0541908284   -2.7724949790
 H   -0.3210269406   -3.6679294809    0.6026430323
 H    1.3690804253   -3.3125006884    0.1460835096
 H   -0.6921634023   -0.3825153109    2.0716958715
 H   -2.1712196796   -0.9351233239   -0.1599085349