21

 C    0.0147344655    1.5197013669    0.0726345974
 C   -0.0254399211    0.0053182721   -0.0354411459
 C    0.6994150771   -0.5351447795   -1.2938028363
 C    0.6729637386   -2.0867649913   -1.2542776341
 C   -0.0745431522   -2.5329074444    0.0304910936
 C    0.6854654878   -1.9162112362    1.2256234214
 O    0.7083599843   -0.4976116771    1.1132713698
 C   -1.4478843055   -1.9107273320    0.0218737916
 C   -1.4222616729   -0.5778595910   -0.0116060988
 H    1.0486445479    1.8750073054    0.0846416396
 H   -0.5024367942    1.9778864805   -0.7762016298
 H   -0.4709159799    1.8489413566    0.9957740632
 H    0.2164252413   -0.1486594302   -2.1965160445
 H    1.7272802347   -0.1589417603   -1.2828501601
 H    0.1729922863   -2.4980045008   -2.1352588152
 H    1.6900236866   -2.4930178908   -1.2408080050
 H   -0.0975248512   -3.6215744242    0.1191028917
 H    0.2066063721   -2.1955527814    2.1742548526
 H    1.7215489373   -2.2847011503    1.2448344978
 H   -2.3522157617   -2.5081569942    0.0632267129
 H   -2.2983192710    0.0621043824   -0.0086482017