17

 C   -0.0300036192    1.5753614788    0.1540147248
 C    0.0218529182    0.0443913137    0.0448387135
 C    0.7201158279   -0.5648548864    1.2675602579
 O   -1.3035337915   -0.4882459468   -0.0737763689
 C    0.7378823448   -0.3978727470   -1.2482292420
 C    0.0838353730    0.1227597310   -2.5108161637
 O    0.6745616254    0.6904944239   -3.3955501887
 H    0.9760718821    2.0051268674    0.1840470874
 H   -0.5633380589    2.0109760291   -0.6956334823
 H   -0.5478956814    1.8763618757    1.0721847981
 H    0.1978127063   -0.2774988964    2.1876748622
 H    0.7190952515   -1.6563635354    1.2017308584
 H    1.7554692250   -0.2194985562    1.3508728515
 H   -1.8139762177   -0.1854481451    0.6846820248
 H    1.7858916594   -0.0876459166   -1.2422818156
 H    0.6987041994   -1.4949670528   -1.2898735624
 H   -1.0077051944   -0.0683867170   -2.5747691649