22

 C   -0.0670088067    1.4533364390   -0.1971656142
 C    0.1288564781   -0.0400094872   -0.0497256824
 C    1.5045947804   -0.6639891386   -0.0625502187
 C    0.6637984121   -0.6868681774    1.2071773784
 C    1.1076673206    0.1642025423    2.3880519139
 C    0.1024205865   -2.0200302131    1.6070748922
 C    0.9605985970   -2.9577401678    2.4181709950
 N   -1.0870311111   -2.2980632915    1.2287106938
 O   -1.4936978679   -3.5732125381    1.6619384924
 H    0.7468179809    2.0297719754    0.2517721430
 H   -0.1107979863    1.7274689460   -1.2570386253
 H   -1.0038653995    1.7800736492    0.2676494926
 H   -0.6401130084   -0.6270446394   -0.5402095149
 H    1.6476333803   -1.5920161855   -0.6063298462
 H    2.3660612750   -0.0021543184   -0.0723806071
 H    1.6045373217    1.0795425870    2.0589336990
 H    0.2522313616    0.4499664037    3.0104509374
 H    1.8155468411   -0.3770273634    3.0247125953
 H    0.6712672767   -2.9376315601    3.4752755836
 H    0.8242004152   -3.9852402082    2.0735634900
 H    2.0150758622   -2.6838765030    2.3451241670
 H   -2.3729549195   -3.6423728208    1.2760323252