17

 O    0.3055221966    0.2026371195    1.0701847606
 C    0.2206885949    1.3286291210    0.6421349510
 N    1.1233268353    1.9246043573   -0.2177706809
 C    0.8403632278    3.2547110676   -0.7684130391
 C    2.1089946138    3.9518287997   -1.2094720960
 C    3.3359615662    3.9707099445   -0.3407493950
 C    3.2806867793    3.0633737299   -1.5579580077
 N    3.1999935967    1.6502105292   -1.3540871477
 C    2.2102562744    1.1844999114   -0.7086196403
 H   -0.6021704306    2.0197314497    0.9091905603
 H    0.1745315947    3.1576717687   -1.6367006037
 H    0.3038821268    3.8339019954   -0.0081374107
 H    1.9304945589    4.8177677844   -1.8395187150
 H    3.9777284094    4.8436554097   -0.3801446006
 H    3.2936402038    3.4829812810    0.6275504870
 H    3.9028429791    3.3342970163   -2.4035386850
 H    2.1427790829    0.1269335749   -0.4730539772