18

 C   -0.0773954759    1.3955052219    0.0571652663
 O    0.1426396366    0.0080206183   -0.0471740354
 C    0.6910261409   -0.5941110937    1.1160880896
 C   -0.3418184017   -0.7755440994    2.2357068528
 C    1.2626421892   -1.9077502891    0.6774364682
 C    1.2941764565   -2.4563449682   -0.5598829933
 O    1.9205777201   -3.6720850304   -0.4676844748
 C    2.2355288882   -3.7848923803    0.8394998183
 N    1.8765467113   -2.7821220167    1.5714994732
 H    0.8445210471    1.9330735510    0.3288891492
 H   -0.4093280308    1.7411686066   -0.9249261410
 H   -0.8531074146    1.6465458707    0.7943806044
 H    1.5152476925    0.0332610384    1.4983355863
 H   -1.2009205554   -1.3398042059    1.8613585515
 H    0.1087557821   -1.3298220075    3.0626626800
 H   -0.6905457692    0.1886145229    2.6158399075
 H    0.9518333909   -2.1533856289   -1.5318164349
 H    2.7478711621   -4.6848622598    1.1414997721