18

 C   -0.0476719195    1.4976784726   -0.0117409848
 C   -0.0166136768    0.0028194892    0.0152561824
 N    0.0008804023   -0.6728850020   -1.1095001449
 O    0.0443601000   -2.0166864628   -0.7476862685
 C    0.0534970864   -2.0986809261    0.5899077747
 C    0.0156021423   -0.8650833730    1.1576256064
 C   -0.0062290522   -0.4953482363    2.6087769128
 C   -1.4203915483   -0.2411110299    3.1382160744
 O   -1.3024717267    0.1310363018    4.5002204455
 H    0.8073172718    1.9172232823    0.5291076925
 H   -0.0156878684    1.8523816503   -1.0434791087
 H   -0.9552922761    1.8858174763    0.4622484783
 H    0.0963709331   -3.0964622238    1.0003758712
 H    0.4476147931   -1.2882860308    3.2119202852
 H    0.5891592439    0.4081857142    2.7822811001
 H   -1.9048800173    0.5503819679    2.5441172212
 H   -2.0245431303   -1.1537767565    3.0159229573
 H   -2.1847685071    0.2833561766    4.8507916749