19

 C   -0.0371191260    1.3669761818   -0.0155039677
 O    0.0306092858   -0.0444800370    0.0400516775
 C    0.6882464498   -0.5357302239    1.1335721953
 C    0.6636274028   -0.2032368506    2.6216750771
 C    0.9072904765   -1.7042998830    2.9474052277
 C    0.9186573259   -2.0350688421    1.4570874664
 C    2.2196189879   -1.6803297878    2.1697989896
 C    3.4691437720   -2.4821373338    2.3334006533
 C    1.9925054044   -0.1699433966    1.8335324044
 H    0.9651601146    1.8165325835   -0.0545913392
 H   -0.5792460108    1.6232157877   -0.9276306229
 H   -0.5757268526    1.7779366690    0.8500874443
 H    0.1963637637    0.5974241764    3.1789193365
 H    0.6017627869   -2.3300710339    3.7770092894
 H    0.6345836687   -2.9434215159    0.9433237865
 H    4.0752628916   -2.4707947325    1.4197968987
 H    4.0890233385   -2.0983139452    3.1523303637
 H    3.2289703222   -3.5270748197    2.5596112184
 H    2.6783957082    0.6575865937    1.7076438609