21

 C   -0.0329585227    1.4084557176    0.0097149488
 O    0.0532929236    0.0054560873    0.0015847440
 C   -1.2060036651   -0.6115642488    0.0102769969
 C   -1.0460958584   -2.1216057500    0.0006261657
 O   -0.3820503905   -2.5020296788   -1.1774523826
 C   -0.2075930446   -3.9098497629   -1.2566361304
 C    0.5415746064   -4.4253185249   -0.0269194280
 C   -0.1839338477   -3.9231860192    1.2223458066
 O   -0.3597264481   -2.5146142625    1.1616574241
 H    0.9878892346    1.7978340118    0.0020691020
 H   -0.5665695267    1.7923216529   -0.8750959364
 H   -0.5496622074    1.7830319167    0.9084337080
 H   -1.7809984749   -0.3337662038    0.9091614555
 H   -1.7980058463   -0.3241739658   -0.8744387559
 H   -2.0569882106   -2.5829740331    0.0077931549
 H   -1.1916228638   -4.4054718393   -1.3331816135
 H    0.3402536156   -4.1022740092   -2.1826254307
 H    0.5883128767   -5.5200753544   -0.0332554664
 H    1.5642569484   -4.0349551000   -0.0345799383
 H   -1.1663735645   -4.4197055788    1.3123234637
 H    0.3814676460   -4.1255049649    2.1355859822