15

 O    0.0173461997    1.4763022432    0.0608610090
 C   -0.0391439012    0.0855869131   -0.0211534910
 C   -1.4816069731   -0.4636011482   -0.1381019079
 C   -1.4338993507   -1.4174374448   -1.3024022108
 C   -0.2665834588   -1.4066492192   -1.9580471619
 C    0.6669074287   -0.4546750171   -1.3268504697
 O    1.7602232646   -0.1105179843   -1.6941541596
 C    0.6844959192   -0.5350875796    1.1605947849
 O    1.3226546269    0.1380939236    1.9305847795
 H    0.6932805498    1.6747793938    0.7286960895
 H   -1.8441611871   -0.9507477203    0.7751952869
 H   -2.1550962673    0.3779833183   -0.3324224412
 H   -2.2886356394   -2.0314491633   -1.5655163810
 H   -0.0101345875   -1.9714671669   -2.8449127227
 H    0.6037781362   -1.6358878782    1.2649355261