14

 N   -0.2478527103    1.4029829054    0.0139272827
 C   -0.0448107920   -0.0340691420    0.0519615616
 C    0.6991859626   -0.5881571557   -1.1034102260
 N    1.2738453044   -0.9632412223   -2.0336276865
 C    0.7317715762   -0.3893134929    1.3283475508
 O    1.4268964818    0.3796423323    1.9272907618
 O    0.5182759991   -1.6886381219    1.6498492756
 C    1.2093637342   -2.2162757799    2.7272299618
 N    0.9538450927   -3.4006354822    3.0485618887
 H    0.6307005233    1.8716884154    0.2144001867
 H   -0.5623906738    1.6934247402   -0.9053332815
 H   -1.0097836407   -0.5511168445    0.0969817278
 H    1.9096631522   -1.5070906192    3.1671921187
 H    1.5261645301   -3.6796473927    3.8442437579