18

 C    0.7791498765    1.3710654649   -0.2023413209
 N    0.8947796172   -0.1038196305   -0.2853008328
 H    1.8779825700   -0.4006519143   -0.3555282309
 H    0.5062197177   -0.5637238700    0.5392600118
 C    0.1275153988   -0.8226399804   -1.5359923130
 C    0.2824389743   -2.2602923510   -1.4796413972
 C    1.5260060563   -2.9891124063   -1.9570222915
 C    2.7097928935   -2.2885241963   -1.4813087405
 N    3.5412853799   -1.6003252700   -1.0514946789
 N   -0.6688341605   -2.9219986224   -0.8010942510
 O   -0.5258037060   -4.1585674458   -0.6319526010
 H    1.2113672252    1.8047215634   -1.1053806844
 H   -0.2764725626    1.6405437975   -0.1385506185
 H    1.3117020739    1.7476324157    0.6729793338
 H   -0.9110281813   -0.5252059119   -1.3798893003
 H    0.5703460609   -0.3089686389   -2.3934173837
 H    1.4296158839   -3.9905320625   -1.5042314516
 H    1.5938051625   -3.1157461511   -3.0456915195