15

 N    0.1714259034    1.5048092092    0.0554456433
 C   -0.0341574247    0.0808388525    0.0699664581
 C    1.0261536262   -0.5936788630   -0.6684434460
 N    1.8543237723   -1.1237797842   -1.2760765452
 C   -0.4645353504   -0.7523155695    1.2613424316
 C   -1.6909711761   -0.1799587554    2.0369998303
 O   -2.1360549978    1.0488710866    1.4425118793
 C   -2.5065582330   -0.1973481317    0.8271980623
 C   -1.3240073740   -0.7631293622   -0.0107852282
 H    0.2141612750    1.8359926089   -0.9034088790
 H   -0.6035597275    1.9575252605    0.5220750661
 H    0.1563859529   -1.5437114870    1.6605699643
 H   -1.9260601374   -0.3473903729    3.0802917966
 H   -3.5611836352   -0.3785680617    0.6626195738
 H   -1.4400260337   -1.5613331601   -0.7322063274