15

 N    0.0432913273    1.3705496802    0.1484003392
 C    0.0216384972   -0.0088820381    0.0559627233
 N   -1.1030432374   -0.7093316521    0.0335233784
 N   -0.6258119932   -1.9968242031    0.0136053725
 C    0.7121618050   -1.9771451106    0.0150674991
 N    1.5172217452   -3.1002461402   -0.0064057442
 C    1.0844078394   -4.3995626610   -0.0336910737
 N   -0.1546143657   -4.7095437876   -0.0490880803
 N    1.1779916637   -0.7389773286    0.0410498615
 H    0.8667896382    1.7781927204   -0.2698853370
 H   -0.8103711743    1.8022317787   -0.1755067287
 H   -1.2074832190   -2.8216644673   -0.0063728086
 H    2.5053514830   -2.9079812995    0.0110600714
 H    1.9177972747   -5.1086273207   -0.0409363884
 H   -0.2743809038   -5.7179485307   -0.0691274646