23

 C   -0.2322061058    1.5862708969    0.8637281830
 C   -0.0573725278    0.1121228828    0.5274440422
 C    0.9502397840   -0.3962941658   -0.5549401328
 C    2.2990989782    0.1690169594   -0.0570238552
 C    2.1626542678   -0.1701296706    1.4632594942
 C    0.7739136457   -0.8417105726    1.4284376463
 O    0.2073827351   -1.2654224337    2.6317997730
 C    0.9219491353   -1.7787216315    0.1738394030
 C   -0.2115712406   -2.7529962645   -0.1163847319
 H    0.7152026223    2.1088196719    1.0210620210
 H   -0.7641152581    2.1058293321    0.0590309839
 H   -0.8264611296    1.6979171931    1.7771077025
 H   -1.0419920815   -0.3261633098    0.3549742567
 H    0.7297899196   -0.3092531756   -1.6192380728
 H    3.1492941427   -0.3352707066   -0.5251173810
 H    2.4071950382    1.2409768309   -0.2415118304
 H    2.9365486895   -0.8620236317    1.8143203815
 H    2.1821135528    0.7111978326    2.1100780242
 H    0.8866875680   -1.7105370109    3.1495548427
 H    1.8752765213   -2.3213736147    0.1315032157
 H   -1.1942366918   -2.2779127457   -0.1679508181
 H   -0.0430949615   -3.2657323752   -1.0695565744
 H   -0.2632956138   -3.5163687708    0.6676360568