16

 C   -0.0393359801    1.5709104127    0.0374627389
 C   -0.0106878006    0.0410933109   -0.0028695085
 C    0.7289704592   -0.5015677633   -1.2296207561
 C    0.7137089581   -2.0391062852   -1.2920660767
 O   -0.5920937178   -2.5871038000   -1.3350460536
 C    1.5244490461   -2.5210978059   -2.4310156898
 N    2.1353454486   -2.8793183494   -3.3442531174
 H    0.9732416650    1.9883370695    0.0608677716
 H   -0.5455062386    1.9818619160   -0.8429838417
 H   -0.5691610871    1.9317169089    0.9239572902
 H    0.4715845218   -0.3435653648    0.9053884247
 H   -1.0308003253   -0.3565872473    0.0018968164
 H    0.2790067612   -0.1100185367   -2.1521492554
 H    1.7724871539   -0.1639405644   -1.2295096905
 H    1.1590820095   -2.4405219093   -0.3742183746
 H   -1.0076180639   -2.3097673317   -2.1600765074