18

 C   -0.2181953622    1.5833854571   -0.1610922392
 C    0.0433836051    0.0925012699   -0.0120585825
 O   -1.1070533528   -0.5568170830    0.6531447802
 C   -0.3710832148   -0.6769616690    1.9076213458
 C    0.8914208062   -0.4161081022    1.1228562356
 C    2.0096837911   -1.0318053879    0.7415096756
 C    2.0520058925   -1.0272720212   -0.7604360336
 N    0.9812792302   -1.9421510336   -1.2489749549
 C    0.7275836571   -0.4933770975   -1.2397844721
 H    0.6635636509    2.0971564700   -0.5575267843
 H   -1.0523384214    1.7447360934   -0.8527693786
 H   -0.4787134485    2.0359944322    0.7991417084
 H   -0.6790654896    0.0939967907    2.6256356767
 H   -0.4737694440   -1.6680471760    2.3598418726
 H    2.6404426943   -1.6757293471    1.3427354504
 H    2.9634729456   -0.9301523445   -1.3406997990
 H    1.1905392244   -2.2123059415   -2.2089958322
 H    0.6502873860    0.0253830101   -2.1900971989