22

 C   -0.0347414770    0.9275025553   -2.2578489576
 C    0.0033759594   -0.2022332994   -1.2492637409
 C    1.1922037458   -0.4587083417   -0.3332789266
 C    2.4420150107    0.3917174093   -0.3722437653
 O    3.3537087482   -0.0396656737   -1.3773978655
 C   -0.1100554015    0.0605007551    0.2349993760
 N   -0.1615216109    1.4260932241    0.6831333058
 C   -1.4308751571    1.8783464683    1.2445111630
 C   -0.2546828402    1.6348637219    2.1249206803
 H    0.3953326833    1.8460923628   -1.8561052285
 H    0.5033450976    0.6606882830   -3.1753277418
 H   -1.0683078937    1.1510123497   -2.5444062375
 H   -0.5042383493   -1.1026783278   -1.5863510266
 H    1.4035617814   -1.5059858854   -0.1326015050
 H    2.1871281176    1.4523019949   -0.4834097718
 H    2.9873056368    0.2913903125    0.5727444032
 H    2.8956105619    0.0212390678   -2.2216555777
 H   -0.7058692861   -0.6479481127    0.8193161932
 H   -1.7294851104    2.8904067996    0.9866785200
 H   -2.2476177593    1.1600747641    1.2954520826
 H   -0.2857982099    0.7540541338    2.7640490398
 H    0.3214555429    2.4658276286    2.5217699508