16

 C   -0.1210812585    1.6033078196    0.0739858705
 C    1.3964573549    1.3052839113    0.0147150857
 C    1.2642879809   -0.0255840446    0.8859558580
 C    2.0405750551   -0.8679783620   -0.1486192593
 C    1.1900170405    0.1066964162   -0.9884996952
 N    0.6172118687   -0.1771129173   -2.2992991980
 C   -0.5025422281   -0.7151572244   -1.9921467325
 O   -0.9296660121   -0.7893410567   -0.6713138349
 C    0.0011739917    0.0797539252   -0.0338230615
 H   -0.5107077607    2.0160206985    1.0080202092
 H   -0.5397141744    2.1202498582   -0.7932418509
 H    2.2357011692    1.9963601269    0.0779952389
 H    1.2932944577   -0.0596737751    1.9748700529
 H    3.1255431886   -0.7399801239   -0.1768435163
 H    1.7687824857   -1.9249855307   -0.2145225862
 H   -1.2000060090   -1.1568153113   -2.6956146405