15

 N   -0.0748072825    1.3208269652    0.0003936136
 C    0.0733072559   -0.0158327560    0.2030415001
 O    0.9838079709   -0.5489778580    0.7880399790
 O   -1.0038072638   -0.6726545905   -0.3321047111
 C   -0.9936786298   -2.0777393962   -0.2175195964
 C   -2.1552838750   -2.7171560104    0.5719667861
 O   -2.5570928049   -3.4520808320   -0.6274450375
 C   -1.6087193671   -2.8105237616   -1.3999903309
 N   -1.3799441329   -2.8455287154   -2.6291026586
 H    0.7300434531    1.8944162642    0.1841005471
 H   -0.7459123879    1.6398336431   -0.6775686053
 H    0.0002746205   -2.4215705040    0.0705751064
 H   -1.8910026054   -3.3966097375    1.3843391836
 H   -2.9291960021   -2.0111542646    0.8815622846
 H   -2.0328370991   -3.4612498563   -3.1169169408