18

 C   -0.1087310871    1.5234115513    0.0610598880
 C    1.4110216138    1.4151830921    0.0193526517
 C    1.9300084727    0.5143590999    1.1630870333
 C    2.5309344328   -0.4145384552    0.1162832923
 C    2.5065496230   -1.8196238840    0.7741832992
 C    1.0993915898   -1.7491587907    1.3621776456
 C    0.7108788245   -0.4564807911    1.2953339753
 C   -0.0315374651   -0.0083895046    0.0782002858
 N    1.3405133868    0.1076150377   -0.7865277251
 H   -0.5877028963    2.0121834768    0.9121716120
 H   -0.5048202749    1.9104718133   -0.8807399108
 H    2.0614674142    2.2048873954   -0.3582480161
 H    2.4360505872    0.8508361085    2.0702921368
 H    3.4493462738   -0.1277185761   -0.4058055567
 H    2.5558925980   -2.6636555687    0.0769145014
 H    3.3659496569   -1.9156970215    1.4536357647
 H    0.4044257349   -2.5710396575    1.2177187251
 H   -0.7991453051   -0.6531770555   -0.3440857924