21

 C    0.0979492048    1.5092157291   -0.0888746689
 C   -0.0057925029   -0.0104990317    0.0107840443
 C   -1.4821802441   -0.4499594515    0.0869577875
 O    0.6228217686   -0.5105869473   -1.1800854141
 C    0.8853279541   -1.9020772018   -1.2304994436
 C    1.8439662418   -2.3183864367   -0.1197202205
 C    1.2379746192   -1.9490446530    1.2423433922
 C    0.7227598110   -0.5162921226    1.2782938329
 O    0.8324971061    0.1783806054    2.2615530554
 H    1.1426239061    1.8077481212   -0.2045449350
 H   -0.4617699271    1.8599789564   -0.9598668166
 H   -0.2973661212    1.9767326121    0.8136806284
 H   -1.9981280068   -0.1311085293   -0.8233602611
 H   -1.5946000333   -1.5335736740    0.1816496572
 H   -1.9688539798    0.0132339862    0.9497289771
 H   -0.0453234229   -2.4890452218   -1.1703861931
 H    1.3206426519   -2.0810779196   -2.2180331137
 H    2.0504004150   -3.3932221858   -0.1725376322
 H    2.7959113847   -1.7936400910   -0.2595286800
 H    0.3747095175   -2.6012053323    1.4407388936
 H    1.9353560671   -2.0800956722    2.0733051702