18

 C   -0.1731382988    1.5871123895    0.1009363227
 C   -0.1687208958    0.0670578919    0.2403188554
 C    1.1363556475   -0.4941731573    0.7696073779
 O    2.1392059499    0.1644658420    0.9066687141
 C    1.1151749083   -1.9947930893    1.1514914747
 C    2.5157593839   -2.6052496321    1.1497278773
 C    0.4614860746   -2.0937153648    2.5301109921
 O   -0.7224816702   -2.0158977850    2.7321509079
 H    0.6410705444    1.9221840131   -0.5461192171
 H   -1.1202751186    1.9315109221   -0.3228384466
 H   -0.0370599790    2.0692851846    1.0728285575
 H   -0.9763294391   -0.2953484394    0.8890375307
 H   -0.3488606841   -0.4190760435   -0.7301068211
 H    0.4379902602   -2.5045943569    0.4572905328
 H    2.4912958973   -3.6441435892    1.4922336138
 H    2.9461192970   -2.5855363681    0.1456317089
 H    3.1801693401   -2.0330159765    1.8017160242
 H    1.1830173524   -2.2254069609    3.3672007449