17

 O   -0.2396838093    0.0275688463    0.2275384270
 C   -0.0753637472    1.2079681185    0.1131815161
 O   -1.1100319967    2.1120841950    0.2257812533
 C   -0.6273804106    3.4473660618    0.0493408074
 C    0.8499472784    3.2780633838   -0.1889399922
 C    1.1590745669    1.9841861785   -0.1553582892
 C   -1.3608456734    4.1551433903   -1.0779479211
 C   -1.7628762377    3.4193723790   -2.3276320025
 C   -2.8151961869    3.8720851359   -1.3437021306
 H   -0.8060817732    3.9895650404    0.9899560934
 H    1.5116530114    4.1164293858   -0.3648635655
 H    2.1174119039    1.5057793420   -0.2924236711
 H   -1.0321206406    5.1843063217   -1.1969373993
 H   -1.6761476352    3.9401166838   -3.2744556553
 H   -1.5579169410    2.3562860563   -2.3767915802
 H   -3.2888695324    3.1048002197   -0.7429664875
 H   -3.4557821862    4.7046761612   -1.6118315129