15

 O   -0.0530275164   -0.0609994728   -0.4147092883
 C   -0.0569491940    1.0828622530   -0.0359387218
 C    1.1963456247    1.9146737373    0.0224732605
 C    1.2885029729    3.3506089356   -0.5917735713
 C    0.3651955796    3.9197237058    0.5066964338
 C    1.4316130612    2.9780822278    1.1445313717
 O    2.4515355869    3.6166720817    0.2875489931
 C    1.7300214173    2.7443990544    2.5923174138
 O    1.0609927186    2.0165252097    3.2784229581
 H   -1.0006935298    1.5709360707    0.2859417582
 H    2.0747543204    1.3030962067   -0.1857146533
 H    1.3815111784    3.6252772878   -1.6413556728
 H    0.5198001717    4.9760673300    0.7247568145
 H   -0.6835990567    3.6242508245    0.5388030866
 H    2.6072657853    3.3049666279    2.9801718870