15

 O   -0.1344684310    0.0458387125    0.2237790539
 C   -0.0325666775    1.2227729387    0.1076354917
 O   -1.1445559106    2.0745268376    0.0261828606
 C   -0.6278147932    3.3382571687   -0.0725423282
 N    0.6306594743    3.4908152686   -0.0910386855
 C    1.1885016436    2.1399076347    0.0050474067
 C    2.1560254788    1.9585121441    1.1672737017
 C    3.1438702643    3.0138947589    1.4823237632
 N    2.0134544756    2.7468615159    2.3946376315
 H   -1.3699972427    4.1259310936   -0.1269681918
 H    1.7135258684    1.8938872180   -0.9281401557
 H    2.4125507656    0.9143746972    1.3301603757
 H    4.1212307935    2.7401124429    1.8682292331
 H    3.1140481599    3.9204852542    0.8854547244
 H    1.3094332710    3.4687886944    2.2519199886