15

 C   -0.0528447522    1.5048149370    0.0375291199
 C    0.0378662758    0.0169673876    0.0911343589
 C    1.2115996770   -0.8388559763   -0.3296492416
 C    0.6125215893   -0.9927458412    1.0546077398
 O    1.3127716699   -0.8006820189    2.2281336299
 C   -0.7368167363   -1.6954085934    0.9457298370
 O   -1.1738232396   -0.7419108999   -0.0613559653
 H    0.9119356439    1.9527213852    0.2911859957
 H   -0.3308209900    1.8404588643   -0.9677957606
 H   -0.8052961190    1.8730070498    0.7414619434
 H    1.0884163138   -1.6042406558   -1.0921854535
 H    2.1666153322   -0.3210365953   -0.3317175696
 H    2.0329433260   -1.4399375945    2.2618610108
 H   -0.7619490489   -2.7299590932    0.5824931657
 H   -1.3361828119   -1.6006625854    1.8585311795