14

 C   -0.0629033295    1.5206363918   -0.0065736885
 C    1.4440735340    1.8651156950   -0.0151530965
 O    2.1903584515    1.4183224290    1.1166629069
 C    2.2719211012    0.6312114066   -0.0942786574
 C    1.2600635626   -0.4371636755   -0.1212806436
 C   -0.0074972130    0.0178840751   -0.0355105606
 N   -0.8770786182   -1.0503030959    0.0889250313
 C   -0.0840586339   -2.0786144550    0.0530456806
 O    1.2486751181   -1.7943795229   -0.0616152576
 H   -0.5505739286    1.9152053039    0.8909314485
 H   -0.5671851783    1.9560636828   -0.8766799145
 H    1.7740048077    2.8085690359   -0.4414810909
 H    3.2479848016    0.5745905477   -0.5623397703
 H   -0.3442976051   -3.1247624985    0.0844673527