12

 O   -0.0144934371   -0.0424283241    0.0025855306
 C    0.0069217088    1.1521333877    0.0088865277
 C   -1.1891858908    2.1317137248    0.0316684708
 O   -0.6473246892    3.4765156346    0.0311675969
 C    0.6775687730    3.3347049816    0.0111047615
 N    1.6734395414    4.1669700522    0.0011685320
 C    2.7402776181    3.2797031819   -0.0192155430
 N    2.4602129555    1.9909661716   -0.0222884996
 N    1.0875374050    2.0337151054   -0.0019755486
 H   -1.8167367096    1.9993838797   -0.8528399792
 H   -1.7907602359    1.9895772915    0.9325525283
 H    3.7632558708    3.6266401129   -0.0322061875