19

 C    0.2253860361    1.6682321300    0.0080843734
 C   -0.1028468097    0.1953774649    0.2551466984
 O    0.0667991126   -0.5576467537   -0.9559978272
 C    0.9973734400   -1.6241706011   -0.7677785860
 C    1.4352803708   -1.5015574011    0.6682569508
 C    0.8015107501   -0.4890486968    1.2462188243
 C    0.3234699691   -2.9483997955   -1.0788248685
 C    0.4404017293   -3.5775131978   -2.3972334768
 O    1.2060048509   -4.0525758986   -1.2857122885
 H    1.2740589431    1.7844886682   -0.2807207675
 H   -0.4040103483    2.0637020780   -0.7940197645
 H    0.0429929557    2.2599356277    0.9115404508
 H   -1.1578459194    0.1187509821    0.5659765899
 H    1.8449782261   -1.5094339044   -1.4626629084
 H    2.1545888096   -2.1746276088    1.1160549391
 H    0.9003260066   -0.1598374773    2.2731360829
 H   -0.5526892001   -3.1680046884   -0.4671427272
 H   -0.3415824401   -4.2495316538   -2.7465184289
 H    1.0120725075   -3.0788723239   -3.1789600661