18

 C    0.2466285729    1.1581657486    1.1390581346
 C   -0.2640797796    0.5319897546   -0.1551833822
 O    0.7112441932   -0.4014255981   -0.6920655584
 C   -1.5969810297   -0.1476219918   -0.0227811394
 C   -2.0175936141   -1.1532634535   -0.8712882203
 O   -1.3934606854   -1.7606552722   -1.9028762950
 N   -3.2779348787   -1.5331564001   -0.5235227436
 C   -3.7004182268   -0.7758189888    0.5580386896
 C   -2.6833951036    0.0818362869    0.8845937624
 H    1.2369236587    1.5935928480    0.9812703865
 H   -0.4291511198    1.9483941266    1.4796733556
 H    0.3111964002    0.4078914507    1.9354206441
 H   -0.2963378410    1.3109978702   -0.9288535978
 H    0.8414312958   -1.0774178021   -0.0147383542
 H   -0.4773687655   -1.4306374017   -1.8651726911
 H   -3.7897417268   -2.2700051029   -0.9765890155
 H   -4.6771915406   -0.9226149737    0.9870519986
 H   -2.7082716694    0.8067583897    1.6839837361