18

 C    0.0494637052    1.5823184777   -0.0492114827
 C    0.0523388479    0.0684090967   -0.1229620144
 C    0.7041400157   -0.6668298223   -1.3090523680
 C    2.1539022663   -0.1402452857   -1.2654291575
 O    2.9036767822    0.3086199663   -2.0863084204
 C    2.3257080293   -0.7058338003    0.1109561813
 N    0.9934014113   -0.6730647692    0.8132884435
 C    1.2251127872   -1.6950861886   -0.2163285938
 C    1.1588361012   -3.1765155901   -0.0654444505
 H    1.0385114682    2.0035962363   -0.2531539551
 H   -0.6504673231    1.9968253687   -0.7824277081
 H   -0.2649239783    1.9117274270    0.9458209437
 H   -0.9438816391   -0.3295640680    0.0934265343
 H    0.2141385390   -0.8636200823   -2.2593802777
 H    3.2102515247   -0.8299996276    0.7202995965
 H    0.1219491763   -3.5284933335   -0.0795870829
 H    1.6984859278   -3.6765128532   -0.8759698899
 H    1.6074219584   -3.4758445720    0.8860630716