14

 O   -0.0420921304   -0.0496702326   -0.0306167409
 C   -0.0405255269    1.1292631167    0.0693900802
 C   -1.0148874428    2.3234174717    0.0142636992
 C   -0.8077520114    2.9964144743    1.3832100517
 C    0.7580782406    2.9800417508    1.4195508937
 C    1.0015448790    2.3076172629    0.0467777830
 O    0.0146144501    2.9599645111   -0.8155000099
 C    2.3367576582    2.2066388960   -0.4816018367
 N    3.4173147723    2.0924248751   -0.8748999783
 H   -1.9991047760    2.2836217912   -0.4450578401
 H   -1.2090939710    4.0110378153    1.3807290975
 H   -1.2669034945    2.4353857212    2.2006397753
 H    1.1918082375    3.9807221038    1.4383085773
 H    1.1748751153    2.3960887826    2.2428766380