19

 C   -0.6895786874    0.1220042675    0.7425705571
 O    0.0601802133   -0.8874511383    0.1005795901
 C    0.5718543488   -0.5297470249   -1.1671154074
 C    1.7010429129   -1.5206395037   -1.4988131649
 C    2.8491115434   -1.3951073693   -0.6112540419
 C    3.8003785955   -1.2740484099    0.1126732077
 C   -0.5122617267   -0.5927937350   -2.2299405384
 C   -1.1591265365    0.6101373926   -2.7698761847
 O   -0.1512202839   -0.0768797048   -3.5122215099
 H   -0.1049010091    1.0474600046    0.8549420106
 H   -1.6194477134    0.3606519540    0.2072617628
 H   -0.9451636229   -0.2555473358    1.7353227827
 H    0.9887517000    0.4896258257   -1.1458272004
 H    1.2920987875   -2.5373341269   -1.4429835948
 H    2.0060403462   -1.3511959128   -2.5377420301
 H    4.6403323817   -1.1774235341    0.7545907767
 H   -1.0629876941   -1.5350612843   -2.2553071078
 H   -2.1664336073    0.5459226730   -3.1785573096
 H   -0.8711304881    1.5901627524   -2.3913105177