17

 O   -0.0547121787    1.4753000928   -0.1771052519
 C   -0.1253484884    0.0929340804    0.0112871948
 C   -0.4852195043   -0.6369256769    1.2559315925
 C   -1.6870811927   -0.1286890457    2.0744695058
 C   -2.3284635184    1.1427638621    1.5724233368
 C   -2.5805511664   -0.1465126631    0.8465589705
 C   -1.4238975091   -0.6585873187   -0.0412615598
 C   -1.6015691437   -1.8120560657   -0.9222246915
 O   -2.6610074818   -2.3645847878   -1.1208805542
 H    0.6912638294    1.8030839072    0.3380626247
 H    0.6428861727   -0.4522761035   -0.5466818293
 H    0.1123423698   -1.4762770826    1.5923465886
 H   -1.9028985447   -0.5418133149    3.0503007705
 H   -3.1692374000    1.4600757286    2.1831727519
 H   -1.7546535895    1.9426679139    1.1296389862
 H   -3.5567114634   -0.5981796007    0.7435467419
 H   -0.6623917806   -2.1710431754   -1.4039234375