12

 N   -0.0358332773    1.4019956331    0.1479905646
 C    0.0272852393    0.0246419047    0.0403819214
 N   -1.0691716492   -0.7063722244    0.0006735814
 O   -0.6412146242   -2.0324149550   -0.0187987852
 C    0.7097897863   -2.0570748689   -0.0069146874
 C    1.1993723613   -0.7848075894    0.0314021686
 C    1.3472398278   -3.3132352869   -0.0280618221
 C    1.8973402245   -4.3831609345   -0.0470703845
 H    0.6918104155    1.8934720124   -0.3503880668
 H   -0.9530137297    1.7713251705   -0.0648271146
 H    2.2307109471   -0.4770157191    0.0628451394
 H    2.3808644787   -5.3289593526   -0.0628252847