16

 O   -0.0671546006    0.0042114748   -0.0647036851
 C   -0.0272577953    1.1991934404   -0.0192986276
 N   -1.0216669231    2.1790052822    0.0301275735
 C   -0.1156237782    3.3126281275    0.0331661769
 C    0.4020901333    3.9030571404    1.3843204788
 C    1.6293986339    2.9159986023    1.3231817316
 C    1.0423945070    2.3407977352    0.0053507605
 O    1.5448622763    2.8197180631   -1.2574080244
 C    0.4621064697    3.8033845966   -1.3191942097
 H   -2.0303327396    2.1012217147    0.0216005649
 H    0.6583547801    4.9639839898    1.3551851447
 H   -0.2810219658    3.7279370863    2.2164334577
 H    2.5910484965    3.4055141283    1.1617794639
 H    1.7226864535    2.2085124234    2.1485383624
 H   -0.1804269858    3.6503519548   -2.1919525829
 H    0.8562261081    4.8253492402   -1.3188352553