22

 C   -0.0763711916    1.5584520055    0.0117244332
 C    0.1088404158    0.0504003957   -0.0027697152
 C    1.3366868719   -0.7717831036   -0.3734261341
 C    2.7638093787   -0.2865570489   -0.3169457924
 C    3.1310418460    1.0966972835    0.0843738072
 N    3.1384279357    0.0169877761    1.0818458148
 C    1.9077731226   -0.1329595831    1.8995918532
 C    0.8003284661   -0.7894126785    1.0509356634
 C    0.0860222561   -1.9776867347    1.6562670085
 H    0.1874510791    2.0153819648   -0.9479589235
 H   -1.1290737694    1.7899433294    0.2046439670
 H    0.5005049148    2.0598957290    0.7919647163
 H   -0.7882988778   -0.4432637057   -0.3748220420
 H    1.1603954088   -1.6170009257   -1.0314164049
 H    3.4782211343   -0.8758950323   -0.8870778253
 H    4.1193943493    1.4805266137   -0.1589280490
 H    2.3635593176    1.8577447421    0.1251529667
 H    2.1477927640   -0.7938503747    2.7389036717
 H    1.6122545608    0.8313523497    2.3308490629
 H   -0.5111158874   -1.6852252248    2.5286959125
 H   -0.5955382408   -2.4371162710    0.9332854377
 H    0.7962401056   -2.7457063664    1.9845426813