20

 C    0.2679361212    1.6152185450   -0.0773904055
 C    0.0066674242    0.1168964805   -0.0694987799
 C    0.8544706773   -0.7436764294   -1.0586351620
 C    1.4801264142   -1.3831023659    0.1749936632
 C    1.9247939442   -2.7947668352    0.5381844501
 O    2.9123254282   -2.2662000109    1.4646559459
 C    2.6667130762   -0.9062760729    1.0466896912
 C    1.6347478472   -0.1564221249    1.9219060627
 N    0.5016932666   -0.7091294908    1.1039829818
 H    1.3352223009    1.8592684949   -0.0942348736
 H   -0.1822841455    2.0555899194   -0.9733932699
 H   -0.1813587605    2.1028524386    0.7945100094
 H   -1.0703581342   -0.0474981853   -0.1782288733
 H    0.2639061930   -1.4386274331   -1.6615163167
 H    1.5353778212   -0.2001799300   -1.7193720948
 H    1.1736395257   -3.4211331643    1.0320264218
 H    2.4056887407   -3.3555399806   -0.2751312055
 H    3.5790196925   -0.3989126830    0.7179454506
 H    1.5986708818   -0.4937145293    2.9617696926
 H    1.7237055252    0.9338941171    1.9054151319