19

 C    0.1242082613    1.5079027165   -0.0552285112
 C    0.0134474553   -0.0159156469   -0.0181077608
 C    0.5167473637   -0.5999676266    1.3093529621
 N   -1.3836487731   -0.3891152265   -0.3138972081
 C   -1.6927054135   -1.7084065391   -0.5666778970
 C   -2.7114899398   -2.5456535026   -0.2247555934
 N   -2.5485782146   -3.7540830756   -0.8992885019
 C   -1.4671178144   -3.6026296363   -1.5791666713
 O   -0.8797950820   -2.3754215959   -1.4385008759
 H    1.1596749610    1.8228758310    0.1018320871
 H   -0.2205373837    1.8993641052   -1.0156014716
 H   -0.4827362353    1.9629374676    0.7373708401
 H    0.6127798362   -0.4309028041   -0.8344319521
 H   -0.0504672084   -0.1911776756    2.1540463367
 H    0.4110942611   -1.6885904318    1.3241568690
 H    1.5730200664   -0.3584776792    1.4659488075
 H   -2.0390157620    0.0192770774    0.3409774567
 H   -3.5380117003   -2.3687548414    0.4436281373
 H   -0.9604755077   -4.3038498861   -2.2218599831