18

 O   -0.0073248211   -0.0041870165    0.0095208832
 C   -0.0248024791    1.1865285406    0.0320044131
 C   -1.0724237393    2.3151377767    0.0413127778
 C   -0.8093189351    2.8567329357    1.4738473315
 C    0.7167286038    3.1586859907    1.2918923440
 C    0.8224352346    4.5984598129    0.7704958656
 C    0.0506419980    4.4885689891   -0.5780639143
 N   -0.0792613759    3.0356811917   -0.8524995232
 C    0.9726622152    2.3432359744   -0.0194285640
 H   -2.0939604191    2.1998615220   -0.3161910780
 H   -1.3829401518    3.7558293717    1.7158141740
 H   -1.0247511010    2.1024549533    2.2360989732
 H    1.3477196920    2.9254470451    2.1494793461
 H    0.3742033626    5.3184333315    1.4621852482
 H    1.8653103399    4.8903500690    0.6078468771
 H   -0.9419142048    4.9462638982   -0.5427826362
 H    0.5964779759    4.9542449869   -1.4027605350
 H    1.9891147053    2.2721878171   -0.4048433631