17

 C   -0.3585787019    1.4813881655   -0.1186745692
 C    0.0313247585    0.0136594275   -0.1052394745
 C    1.4119390144   -0.3733282591   -0.6767684597
 O    1.8184580131   -0.9864830216    0.5660461423
 C    0.5812925484   -0.6141674203    1.2219464203
 C    0.7736589906    0.2642528500    2.3612384487
 C    0.9200452736    0.9876746579    3.3215431935
 C    1.0866160428    1.8036464017    4.3966972599
 C    1.2323174156    2.5281827931    5.3517964138
 H    0.4355918075    2.1077714596    0.2979838649
 H   -0.5532984259    1.8135878117   -1.1439913846
 H   -1.2654179795    1.6569520611    0.4684586527
 H   -0.7763275972   -0.5995132449   -0.5120918652
 H    1.4141178950   -1.0914203060   -1.5045999557
 H    2.0547193550    0.4772987116   -0.9384343758
 H    0.0329404616   -1.5086192951    1.5465163637
 H    1.3626675883    3.1647524274    6.1915039450