23

 C   -0.2346345587    1.5164042085    0.0729052861
 C   -0.2312401007   -0.0021926080   -0.1209566640
 C    0.9145630809   -0.4878081056   -1.0187452615
 C    0.9248822242   -1.9892004434   -1.2020561315
 C    0.0713998585   -2.6475683056   -2.2486728933
 C    1.5861031758   -2.6403703395   -2.4131900832
 C    2.2064390047   -1.8545703779   -3.4414269010
 C    2.7432166792   -1.2071932858   -4.3054074793
 C    3.3895712185   -0.4292570378   -5.3529013325
 H    0.6990048400    1.8592582658    0.5329147235
 H   -0.3390026647    2.0371487438   -0.8855833583
 H   -1.0598119945    1.8361645289    0.7170108362
 H   -0.1607341144   -0.4965393395    0.8571628179
 H   -1.1876527939   -0.3228819304   -0.5531699231
 H    0.8473823851   -0.0036195121   -2.0002151601
 H    1.8740106921   -0.1668677737   -0.5902356124
 H    1.0492599502   -2.5510826400   -0.2789015884
 H   -0.4062182178   -3.5957200784   -2.0276475269
 H   -0.4899248797   -2.0035319056   -2.9170374927
 H    2.0792124284   -3.5881184269   -2.2140004849
 H    4.1051850751   -1.0402460118   -5.9147150498
 H    2.6592967728   -0.0373865065   -6.0701004979
 H    3.9390704488    0.4248191514   -4.9407197128