17

 C    0.0055085557    1.4088482916    0.1546076288
 N   -0.0820895497   -0.0001008146   -0.1170472964
 C    0.5816197820   -0.6109771621   -1.1394773501
 C    1.1982539938    0.0236801907   -2.1805941782
 N    1.8095085649   -0.7114224986   -3.1785551785
 C    1.8331324436   -2.0646643771   -3.1553053148
 C    1.2542864243   -2.7612640552   -2.1349850674
 C    0.5936493276   -2.0910037697   -1.0445856182
 O    0.0668585416   -2.6443673604   -0.0727399939
 H    1.0444441535    1.7550793493    0.2832083254
 H   -0.4416387166    1.9985127491   -0.6579393794
 H   -0.5467860821    1.6360765847    1.0685975037
 H   -0.3134506208   -0.6553800741    0.6188045516
 H    1.2389897855    1.0979697906   -2.2951398497
 H    2.2499213099   -0.2210028039   -3.9376587200
 H    2.3377908411   -2.5430220000   -3.9859776566
 H    1.2886874457   -3.8432461703   -2.1251976563