15

 O   -0.1409551000    0.0658620414    0.5593232959
 C   -0.1264625246    1.1936402011    0.1699029293
 C   -1.1795016139    2.2970300496   -0.1021036177
 C    0.0349814945    3.2480790788   -0.1152859312
 C    0.6223044363    3.7288632269    1.2595495885
 C    1.7005541964    2.5956959763    1.1019024413
 N    0.9699512835    2.0714078196   -0.0901245466
 C    1.1003318623    5.0970645233    1.3308296980
 N    1.4918732213    6.1842747110    1.3644567501
 H   -1.7005426250    2.2144714987   -1.0589108315
 H   -1.9141194959    2.4205120340    0.6961072124
 H    0.1402415836    3.9509972519   -0.9414477956
 H   -0.0617560549    3.5391989354    2.0916319668
 H    2.6903278806    2.9711896210    0.8377492566
 H    1.7784525157    1.8809680111    1.9231554038