19

 C   -0.9709542110    1.0958523607    0.2761793965
 C   -0.0642644263   -0.1397716970    0.0911569330
 C    0.9539934985   -0.2581314513    1.2272372098
 O    1.7745506994    0.9011580844    1.1826182226
 C   -0.8563650576   -1.4333394356   -0.0251176359
 O   -0.8542664498   -2.2843779594    0.8386995283
 C   -1.6351568796   -1.7099265018   -1.2905701671
 C   -2.8437235631   -0.9533261377   -1.6710175070
 O   -1.6093415409   -0.7586900171   -2.3528266327
 H   -0.3387280133    1.9568943672    0.5016237992
 H   -1.5384121309    1.3146590118   -0.6298720359
 H   -1.6669730522    0.9547483424    1.1104201933
 H    0.4818991914   -0.0064803854   -0.8514690865
 H    0.4264051135   -0.3461328404    2.1875746089
 H    1.5471276807   -1.1743198917    1.0987421856
 H    2.3667972145    0.8770529107    1.9392190350
 H   -1.5849266083   -2.7559415851   -1.5921547795
 H   -3.6194113737   -1.4641012094   -2.2388481708
 H   -3.1820105915   -0.1238566853   -1.0550459668