22

 C   -0.2569763658    1.2499002604   -0.7881284513
 C   -0.5353628632    0.3057437565    0.3785175582
 C   -1.5214759619   -0.8079628118    0.0397375243
 O   -2.1816442150   -0.7803196798   -0.9759346147
 C   -1.5843553493   -1.9325953094    1.0801987304
 N   -2.7491003867   -2.7851412234    1.2406248141
 C   -4.0179475864   -2.6010928917    0.5391040980
 C   -3.1626044374   -3.7979210910    0.2738443350
 C   -2.4772294343   -4.0005161766   -1.0585664344
 H    0.4140966196    2.0569366762   -0.4817163541
 H    0.2062661601    0.7165348938   -1.6230003786
 H   -1.1859632131    1.6888220953   -1.1588747521
 H    0.3879116041   -0.1482509061    0.7631738939
 H   -0.9573720031    0.8542917758    1.2331685777
 H   -0.7063105220   -2.5662884935    0.8824712392
 H   -1.3787756737   -1.4667193140    2.0544581745
 H   -4.9030616150   -2.6819775452    1.1669673502
 H   -4.0724468949   -1.8588691299   -0.2490750714
 H   -3.4460669396   -4.7302905388    0.7637945253
 H   -2.3001184519   -3.0519068635   -1.5678375241
 H   -1.5191618565   -4.5201436068   -0.9337291535
 H   -3.1009631440   -4.6279461365   -1.7046733466