19

 C   -0.0429677040    1.5338184287   -0.0619459285
 C    0.0075947409    0.0177049126    0.0327018071
 O    0.6281534239   -0.4552533126   -1.1666070742
 C    0.9446759159   -1.8418788762   -1.1744853330
 C    1.6292314380   -2.2509931316    0.1426418034
 O    0.6833801002   -1.9547353285    1.1782484267
 C    0.7739474614   -0.5262980864    1.2625014437
 C    2.2713046924   -0.2783684996    1.1305020253
 C    2.7814514230   -1.3079160368    0.4630267901
 H    0.9656484779    1.9531998315   -0.1180178807
 H   -0.5855224155    1.8356174119   -0.9616136109
 H   -0.5537798630    1.9572090808    0.8087530121
 H   -1.0130316389   -0.3929337577    0.1013640844
 H    0.0350270525   -2.4511608449   -1.2919705856
 H    1.5914903298   -2.0011779132   -2.0437050216
 H    1.8627326472   -3.3191381393    0.1648622014
 H    0.3150392518   -0.1963804498    2.1988962513
 H    2.7791126327    0.6169132998    1.4620789409
 H    3.7981596438   -1.4428892486    0.1190854479