16

 O    0.0193699585    0.0764312555    0.3233943074
 C   -0.0594622021    1.2401968308    0.0769440209
 C   -1.1531324548    2.2796527722   -0.0843647440
 C   -1.0525367758    3.1902072508    1.2374844517
 C    0.0419201531    2.6869461290    2.2115972970
 C    1.0819631327    3.1045479338    1.1471950438
 C    0.0289951414    4.0868632292    0.5322216291
 C   -0.0417445251    3.1844629047   -0.7052600594
 N    0.9951808380    2.2333980918   -0.1269350602
 H   -2.1461251086    2.0608764090   -0.4753514180
 H   -2.0040453827    3.5591671796    1.6136119170
 H    0.1181560341    3.3648471504    3.0679762748
 H    0.0193342252    1.6525349073    2.5643774499
 H    2.1066999107    3.3462366614    1.4247620939
 H    0.0676525190    5.1716717791    0.5801921762
 H    0.0441132365    3.4556902855   -1.7558209901