17

 O    0.1032007697    1.3980243218    0.1136287593
 C    0.0211127535   -0.0025067720    0.0398985689
 C   -1.3551933377   -0.5790106330   -0.2877829068
 C   -1.5401185664   -0.2729779924   -1.8201573860
 C   -1.8943163018   -1.7588893449   -2.0530108076
 C   -1.0674748884   -2.0384657980   -0.7785664719
 O    0.3388811163   -1.9920542726   -1.1212074478
 C    0.6222134019   -0.6162960150   -1.2384905139
 O   -0.1837444267   -0.0235236012   -2.2594450029
 H   -0.0366019055    1.7267777649   -0.7837628288
 H    0.4669429714   -0.4185073023    0.9454861435
 H   -2.1914135479   -0.4035738665    0.3824551260
 H   -2.1843123103    0.5244925651   -2.1900514120
 H   -2.9608546303   -1.9473278314   -1.8964603219
 H   -1.5515155982   -2.2173014763   -2.9822520900
 H   -1.2528952985   -2.9159991770   -0.1595259071
 H    1.6740468190   -0.4635320591   -1.4717753211