16

 C   -0.0310980566    1.4778692775   -0.0336366567
 C    0.0108100387    0.0230113542   -0.0130335894
 C    0.0504122364   -1.1804005137    0.0259402668
 C    0.0603588491   -2.6456220459    0.0230992257
 O   -1.2364374050   -3.1912096724    0.2139608853
 C    0.7255192176   -3.1770969711   -1.2778082099
 C    0.8489791644   -4.6274254180   -1.2981047266
 C    0.9623729353   -5.8235592530   -1.3010254894
 H    0.8384811147    1.9040717756    0.4783735086
 H   -0.0362167294    1.8642930359   -1.0585865827
 H   -0.9285255516    1.8540181401    0.4694213875
 H    0.6457121390   -3.0137802599    0.8732795164
 H   -1.8303519378   -2.7508281708   -0.4042532573
 H    0.1321721718   -2.8313418503   -2.1339431924
 H    1.7128345676   -2.7105415456   -1.3780154785
 H    1.0564595659   -6.8810025527   -1.3073629074