18

 C   -0.6169695689    1.5404298045    0.5643107794
 C   -0.2748772607    0.0770514461    0.3494979047
 O   -1.4760883047   -0.6184717480    0.0338898148
 C   -1.3100543973   -2.0023884513   -0.2236777023
 C   -0.8903631884   -2.7519487180    0.9642064064
 C   -0.5508710883   -3.3456454126    1.9520429568
 C   -2.6389710063   -2.5878965924   -0.7716434276
 N   -3.7096968775   -1.7816770138   -0.5870128312
 O   -2.6629437987   -3.6808300143   -1.2943977062
 H    0.2873920710    2.1068981891    0.8048719083
 H   -1.0654816946    1.9706460338   -0.3357721087
 H   -1.3243691635    1.6528739929    1.3909225285
 H    0.4439169314   -0.0402379526   -0.4769306059
 H    0.1811699482   -0.3570053229    1.2495442281
 H   -0.5697220561   -2.1558690784   -1.0239044324
 H   -0.2539112208   -3.8842695888    2.8180524331
 H   -3.5784299201   -0.8530705405   -0.2236558296
 H   -4.6012004846   -2.0706443627   -0.9530576262