20

 C   -0.0654950042    1.5503649444    0.0377629575
 C    0.0188023323    0.0386487580   -0.0083335280
 C   -1.2002775582   -0.6649610237    0.5611137012
 C    0.6911870646   -0.6854141954   -1.1688581700
 C    1.6377556655    0.0521882512   -2.1005787101
 C    2.7833100849    0.5569929892   -1.2030149192
 O    3.6912299456    1.2924763750   -1.5175749711
 N    2.5650035390    0.0379824604    0.0530378382
 C    1.3399265674   -0.6859641365    0.2024729922
 H    0.8490991709    2.0420222051   -0.2997488710
 H   -0.8873815925    1.9086467163   -0.5926632650
 H   -0.2640287305    1.8912687134    1.0604511732
 H   -2.1001384524   -0.4235286187   -0.0164364041
 H   -1.0804538088   -1.7532654290    0.5465375596
 H   -1.3793058795   -0.3618329269    1.5991256593
 H    0.2105898689   -1.5850177724   -1.5355427755
 H    2.0492940752   -0.6104515109   -2.8684201320
 H    1.1951419307    0.9072782903   -2.6196301477
 H    3.1046859085    0.3818526827    0.8319225321
 H    1.3794274929   -1.5736958025    0.8258123606