21

 C    0.1464395022    1.5287520809   -0.0442185050
 C    0.0146180991   -0.0041029457   -0.0257411817
 C   -1.4839203799   -0.3780738576    0.0810225789
 C    0.6345036774   -0.6070454691   -1.3038874778
 C    0.9305510370   -2.0953743794   -1.1376913226
 C    1.8805819638   -2.2704952402    0.0332209896
 O    1.4020544505   -1.6685363969    1.2470537072
 C    0.6711601178   -0.5269844985    1.2683377448
 O    0.4909961621    0.0097615657    2.3295889313
 H    1.1957904490    1.8361519104   -0.0995442812
 H   -0.3721601844    1.9368725142   -0.9182277481
 H   -0.2851679126    1.9626670111    0.8590722834
 H   -2.0303738408    0.0441077802   -0.7688625065
 H   -1.6418691174   -1.4607070379    0.0807429355
 H   -1.9085198766    0.0233887437    1.0039346467
 H   -0.0365437380   -0.4247884356   -2.1506584044
 H    1.5729125598   -0.0849405812   -1.5333352952
 H    0.0105026314   -2.6634717955   -0.9609015128
 H    1.3962093348   -2.5101625532   -2.0381959870
 H    2.0398944618   -3.3228341992    0.2820184968
 H    2.8587274431   -1.8288114861   -0.2006459619