19

 C   -0.0035071054    1.5110006700    0.0633275448
 C    0.0396273052    0.0105434860   -0.0084447619
 C    1.0948974077   -0.7705153919   -0.7849331856
 C    0.5366762603   -2.1503643536   -0.3864110799
 O    0.5050156874   -2.0928487527    1.0367573181
 C   -0.2855467167   -0.9240314160    1.1596461604
 C   -1.1904089423   -0.9060991187   -0.0537611721
 C   -2.6316920444   -0.5231210980   -0.1379597726
 O   -0.8264188488   -2.0752932649   -0.7803431382
 H    0.9213258333    1.9125834048    0.4929521880
 H   -0.1303893306    1.9561630502   -0.9301186774
 H   -0.8320029799    1.8609211771    0.6879189532
 H    1.0517763886   -0.6057069223   -1.8642839734
 H    2.1114450467   -0.6129088512   -0.4161104125
 H    1.0034964810   -3.0669976850   -0.7363268595
 H   -0.5371261212   -0.6372138249    2.1710751211
 H   -2.8343612855    0.3533937246    0.4832156946
 H   -2.9162920454   -0.2834823065   -1.1677831345
 H   -3.2675854700   -1.3427897669    0.2108516374