12

 N    0.2943170104    1.1219925719    0.4363586774
 C   -0.1966924667    0.2771197858   -0.5103217733
 O    0.2789353649    0.1339171624   -1.6180023171
 C   -1.3849315317   -0.4606325455   -0.0890739484
 C   -2.3643542250   -1.1088033816    0.1931781867
 C   -3.5242175400   -1.8994243858    0.5494332421
 O   -3.4563739997   -2.8540630339    1.2967183852
 C   -4.7618252471   -1.4552244534   -0.0546459719
 C   -5.7920955178   -1.0880458254   -0.5565198094
 H    1.1421336977    1.6252457297    0.2297707588
 H   -0.0791800634    1.1446687473    1.3695973189
 H   -6.7054697616   -0.7698482115   -0.9983326491