16

 O    0.0085146644    1.3882396529    0.1463062037
 C   -0.0354346812    0.0013822916   -0.0153997672
 C   -1.4719398032   -0.5223976687   -0.1762511081
 C   -1.5083586765   -2.0402108621   -0.3081983890
 O   -2.4098372795   -2.7286063387    0.1219407980
 N   -0.4077525739   -2.5905181076   -0.9245271796
 C    0.6057870307   -1.8756160243   -1.6769976092
 C    0.7598017865   -0.4286518607   -1.2337635746
 O    1.4509039171    0.3565492715   -1.8409553748
 H    0.6583491491    1.7087467956   -0.4992930720
 H    0.4156534899   -0.5081853293    0.8562242019
 H   -2.0838632373   -0.2423945620    0.6818635294
 H   -1.9284065031   -0.0677258440   -1.0644385205
 H   -0.4601876534   -3.5929706342   -1.0380241988
 H    1.5794775474   -2.3644175502   -1.5470376337
 H    0.4060299228   -1.8626346498   -2.7583351455