18

 C   -0.1879990366    1.5380050178    0.0755116102
 C    0.0465541847    0.0140478696    0.0477953027
 C    0.7459569933   -0.4641348688   -1.2485899197
 C   -0.0807602050   -0.2292037725   -2.5241718352
 C    0.5512159021   -0.9044318902   -3.7213820749
 O    0.8601063385   -0.3507466022   -4.7440772470
 C    0.8194228924   -0.4088872495    1.2150433585
 C    1.4754187335   -0.7473460139    2.1640065574
 H    0.7619944128    2.0740677173   -0.0121494342
 H   -0.8392563547    1.8503684762   -0.7452647888
 H   -0.6584197637    1.8357435046    1.0157121639
 H   -0.9341806659   -0.4813990859    0.0959650412
 H    1.7150700360    0.0406871877   -1.3359690392
 H    0.9613671172   -1.5342263571   -1.1484086080
 H   -1.0804215605   -0.6701935599   -2.3909747359
 H   -0.2034394807    0.8316667472   -2.7547848591
 H    0.7252345987   -1.9987993795   -3.5876727152
 H    2.0445620879   -1.0506066409    3.0076262032