22

 C   -0.0056581108    1.6019326614    0.0686141847
 C    0.0392790665    0.0679108167    0.0857603735
 C    0.7595479834   -0.4342029981    1.3462846354
 C   -1.3901061021   -0.5064936988   -0.0461684702
 O   -2.0657320573    0.0430496332   -1.1721340859
 C   -1.4416922147   -2.0423443584   -0.1459990096
 C   -2.8716302346   -2.5745403643   -0.0897802737
 O   -0.8185891509   -2.3490026982   -1.4005045244
 H    1.0057732678    2.0210128628    0.0675008955
 H   -0.5383104399    1.9668200593   -0.8112060076
 H   -0.5228941085    1.9865153977    0.9567819522
 H    0.6026249664   -0.2740707293   -0.7923862477
 H    0.9509830322   -1.5105745404    1.3225358872
 H    1.7274695808    0.0654453275    1.4556400154
 H    0.1757993360   -0.2147292325    2.2491117364
 H   -1.9713617576   -0.1990288393    0.8337184930
 H   -1.7143237622   -0.4374112825   -1.9337173859
 H   -0.8601877363   -2.4848105601    0.6745151214
 H   -3.4876752319   -2.0841841611   -0.8472351014
 H   -2.8922731048   -3.6581684256   -0.2569402179
 H   -3.3148946581   -2.3860604865    0.8933342292
 H   -1.0310121733   -3.2581195834   -1.6305296797