19

 C    0.0671156909    1.5093491115   -0.1228576429
 O    1.5104455155    1.4798846209    0.1254162359
 C    1.2986071288    0.2437778802    0.8868408648
 C    1.9248804775   -1.1265753101    0.8109738573
 C    0.6518924827   -2.0135482486    0.9303383239
 C   -0.6306051304   -1.1289103531    0.9166207126
 C    0.0263726580   -0.0164793273    0.0913052933
 C    0.5532208361   -0.7900913232   -1.1498366298
 C    1.3606130726   -1.8325535953   -0.3967049899
 H   -0.4527171770    2.0989319789    0.6438014104
 H   -0.1668684462    1.8962750614   -1.1184546117
 H    1.1176098558    0.5261709583    1.9340330129
 H    2.8442027400   -1.4262393186    1.2963636300
 H    0.6904645298   -2.9477656418    1.4748422419
 H   -1.4670315654   -1.6440466903    0.4339962251
 H   -0.9395804457   -0.8079974999    1.9151949774
 H   -0.2691444285   -1.2168290200   -1.7350135310
 H    1.1706222200   -0.1649120114   -1.7979378107
 H    1.8878007357   -2.6425715916   -0.8837051594