19

 C   -0.0301375427    1.5391215515   -0.1058471814
 C   -0.0146439773    0.0412260698    0.0790895170
 O    1.2228093580   -0.6429256554   -0.1176222791
 C    0.6346833125   -0.6606519200    1.2054768136
 C    1.3614693106    0.1026812906    2.3006241290
 O    2.1295380334   -0.7602293986    3.1194919840
 C    1.3417545033   -1.7227788604    3.7894743653
 C    0.4040381180   -2.4487604147    2.8651411735
 C    0.1131910688   -1.9729838317    1.6553645807
 H    0.8263213682    2.0211192702    0.3692655712
 H   -0.0050426232    1.7829951704   -1.1731232275
 H   -0.9485914276    1.9650758419    0.3122631999
 H   -0.8687725345   -0.4690046826   -0.3748975753
 H    2.0638998963    0.8146389682    1.8649511269
 H    0.6263923769    0.6568696030    2.9106739738
 H    2.0468819785   -2.4262544087    4.2462276664
 H    0.7746338086   -1.2562525649    4.6180821112
 H   -0.0180113471   -3.3849792403    3.2200839650
 H   -0.5213454708   -2.5196055185    0.9637928757