21

 C   -0.1192425930    1.5150679317   -0.0860357994
 C    0.1545318844    0.0120806099   -0.1543746357
 O    1.2777161486   -0.2649866138   -0.9919852236
 C    0.4789437075   -0.5758317963    1.2205828994
 C    0.5347102283   -2.1008005619    1.2528624296
 C    1.8079227897   -2.7917485514    0.7891513966
 C    1.4786619818   -2.7626776023    2.2513483240
 C   -0.7162633221   -2.7636644725    0.9922918034
 C   -1.7739023315   -3.2966399133    0.7760213985
 H    0.7440859604    2.0449307789    0.3296327970
 H   -0.3146556909    1.9185639497   -1.0862094150
 H   -0.9950079831    1.7298621940    0.5350624417
 H   -0.7392682737   -0.4988552791   -0.5452759405
 H    1.0596989026    0.0200792941   -1.8845695876
 H    1.4473756606   -0.1744090348    1.5420007258
 H   -0.2721837518   -0.2302367664    1.9398683876
 H    1.6982684576   -3.7300760996    0.2588767601
 H    2.5902019066   -2.1453923108    0.4116425919
 H    2.0454662246   -2.1028817538    2.8999274575
 H    1.1414117441   -3.6785514501    2.7217469640
 H   -2.7013152407   -3.7765660722    0.5851443647