13

 O    0.0972463410    1.3675180399    0.1311290224
 C    0.0678524749    0.0068424163    0.0400805622
 C    0.0761418569   -0.6646100168   -1.1834359131
 C    0.0447916339   -2.0568390099   -1.2095635585
 C    0.0052224321   -2.7854492589   -0.0243799130
 C   -0.0027741535   -2.1059217819    1.1939332909
 C    0.0282225363   -0.7173008208    1.2333985161
 H    0.1226305024    1.7401784789   -0.7561445864
 H    0.1070304048   -0.0987829965   -2.1112642157
 H    0.0515297324   -2.5700062722   -2.1656883557
 H   -0.0191103420   -3.8689687908   -0.0478804758
 H   -0.0335038287   -2.6625358966    2.1250038973
 H    0.0224610795   -0.1755467506    2.1723285893