20

 C    1.0371210712    2.0923939953    3.1071782199
 C    0.5164159184    0.7255168693    2.6748901226
 C   -0.1588470747    0.5078090184    1.2761949188
 C    0.7446388546   -0.7120846230    1.0426450287
 C    2.1985746639   -0.3433041680    1.0476794400
 C    2.7823027781    0.8946896934    0.3724713738
 C    4.0204118889    1.3499631606    1.0054629022
 N    4.9980813250    1.6971737818    1.5147061100
 C    1.4810035238   -0.4328055699    2.3678829958
 H    1.7551707327    2.5225400504    2.4045700233
 H    0.2099684569    2.8031328961    3.2143452724
 H    1.5405818120    2.0221109535    4.0773512736
 H   -0.1867993870    0.3735689688    3.4370016088
 H   -1.2166815062    0.2501896696    1.3551583834
 H   -0.0679625973    1.3236594416    0.5505602940
 H    0.4061960414   -1.6598038259    0.6409361718
 H    2.8393274459   -1.2105874335    0.9024769370
 H    2.9977938116    0.6657296958   -0.6783231873
 H    2.0730468474    1.7257843386    0.3649941583
 H    1.8229218234   -1.1444887129    3.1111254729