16

 N   -0.0515645677    1.0724442544   -0.5935942582
 C    0.0408614630   -0.0975267548    0.0902984248
 O    1.0464797845   -0.5192533112    0.6262624209
 C   -1.2403774853   -0.8821232619    0.1188084051
 C   -2.0869720273   -1.3277980989    1.3279026485
 C   -2.8847404130   -1.6303430513    0.0466243152
 O   -2.4740786416   -0.2995923921   -0.5005493549
 C   -1.6023906781   -2.2309816734   -0.5984069282
 O   -1.5170079324   -2.2870459750   -1.9749268610
 H    0.7502183010    1.6804262919   -0.6278737741
 H   -0.9410122684    1.3961681809   -0.9347489086
 H   -1.7181911913   -2.1662300729    1.9210266643
 H   -2.4803001510   -0.5099700863    1.9303057040
 H   -3.9309571270   -1.9065977573   -0.0802322931
 H   -1.1907790484   -3.1465671974   -0.1720769103
 H   -1.8963600170   -1.4536372848   -2.2902265443