20

 C    0.0085016843    1.5520864868    0.0010751372
 C   -0.0177524047    0.0118161591    0.0429007876
 C    0.7791786113   -0.5122457707    1.2533298052
 C   -1.4209999217   -0.5245007757    0.0224649620
 C   -1.9739757556   -1.3015151162   -0.9173645174
 N   -3.3100328683   -1.6179263973   -0.6170867204
 C   -3.7116786580   -1.0447328069    0.5745365060
 O   -4.8039415076   -1.1431327155    1.0837797224
 C   -2.4770485834   -0.2763300330    1.0809154419
 H    1.0387355228    1.9210201055   -0.0366531884
 H   -0.5238289811    1.9328729466   -0.8755921293
 H   -0.4622676228    1.9800077754    0.8930688814
 H    0.4776193372   -0.3548316060   -0.8663727216
 H    0.3392914004   -0.1675123044    2.1956938355
 H    0.7974729567   -1.6059873467    1.2710278627
 H    1.8129310014   -0.1527204740    1.2214993337
 H   -1.5280675341   -1.6856945070   -1.8245939237
 H   -3.9213335753   -2.1866008520   -1.1783459913
 H   -2.2032170958   -0.6492411411    2.0744394251
 H   -2.7372051257    0.7808939132    1.2063239016