20

 C    0.6556702406    0.9264976266   -0.3536041289
 N   -0.2932151745   -0.1353578565   -0.0577309284
 C    0.2009154833   -1.0909801745    0.9202166958
 C   -1.6336690486    0.3723037078    0.2288260152
 C   -2.2810588639    0.5247555326   -1.1369015081
 O   -2.3794405013    1.5688403406   -1.7394899943
 C   -2.7643245449   -0.7976073146   -1.7850870585
 C   -3.0210513857   -0.7476196952   -3.2702760985
 O   -2.9520504941   -1.7725745892   -1.0946845330
 H    1.5901345160    0.4941395439   -0.7243429315
 H    0.2507871611    1.5845955645   -1.1272874465
 H    0.8896608834    1.5479598650    0.5309701610
 H    0.3524827097   -0.6483366980    1.9221900525
 H   -0.5031869673   -1.9224500911    1.0092635018
 H    1.1612807300   -1.4931877865    0.5823831282
 H   -2.1865202948   -0.3722470300    0.8037585054
 H   -1.6388753106    1.3321416551    0.7665702650
 H   -2.0757847680   -0.5755223817   -3.7977636831
 H   -3.4658209541   -1.6857610172   -3.6025214785
 H   -3.6661850460    0.1009853182   -3.5132674455