17

 C   -0.1567126240    1.6007819272    0.0743892093
 C    0.0027586953    0.0894445434    0.0213639461
 O   -1.2470747512   -0.5549588260    0.0549958805
 C    0.8728574383   -0.6226049278   -1.0547661102
 C    2.2345006916    0.0896174855   -1.0300703373
 C    2.3688717635    0.1151704600    0.5144590439
 O    3.2235582801    0.5972569820    1.2033295256
 C    1.0872185200   -0.6356454682    0.9033994127
 O    1.1190743438   -1.7008289907   -0.0942854599
 H    0.7953373737    2.1359608780    0.0613753240
 H   -0.7655659256    1.9417761978   -0.7681719064
 H   -0.6733166747    1.8870646372    0.9985799777
 H   -1.7311863841   -0.2369623768    0.8246594688
 H    0.4449627617   -0.9542341917   -1.9999644099
 H    3.0079552889   -0.5301820755   -1.4899393465
 H    2.2759502771    1.0911025265   -1.4650924827
 H    0.9368231854   -0.9525300510    1.9338291644