19

 C    0.5034134837    1.2846397789    0.1754269605
 O    0.5130603474   -0.1334428060    0.0956629498
 C    0.4598200623   -0.6317339410   -1.1987462499
 O    1.6570383404   -0.2995223325   -1.9227052609
 C    2.5741693901   -1.3150536906   -1.8282330489
 O    3.6762953002   -1.2169962057   -2.2774605686
 C    1.9301255184   -2.4912624782   -1.1067317397
 C    0.4308316234   -2.1709184254   -1.1600101179
 C   -0.4263563270   -2.7702925705   -0.0501022140
 H    1.3909584728    1.7172982247   -0.2985506578
 H   -0.3948750251    1.6997339462   -0.3042161922
 H    0.4935907996    1.5410255257    1.2362472990
 H   -0.3660521417   -0.1758412102   -1.7610332342
 H    2.2198491880   -3.4302251430   -1.5801108210
 H    2.3005384494   -2.5049804880   -0.0754751301
 H    0.0451690776   -2.4946973331   -2.1339737877
 H   -0.0741361307   -2.4467142118    0.9317646209
 H   -1.4726760639   -2.4640130425   -0.1498930211
 H   -0.3930625048   -3.8632762571   -0.0901180362