19

 C   -0.1740983658    1.4665655105   -0.0697975158
 C    0.0380900113   -0.0202381636   -0.0555159718
 C   -0.8827485498   -0.9748935018    0.6493249807
 C    0.5645375438   -0.9362465918    1.0607432739
 C    1.4290620782   -1.7369245388    0.0523122095
 C    1.0735822468   -3.1894616727   -0.0327044169
 O    0.1790405151   -3.6340567507   -0.7228181839
 C    0.9135370003   -0.7666359651   -1.0798560185
 O    0.3517153247   -1.2946299575   -2.2443410209
 H    0.7709187494    2.0047569775   -0.2069491573
 H   -0.8421519341    1.7555263423   -0.8894784465
 H   -0.6269471204    1.8154487596    0.8641095526
 H   -1.5655267631   -0.5071874225    1.3520049957
 H   -1.2960040969   -1.8460408960    0.1495809937
 H    0.8836587282   -0.6805434351    2.0635736363
 H    2.4992753682   -1.6317922353    0.2510956957
 H    1.6578905895   -3.8732271769    0.6213718549
 H    1.7374678413   -0.1158145671   -1.3930043274
 H   -0.0860023668   -2.1226594651   -1.9997921940