23

 C   -0.0277150288    1.5036583878    0.0251967842
 C   -0.0184779191   -0.0124157500   -0.0100598828
 C   -0.8646971002   -0.7739295515    0.9867009275
 C    0.6393711236   -0.7473403482    1.1344327693
 C    1.5071792144   -1.9703140653    0.8844061990
 C    2.7087202395   -1.6688861574   -0.0300150495
 C    2.3544899384   -1.5413461926   -1.5182989600
 O    1.5019156969   -0.4657984210   -1.8676649483
 C    0.1661474698   -0.5956340238   -1.4009052272
 H    0.8817753150    1.9008299222   -0.4380440158
 H   -0.8875645256    1.9088593126   -0.5221324952
 H   -0.0784141795    1.8800420232    1.0517233204
 H   -1.4683284895   -0.2055192176    1.6871172990
 H   -1.3222880243   -1.7056267898    0.6660980884
 H    1.0198114714   -0.0997759120    1.9215722454
 H    1.8638301471   -2.3567642303    1.8465613766
 H    0.9133671061   -2.7807566473    0.4428328496
 H    3.2085198832   -0.7510791282    0.3036073538
 H    3.4469584019   -2.4779721343    0.0517133994
 H    3.2706678821   -1.3832539436   -2.0973658014
 H    1.9081410051   -2.4917736602   -1.8613691653
 H   -0.1439927366   -1.6505326311   -1.4327883817
 H   -0.4603368209   -0.0500388017   -2.1170731556