17

 O    0.1622352164    1.3435876405    0.1007070963
 C    0.1552872880   -0.0626701248   -0.0014667219
 C    0.1591127097   -0.4645081579   -1.5148053328
 O   -1.3382067698   -0.4584500818   -1.4640024803
 C   -1.1899225372   -0.7516678190   -0.0376531561
 C   -1.4316670421   -0.2200889118    1.4346187342
 C    0.1428358202   -0.6423918428    1.4795821443
 C    0.0431230099   -2.1416094802    1.2313939188
 C   -0.8513548306   -2.2169700971    0.2437010863
 H   -0.3451841079    1.6997213263   -0.6395963961
 H    0.5355153795    0.2885350721   -2.2122741903
 H    0.5321145407   -1.4590976361   -1.7657793048
 H   -1.5900692931    0.8511698022    1.5312894359
 H   -2.1006407282   -0.8037436629    2.0692732431
 H    0.7995482170   -0.2536058285    2.2567801220
 H    0.5757277044   -2.9180451483    1.7614942155
 H   -1.2489700769   -3.0595804496   -0.3042009442