20

 C   -0.0923809730    1.5086359851   -0.0208876771
 C   -0.1162950586    0.0007208240   -0.2006601727
 O   -1.3941326028   -0.4786502122    0.1866113353
 C   -1.5241787959   -1.8699446007    0.1061728987
 C   -2.8277392269   -2.4660728177    0.5739048252
 C   -3.7823469901   -2.4793350195   -0.5730667965
 C   -3.1116923409   -1.8499073696   -1.7812160738
 C   -1.8546004064   -2.5567746446   -1.2444028319
 N   -2.7515219864   -3.5688264075   -0.4589667569
 H    0.8838482716    1.9116653180   -0.3064838473
 H   -0.8584597781    1.9814225899   -0.6419856410
 H   -0.2870936356    1.7727710472    1.0223537379
 H    0.0920103800   -0.2651375661   -1.2495212783
 H    0.6647848105   -0.4763753186    0.4142997816
 H   -0.6754659549   -2.3769606368    0.5886158498
 H   -3.1380106532   -2.6704199558    1.5918204206
 H   -4.8349951256   -2.6916264587   -0.4235554929
 H   -3.4618979132   -2.3102760646   -2.7080513432
 H   -3.0906917601   -0.7607579863   -1.8741495591
 H   -1.0758588003   -2.9343272655   -1.9036364982