18

 C    0.0124481462    1.4911965140   -0.0654352235
 O    1.4674928227    1.4542637226    0.1365546799
 C    1.2801908488    0.1816051881    0.8203860831
 C    1.7901073460   -1.2360515598    0.5728869180
 C    0.5334195686   -1.9409530710    1.2190928275
 N   -0.6573354860   -1.0682919653    0.8262821909
 C    0.0169111110   -0.0541464223    0.0263347685
 C    0.5915381631   -0.6738948868   -1.2720475818
 O    1.7318954229   -1.4382715582   -0.8279789605
 H   -0.4904774254    1.9879959975    0.7722234773
 H   -0.2534017792    1.9629910735   -1.0146939385
 H    1.1088991654    0.3657827190    1.8868722756
 H    2.7522340315   -1.5804471244    0.9517557948
 H    0.4498100870   -2.9514263132    0.8114043134
 H    0.6066589815   -2.0080180729    2.3101201335
 H   -1.3090944973   -1.6180629641    0.2750896557
 H   -0.1426975267   -1.3403375084   -1.7436192509
 H    0.9247577400    0.0659483117   -2.0065728731