21

 C   -0.0234170614    1.5746870306   -0.0227967648
 C    0.0392851120    0.0464887727   -0.0041374359
 C    0.7667801120   -0.5865074244   -1.2088897290
 C    1.2757308407   -1.9657852199   -0.7189773957
 O    2.4775420450   -2.3876284130   -1.3509836848
 C    1.4928285095   -1.7871842954    0.7693588002
 C    2.2644045933   -0.5551519700    1.2107373719
 C    0.7570473291   -0.5518217681    1.2059260052
 O    0.0683345620   -0.5575683086    2.4218228613
 H    0.9817175086    2.0107075613   -0.0421703767
 H   -0.5649296630    1.9411968753   -0.9009709232
 H   -0.5413509107    1.9576351518    0.8637961245
 H   -0.9869535306   -0.3426706798    0.0383831018
 H    0.1255116994   -0.6643158091   -2.0923201131
 H    1.6364278517    0.0161174483   -1.4945219891
 H    0.4903772120   -2.7247052875   -0.8651336490
 H    2.2854275630   -2.5366906030   -2.2823871392
 H    1.5273899972   -2.6623600460    1.4068556914
 H    2.7284739264   -0.6249891804    2.1883658610
 H    2.8295394085    0.0154031352    0.4817639496
 H    0.1890022751    0.3033498498    2.8360532436