19

 O   -0.0999981722    1.4523812987    0.0508145096
 C    0.0361214469    0.0393880530    0.0181042920
 C    0.7606018511   -0.5036542456    1.2595015100
 C    0.6115140671   -1.9976668508    1.3923469438
 C   -0.3204987909   -2.6961232906    0.7425264491
 C   -1.3075752162   -2.0604769848   -0.1648934035
 C   -1.7277466513   -2.7688685926   -1.3916077885
 O   -2.5811150375   -2.7281843722   -0.2519077511
 C   -1.3712251857   -0.5482179752   -0.0766402740
 H    0.7812988294    1.8369316643    0.0969215152
 H    0.6030177957   -0.2683157820   -0.8768078421
 H    1.8249648796   -0.2337321715    1.2229166353
 H    0.3507096156    0.0007502508    2.1464245998
 H    1.3049405080   -2.5105889816    2.0535421365
 H   -0.4043258505   -3.7727080847    0.8609416751
 H   -2.0603812472   -2.1886589031   -2.2522490766
 H   -1.3045326472   -3.7451623271   -1.6269984857
 H   -1.9308504024   -0.2670250369    0.8238098055
 H   -1.8989237922   -0.1245625881   -0.9350102206