15

 C   -0.0606611752    1.3477063159    0.1742156167
 O   -0.1685350431    0.0062845544   -0.2930871071
 C   -1.3940003364   -0.5762766259   -0.0058970449
 C   -1.4662460946   -2.0652126815   -0.4420426584
 O   -1.7503147692   -2.4612484173    0.9343076700
 C   -1.6017777969   -1.1590382291    1.3922513902
 N   -1.6107000106   -0.6901858518    2.5495997091
 C   -2.5218733925   -2.4559887629   -1.3663613944
 N   -3.3532915572   -2.7488023599   -2.1127992593
 H    0.9289190848    1.6995176419   -0.1213522182
 H   -0.8259969240    1.9867664231   -0.2890948189
 H   -0.1619673376    1.3984241450    1.2638813443
 H   -2.2422380792    0.0321100302   -0.3497173343
 H   -0.4960543994   -2.4476777606   -0.7677379924
 H   -1.7453175488   -1.4099890915    3.2617917777