16

 O   -0.3223074858    0.3554773976   -0.6262080925
 C    0.0813625020    1.0857509636    0.2442392607
 C    1.3329650668    1.9108484492    0.1014383015
 C    2.6530004112    1.2027725858   -0.3602941318
 C    3.0161525676    2.5796463569   -0.9589083340
 C    1.5033706247    2.8060520372   -1.1739076990
 O    3.4751573409    3.4481936778    0.1040533726
 C    2.6611299366    3.4127170715    1.1844152556
 N    1.6079554221    2.7124388664    1.2925883331
 H   -0.4436718876    1.2015042019    1.2163234008
 H    3.2960152192    0.7933253196    0.4204097335
 H    2.4488572258    0.4653214005   -1.1372907040
 H    3.7355873050    2.6844584151   -1.7688992887
 H    1.1399266063    2.2907224304   -2.0636123441
 H    1.1210633811    3.8265552336   -1.1188723150
 H    3.0132365743    4.0673199830    1.9768566315