19

 O    0.0676144422    0.0289774500    0.3469339558
 C    0.0199523225    1.2147938937    0.0908760318
 C   -1.3051852487    1.9539195632   -0.1022044961
 N   -1.2730879184    3.0897775859   -1.0205019558
 C   -0.1482363747    3.9875006250   -0.7512068097
 C    1.2159385966    3.2913217957   -0.8685236622
 C    1.2726110220    2.0485862092    0.0042042985
 C    2.1025907649    1.9994791956    1.2571953376
 N    2.5395342665    1.3124900916    0.0467067708
 H   -2.0634027813    1.2305393821   -0.4131523149
 H   -1.6061463254    2.3194705902    0.8920471077
 H   -1.2092990280    2.7490189537   -1.9754196237
 H   -0.2030098561    4.8348860948   -1.4418146436
 H   -0.2800654639    4.3924476481    0.2611912805
 H    1.3778128886    2.9947258173   -1.9136322442
 H    2.0350854299    3.9705397281   -0.6075871748
 H    2.6768491118    2.8816971509    1.5292281586
 H    1.7336450927    1.4058358981    2.0892642342
 H    2.3055557788    0.3220426166    0.1330478396