20

 C    0.0612862526    1.5420248485   -0.0137087057
 C   -0.0600543278    0.0086119176    0.0002185683
 C   -1.5504031466   -0.3963367564    0.0464737525
 C    0.6225017392   -0.5619080518   -1.2590755333
 N    0.8271811169   -1.9991593762   -1.1453463509
 C    1.3764616913   -2.5684766822   -0.0194847705
 O    1.8374758435   -3.6970257285   -0.0118150900
 C    1.3033423848   -1.7176569959    1.1965509386
 C    0.6396875074   -0.5599127903    1.2173147289
 H    1.1085731975    1.8603712185   -0.0008122308
 H   -0.4103627566    1.9609515635   -0.9092731230
 H   -0.4352455849    1.9788052369    0.8587979350
 H   -2.1005624141    0.0748392295   -0.7760189988
 H   -1.6611435931   -1.4802061575   -0.0380404765
 H   -2.0130280501   -0.0777715965    0.9859784795
 H    0.0002751954   -0.3686173079   -2.1389051727
 H    1.5794505128   -0.0381429760   -1.4128405855
 H    0.9862293666   -2.5293738672   -1.9898023747
 H    1.7783750426   -2.1366145005    2.0761907794
 H    0.5476942624    0.0034788024    2.1443683303