19

 C   -0.3320056370    1.6012351670    0.6223785178
 C   -0.2577329001    0.1091484669    0.3615847784
 C    0.7194591816   -0.3351121879   -0.7627504394
 C    1.5031185243   -1.0553311914    0.3269765945
 N    0.5897203342   -0.5609105771    1.4279262672
 C    0.6608432007   -2.0157789993    1.0988619947
 C   -0.4886863211   -2.8323265523    0.5330062567
 C    1.3780219867   -2.7260516412    2.1439460990
 N    1.9412380075   -3.3311518306    2.9518608669
 H    0.6700405342    2.0297772945    0.7228691250
 H   -0.8456707641    2.1078011541   -0.2015513956
 H   -0.8783464400    1.8011372791    1.5487735899
 H   -1.2666796101   -0.3095836765    0.3042222474
 H    0.3335746477   -0.9418747611   -1.5864763123
 H    1.2730486959    0.5080507740   -1.1810574520
 H    2.5826417301   -1.0515876158    0.4396237283
 H   -0.9152548176   -2.3862101766   -0.3650877089
 H   -0.1313149624   -3.8325317459    0.2735890598
 H   -1.2819840105   -2.9414943901    1.2787139726