22

 C    0.3776950840   -2.0666798066    2.6404550916
 C   -0.3701508933   -1.6198158250    1.3771637221
 C    0.5349719759   -1.6640148870    0.1632006989
 C    0.7123603083   -2.8290728592   -0.7349715280
 C   -0.5679098150   -3.5637602793   -1.0226421907
 C   -0.9361838305   -3.3045179452   -2.4693311050
 C   -1.1592988911   -2.2211559858   -1.4560619666
 C   -2.4789303021   -1.5383431900   -1.2481934585
 N    0.1257523975   -1.5008186742   -1.2532397017
 H    0.7323412001   -3.0981233657    2.5439716685
 H    1.2506490375   -1.4327953830    2.8307379165
 H   -0.2699812159   -2.0139324986    3.5206005300
 H   -1.2459915724   -2.2554899700    1.2277606837
 H   -0.7379554520   -0.5945732341    1.5128058485
 H    1.4593895855   -1.1058622020    0.3173454513
 H    1.6952865127   -3.1572880981   -1.0626611792
 H   -0.9904884541   -4.3820241161   -0.4496912744
 H   -0.1556451613   -3.1951232977   -3.2177607658
 H   -1.8348702882   -3.8055719148   -2.8180832768
 H   -3.3051389428   -2.2432575076   -1.3824302110
 H   -2.5679176359   -1.0952308905   -0.2527110304
 H   -2.6030390270   -0.7341682595   -1.9825685229