17

 C   -0.1650132928    1.4541929988    0.1629836332
 N   -0.0185481715    0.0169359946    0.0492539535
 C    0.1006359483   -0.7032818642   -1.1011736219
 N    0.2333714233   -1.9901424400   -0.8728457103
 C    0.2011724575   -2.1217747957    0.4986054100
 C    0.2856923221   -3.4665273877    1.1527444126
 C   -1.0168159629   -4.2400011329    0.9990336540
 O   -1.5830752790   -4.8071604685    1.8968309230
 C    0.0407231428   -0.8903460021    1.0848140486
 H    0.6774009152    1.8919893340    0.7071364457
 H   -0.1955903715    1.8868856521   -0.8386449863
 H   -1.0930042822    1.7112151627    0.6824047086
 H    0.0873565611   -0.2276834914   -2.0713225060
 H    1.0703887443   -4.0550861008    0.6581154639
 H    0.5244794409   -3.3949195453    2.2164884380
 H   -1.4195710550   -4.2378840265   -0.0375298794
 H   -0.0306520405   -0.5803825970    2.1146427331