19

 C    0.0400685719    1.5263134118   -0.2213669240
 O    1.4456434037    1.5427572115    0.2177184138
 C    1.2426337687    0.2412309487    0.7932654223
 C    0.4779135152    0.1150293816    2.1320326607
 C   -0.3991332078   -0.8440019788    1.2770009199
 C    0.6428983684   -1.9853189778    1.0390447434
 C    1.6655835811   -1.1546921387    0.2008927111
 C    0.7847944138   -0.8369497250   -1.0335960836
 C   -0.0417491439   -0.0018503925   -0.0132083188
 H   -0.5873009057    2.1417714419    0.4328406744
 H   -0.0564063907    1.8764742478   -1.2534888983
 H    0.9710108879   -0.2969906706    3.0161401656
 H   -0.0080167143    1.0577429007    2.3881110356
 H   -1.4056581153   -1.1454452837    1.5679552596
 H    1.0425760295   -2.3606466313    1.9846240944
 H    0.2540851507   -2.8300317540    0.4642060453
 H    2.6848681914   -1.5376615774    0.1373712202
 H    1.2732719049   -0.1815488048   -1.7565881272
 H    0.3169525606   -1.6777029993   -1.5531746344