21

 C   -0.4819417820    1.3805978428   -0.0120582197
 C    0.1263118699   -0.0066628237   -0.0305483525
 O    1.3972075074   -0.0414980456   -0.7419272286
 C    2.0721686355   -0.5723352514    0.4001915304
 C    3.1255396197   -1.6231161400    0.2758515184
 C    3.4826975924   -0.2090960838    0.7229802654
 C    0.8156358210   -0.5297017786    1.2343922643
 C    0.6411547731   -0.0842174743    2.6534886193
 C    0.3153106434   -1.5060774999    2.2500901907
 H    0.2017167070    2.0984485798    0.4495487765
 H   -0.6963928436    1.7105970029   -1.0333505130
 H   -1.4239339883    1.3812324271    0.5479656602
 H   -0.5721509394   -0.7289602445   -0.4756509111
 H    3.1552278275   -2.4236077577    1.0088451404
 H    3.4111003996   -1.9164854024   -0.7287191622
 H    4.0025697682    0.4244781144    0.0122123956
 H    3.7546082487   -0.0447724768    1.7612715487
 H    1.5348313762    0.0889877951    3.2448891064
 H   -0.1803892351    0.5861521892    2.8851738698
 H   -0.7288491741   -1.8003682846    2.2050269909
 H    0.9855312728   -2.2977198581    2.5707983601