19

 C   -0.0306722475    1.5615381289    0.0306093729
 C   -0.0216121796    0.0323037384   -0.0064621791
 C    0.7461593858   -0.5199055737   -1.2256871483
 C    0.7649795570   -1.9772667386   -1.2795370546
 C    0.7582646900   -3.1833383022   -1.2982171036
 C    0.7853506281   -4.6190641977   -1.3244345002
 C   -0.0425287564   -5.3664100299   -2.3185882831
 N    1.4161051940   -5.3325747750   -2.4646689352
 H    0.9872292845    1.9643515201    0.0783905896
 H   -0.5097719604    1.9784513966   -0.8623533699
 H   -0.5760633883    1.9316967884    0.9038008131
 H    0.4343641696   -0.3648433125    0.9072169287
 H   -1.0473997048   -0.3518278004   -0.0311443514
 H    0.2946057796   -0.1247486861   -2.1459606845
 H    1.7755850796   -0.1363204559   -1.2078197746
 H    0.9815035685   -5.0989060763   -0.3687117461
 H   -0.4540868287   -6.3340723338   -2.0453695728
 H   -0.6550942233   -4.7793649694   -2.9963131202
 H    1.6707320023   -4.6469062309   -3.1718815806