18

 O    0.4670347455    1.5356608026    0.1740244636
 C    0.0077330142    0.2418168323   -0.1168400537
 C    0.5330563753   -0.2474004953   -1.4765691793
 C    0.0780986893    0.6843359086   -2.6085549295
 N    0.5888468658    0.2865226542   -3.9114326920
 C    0.0621271522   -0.7548279681   -4.6048186663
 O   -0.8616060717   -1.4420069294   -4.2187281640
 C    0.4133191902   -0.7188562527    0.9809941092
 O    1.0551770081   -0.3544795797    1.9368444762
 H    0.9268880418    1.4629580431    1.0257666804
 H   -1.0983093016    0.2275880122   -0.1512667763
 H    1.6283472972   -0.2829920584   -1.4437624443
 H    0.1629288414   -1.2573762588   -1.6813675943
 H   -1.0158401233    0.6843199633   -2.6583955149
 H    0.4095337844    1.7037579646   -2.4020863960
 H    1.3751788751    0.7777819756   -4.3038690108
 H    0.5686471724   -0.9090066930   -5.5784035348
 H    0.0944216137   -1.7733135610    0.8563861067