16

 O    0.1442737233    1.4723518798    0.0558134917
 C    0.1029603237    0.0695508019    0.0346025211
 C   -1.3160055266   -0.5762396545    0.1870713919
 C   -2.4949311302    0.4047399667    0.2027369971
 C   -3.7590572782   -0.2753461759   -0.0504887749
 C   -4.7760224083   -0.8760875478   -0.2748106270
 N   -1.0686427962   -1.2255193068   -1.1088210800
 C    0.1094788135   -0.5797589051   -1.3743044554
 O    0.8281064924   -0.5011264443   -2.3359469871
 H    0.7006911496    1.7532596936   -0.6802248446
 H    0.8416315188   -0.3680214842    0.7183192012
 H   -1.4060450560   -1.2907889331    1.0107279333
 H   -2.5206859888    0.9090553714    1.1762219265
 H   -2.3211655640    1.1854717802   -0.5445650820
 H   -5.6900138457   -1.3824434193   -0.4643467786
 H   -1.6858983873   -1.7677533328   -1.6970302532