20

 C    0.3899962482    0.0169180706   -0.8133844887
 C   -0.5590544112   -0.2964136975    0.3554990987
 O    0.0700513170   -0.0663282732    1.5895581651
 C   -1.8339398954    0.5404778370    0.2701486361
 O   -2.0993093297    1.3192515821    1.1623382952
 C   -2.7374571311    0.4242216176   -0.9516775306
 N   -2.7125521921   -0.9024694505   -1.5483702391
 C   -3.7356503444   -1.8402028896   -1.0862221483
 C   -3.8218015838   -1.2262760878   -2.4393828741
 H    1.3173586103   -0.5425691297   -0.6687379685
 H   -0.0548974889   -0.2775344253   -1.7668414428
 H    0.6376171895    1.0829867533   -0.8344997754
 H   -0.8582377789   -1.3528577109    0.2773934985
 H   -0.4563496627    0.6264871315    2.0199058871
 H   -3.7423175677    0.7638190381   -0.6522392512
 H   -2.3634397728    1.1423903523   -1.6950233818
 H   -3.4114100634   -2.8693986653   -0.9664973454
 H   -4.4425697965   -1.4916260681   -0.3353312633
 H   -4.5886470080   -0.4690920326   -2.5933568760
 H   -3.5620259083   -1.7998240421   -3.3240735154