17

 C   -0.0321768371    1.5554655844    0.1013859796
 C    1.5115318759    1.2996109984   -0.0319752181
 O    1.8629147327    0.6679945808    1.2042883905
 C    1.0476084199   -0.4827421899    1.0563734304
 C    1.4919710324   -1.2755663775   -0.1857320175
 O    0.3421680510   -2.1100420578   -0.4807411844
 C   -0.8129836862   -1.2269850390   -0.3266173945
 C   -0.0638881598    0.0268107122    0.0293105053
 C    1.2030709483    0.0399498736   -0.9177387441
 H   -0.3800455513    2.0634733039    1.0040210064
 H   -0.4440127580    2.0234383955   -0.7962078689
 H    2.2235764250    2.0784839345   -0.2983401031
 H    0.8168373432   -0.9613294762    2.0065555611
 H    2.3908592017   -1.8858367793   -0.2611202102
 H   -1.3661453009   -1.1736459067   -1.2709501764
 H   -1.4700013265   -1.6227939303    0.4562278933
 H    1.1055709096    0.1276176033   -1.9977944493