22

 O   -0.0569725311    1.4635393167    0.0355859019
 C   -0.0016521456    0.0402656008   -0.0348433965
 C    0.7447203955   -0.5190068415    1.1862422053
 C    0.8911915067   -2.0466870434    1.2711015571
 C   -0.4473389105   -2.8063243267    1.3158504941
 C   -1.0918746615   -2.9098413633   -0.0530518796
 C   -2.5446750711   -2.6733921028   -0.2802240627
 N   -1.5539782259   -1.7259291975   -0.7836531861
 C   -1.4599471658   -0.4234361919   -0.1302999655
 H    0.8376013884    1.7883360820    0.1780298037
 H    0.5081896944   -0.2788900287   -0.9584925523
 H    1.7495259368   -0.0729337291    1.2042508293
 H    0.2284577826   -0.1504464792    2.0830020087
 H    1.4854550867   -2.4146019209    0.4239040420
 H    1.4692938090   -2.2801375175    2.1726545360
 H   -0.2801642948   -3.8238467501    1.6886625938
 H   -1.1207382923   -2.3261995299    2.0348060562
 H   -0.5917640947   -3.6245560761   -0.7076952660
 H   -3.0939267862   -3.2352007348   -1.0316279369
 H   -3.1382967534   -2.3760449798    0.5840894035
 H   -1.9191869235   -0.3967909769    0.8716483760
 H   -2.0022556937    0.2997400104   -0.7477293920