16

 C    0.0115336844    1.4293531639   -0.0292308118
 O    0.0003490924    0.0110915076   -0.0070143825
 C    0.5870220197   -0.6337240618   -1.0281732401
 C    0.6891330823   -2.0108500793   -1.1848720350
 C    1.3757858734   -2.2291750487   -2.3914772068
 C    1.6833671537   -0.9982240120   -2.9548567453
 N    1.1818597606   -0.0242097806   -2.0870706021
 C    2.3697527928   -0.6470735273   -4.1701197680
 O    2.8328745174   -1.4333449557   -4.9737449440
 H    1.0367865481    1.8223445892   -0.0191438670
 H   -0.5245677414    1.8209438398   -0.9039199992
 H   -0.5020246029    1.7536269887    0.8759349195
 H    0.3034255987   -2.7410363505   -0.4923330831
 H    1.6358082401   -3.1783386145   -2.8333126703
 H    1.2579438265    0.9666442684   -2.2385484920
 H    2.4538637140    0.4563998029   -4.3365892622