17

 C    0.1246555141    1.5932340918    0.0448629782
 C   -0.0269391532    0.0745244253   -0.0632746681
 N    0.6926132712   -0.4959761586   -1.1915551461
 C    0.0733832986   -0.8003748187   -2.3915373947
 O   -1.0975941860   -0.7404018701   -2.6664711033
 O    1.0638469765   -1.1998146257   -3.2496857006
 C    2.2770298238   -1.1471177517   -2.5720708679
 C    2.0692819604   -0.7047935282   -1.3216640890
 N    2.9386460152   -0.3731635175   -0.2806431266
 H    1.1729521136    1.8715239919    0.1790429089
 H   -0.2546698013    2.0793185971   -0.8582332784
 H   -0.4466387685    1.9658844596    0.9007881886
 H    0.3099019378   -0.4138797066    0.8579500562
 H   -1.0734800899   -0.1996214555   -0.2172448411
 H    3.1578599999   -1.4328029256   -3.1170702206
 H    3.9042478544   -0.5282102820   -0.5420504745
 H    2.7446255934   -0.8849393757    0.5743746891