19

 C    0.3934568019    1.5624056868   -0.1823823223
 C    0.1446167210    0.0745464143    0.0133574795
 C    0.8831287911   -0.9633800232   -0.8872021703
 C    1.2254299511   -1.8247322360    0.3564280324
 C    2.6652022058   -1.6194908150    0.9042277590
 O    3.7509586059   -1.5599866111    0.0215156804
 C    2.1754890212   -0.3189955712    1.5523675697
 O    2.7692081940    0.6464784841    1.9499121911
 C    0.7032949107   -0.6538346011    1.2831248730
 H    1.4581703336    1.8063268487   -0.1298425421
 H    0.0194159157    1.8848532660   -1.1603990585
 H   -0.1189402176    2.1545543531    0.5834303607
 H   -0.9320403487   -0.1213969494   -0.0239696703
 H    0.2593834712   -1.4513610158   -1.6380325477
 H    1.7785182587   -0.5778989707   -1.3831212083
 H    0.8257436975   -2.8361071037    0.3966580956
 H    2.8392054360   -2.3606657095    1.7046184766
 H    4.2571093786   -0.7708127100    0.2498371702
 H    0.0474378923   -0.7639874564    2.1476190315