13

 O    0.3498488263    0.3194834285    0.8912078240
 C    0.2639941414    1.3594794210    0.2821479300
 C    1.3885214041    1.9660429301   -0.4080059727
 C    2.3066342863    2.4827669037   -0.9904336431
 C   -1.0122703570    2.1590004607    0.1911180031
 O   -2.2042855250    1.5194857710    0.6003896867
 C   -1.7280239462    2.5744529011    1.4357614439
 C   -1.2632205497    2.2456396316    2.7531451244
 C   -0.8992128890    2.0227170658    3.8759129396
 H    3.1304457187    2.9255737573   -1.4962864662
 H   -1.0952176592    2.8144932255   -0.6760013932
 H   -2.3093061694    3.4938870971    1.3650447917
 H   -0.5696718513    1.8038479065    4.8618978016