17

 C    0.1681275587    1.2479296176    0.2010110885
 O   -0.1652681075   -0.0759927193   -0.1542614203
 C    0.5758800359   -0.5845227840   -1.2329288461
 C    2.0911813665   -0.7469562650   -1.0098585961
 O    2.4678551112   -1.6350864664    0.0415138293
 C    2.4738153024   -2.1401087317   -1.2915455929
 C    1.2120651372   -2.9135484603   -1.6572659827
 O    0.2648281743   -2.9798104926   -0.5946886880
 C    0.0737905029   -1.9831869289   -1.5959400834
 H    1.1942951578    1.3268931780    0.5870115943
 H    0.0611971474    1.9379890262   -0.6515626120
 H   -0.5254359601    1.5507288400    0.9884436876
 H    0.4530724992    0.0612124638   -2.1236977994
 H    2.7589944705    0.0966029275   -1.1705090696
 H    3.4388203273   -2.4333991559   -1.6948956673
 H    1.2622091167   -3.7711282133   -2.3218573947
 H   -0.8313270205   -2.0846593956   -2.1898565172