18

 C    0.0447993247    1.4967080232   -0.0201922401
 N   -0.0081371773    0.0509363320    0.1513981479
 C    0.8337531169   -0.4436979296    1.2326265903
 C   -1.2709568905   -0.5327216906    0.0426401241
 C   -1.8143502571   -1.3662354700   -0.9066594931
 O   -1.2001757933   -1.8323296513   -2.0159335428
 N   -3.1042704543   -1.7023992246   -0.6148939781
 C   -3.3776071968   -1.0824403474    0.5180551864
 N   -2.3223742167   -0.3656679227    0.9639536130
 H    1.0828273866    1.8088440448   -0.1798191789
 H   -0.5401730588    1.7800111322   -0.8980528928
 H   -0.3404137028    2.0616584083    0.8496963145
 H    0.5308852488   -0.0807287120    2.2330226076
 H    0.8077452560   -1.5356275191    1.2428278668
 H    1.8683041546   -0.1231029420    1.0672891752
 H   -1.8505645415   -2.3862415320   -2.4644485266
 H   -4.3198530594   -1.1264319365    1.0435983880
 H   -2.2869549192    0.1895270374    1.8020047788