14

 C    0.0811268190    1.4128391200   -0.0371114358
 N    0.0817662987   -0.0313313397    0.0337265294
 N    0.1454236789   -0.8020167797   -1.1010630922
 C    0.1291389722   -2.0496182545   -0.7006315162
 N    0.0567202493   -2.1037029419    0.6653111767
 N    0.0042704803   -2.9777244590    1.7141885217
 C   -0.0534465186   -2.1196243876    2.7341527045
 N   -0.0435826330   -0.7810898759    2.4500190274
 C    0.0268963438   -0.8229119928    1.1294070305
 H    1.0008276548    1.7713874941   -0.5064511712
 H   -0.7784058845    1.7645046852   -0.6133509814
 H    0.0184971738    1.7958011905    0.9824031084
 H    0.1671664783   -2.9050747434   -1.3526883936
 H   -0.1060827631   -2.4857257153    3.7496378619