19

 C   -0.5884873461    1.1059279231   -0.0607690187
 C    0.0031157795   -0.2803691301    0.1285970636
 C    1.3151076946   -0.6475379332   -0.6545725324
 C    1.8382936930   -1.3902683610    0.6198582341
 C    0.7660952342   -0.6436224991    1.4150954370
 C    0.9499303428    0.2184821353    2.6037536583
 N    0.2345380492   -1.0730843017    2.6957592700
 C    1.1789597712   -1.4028722787   -1.8861241844
 N    1.0512625295   -2.0142159873   -2.8596382418
 H    0.1638346656    1.8847856340    0.1006445972
 H   -0.9909341700    1.2244344775   -1.0719356299
 H   -1.4108114713    1.2819578439    0.6418654178
 H   -0.7523025434   -1.0488016771   -0.0733136964
 H    1.9037120134    0.2539974834   -0.8478419240
 H    1.6417935474   -2.4641054036    0.5763987736
 H    2.8840445991   -1.2232861328    0.8825771072
 H    1.9085405978    0.2446577940    3.1156062228
 H    0.3767193040    1.1399542025    2.6679939323
 H   -0.7707442705   -0.9182061891    2.7370853136