21

 C    0.1332019852    1.5587490013    0.0237577382
 C    0.0165196901    0.0277397135    0.0351744643
 C    0.7502876979   -0.5599482740    1.2484391545
 C   -1.4445957017   -0.4546966728    0.0167160051
 C   -2.2167437817   -0.0776203365   -1.2653120598
 C   -3.5671567852   -0.6168119644   -1.3031072552
 C   -4.6876280661   -1.0692223280   -1.3273788479
 C   -6.0183585382   -1.6155971603   -1.3208497312
 O   -6.7577492711   -1.6433066289   -2.2786581755
 H    1.1827867047    1.8680258719    0.0558455739
 H   -0.3094805783    2.0047658466   -0.8719927932
 H   -0.3671200014    1.9943422765    0.8971236643
 H    0.5055454245   -0.3569598868   -0.8721225257
 H    0.3009652731   -0.2091220783    2.1851967168
 H    0.7103274679   -1.6541274779    1.2491776990
 H    1.8034760069   -0.2614434983    1.2547311167
 H   -1.4651236026   -1.5453795329    0.1214706878
 H   -1.9784095551   -0.0508249298    0.8862530312
 H   -2.2796691516    1.0127104096   -1.3696037605
 H   -1.6675777704   -0.4314770610   -2.1485616431
 H   -6.3334832768   -2.0263455496   -0.3393724798