18

 N   -0.0583426323    1.2820750559    0.0422065609
 C   -0.0236295910    0.0206708785   -0.0011269268
 O    1.1306291279   -0.7158498737   -0.0369752551
 C    0.8701853892   -2.1392203559   -0.0384176215
 C    0.1354912533   -2.5064011733    1.2568929468
 C   -1.2182531517   -1.7435453554    1.2621416808
 C   -1.2494408452   -0.8654362143   -0.0002406088
 O   -1.2195241203   -1.7077578980   -1.1597863074
 C    0.0004359828   -2.4439082623   -1.2544497625
 H    0.8900858090    1.6649630406    0.0520866309
 H    1.8465090735   -2.6202947506   -0.1167761750
 H   -0.0097981809   -3.5899698704    1.3000577114
 H    0.7589705484   -2.2253836845    2.1095972862
 H   -2.0678357706   -2.4302762801    1.2222568735
 H   -1.3298165464   -1.1238457285    2.1561524357
 H   -2.1490806804   -0.2577572734   -0.0765519301
 H    0.5252886270   -2.1552942046   -2.1742703399
 H   -0.2239403723   -3.5178688700   -1.3055396091