21

 C    0.1263105648    1.6366582306   -0.0187068198
 C    0.0634392580    0.1179614675    0.0147136792
 C    0.9446393629   -0.6924231453   -0.9885032659
 C    1.4335771596   -1.5897765779    0.1824848972
 O    2.8231482240   -1.5282546860    0.4542975450
 C    2.9775724861   -0.7853754865    1.6553282752
 C    4.2652832421    0.0055574661    1.6310113303
 O    1.8636097397    0.0856748036    1.7336095296
 C    0.7606253840   -0.6239923145    1.1916431429
 H    1.1535812800    1.9818579947    0.1224779126
 H   -0.2375806546    2.0164901568   -0.9794635000
 H   -0.4878915792    2.0805679396    0.7722818304
 H   -0.9775679003   -0.2176823950   -0.0426667042
 H    0.4133080434   -1.1965132073   -1.7986288731
 H    1.7717182599   -0.1152943569   -1.4080437029
 H    1.0850513616   -2.6265682395    0.1660065006
 H    2.9563601774   -1.4821945348    2.5139855642
 H    4.2578449823    0.6948064549    0.7831610919
 H    4.3723321530    0.5746572651    2.5579383039
 H    5.1160438837   -0.6733771673    1.5336229872
 H    0.1250930517   -1.0305408482    1.9873453658