19

 C   -0.3450041917    1.4268834196   -0.2150803006
 C    0.0296646621   -0.0275548830    0.0554557812
 C   -1.1839935610   -0.8562290827    0.4906994763
 C    0.9320904363   -0.7272883855   -1.0528445982
 C    1.9692505601   -1.1408738496    0.0478822481
 C    1.2159579527   -0.2275010999    1.0223342398
 O    1.4700524193    0.2248081786    2.1010292271
 C    0.3522379850   -1.7779309291   -1.8608470945
 C   -0.1357538314   -2.6535316476   -2.5259382623
 H    0.5241324792    2.0171200066   -0.5226203665
 H   -1.0988116641    1.4910808560   -1.0071688885
 H   -0.7574704616    1.8868014769    0.6881637148
 H   -1.9424988869   -0.8624912083   -0.2979873274
 H   -0.9183445648   -1.8961549968    0.7010025468
 H   -1.6221626576   -0.4255442630    1.3959296766
 H    1.3632772189    0.0405930376   -1.7030172895
 H    1.8943205340   -2.1953279901    0.3293141403
 H    3.0186029523   -0.8996082636   -0.1343385447
 H   -0.5603976507   -3.4259722762   -3.1180145689