20

 O    0.5119660490    0.8316684728   -0.7513117988
 C    0.1060150992   -0.2834087783    0.0051434473
 C    0.0034782173   -0.1599104934    1.5528498320
 C   -1.3021217190   -1.0042563645    1.5123194987
 C   -1.3626219378   -0.7568834710    0.0013816585
 C   -2.5295375808   -0.2159442334   -0.7237571338
 C   -2.2199467833    0.1323022617   -2.1803597039
 C   -1.6337269166   -1.2961401539   -2.2991683572
 N   -2.0706362781   -1.6644459957   -0.9004527178
 H   -0.0279608440    1.5814393205   -0.4782961849
 H    0.7762460309   -1.0985442723   -0.2887395865
 H    0.8408812137   -0.5399618652    2.1405619077
 H   -0.1887320363    0.8771722911    1.8469393969
 H   -1.1350305235   -2.0605827462    1.7374494853
 H   -2.1431540236   -0.6466601413    2.1101137144
 H   -3.4544809576    0.0222317517   -0.2044193572
 H   -3.1271091171    0.2583209904   -2.7746296346
 H   -1.5490949875    0.9729260168   -2.3634262539
 H   -2.1398959343   -1.9323493382   -3.0270947927
 H   -0.5526346907   -1.3687102516   -2.4514928895