17

 C    0.0929163902    1.4473660284   -0.1639020816
 C    0.1555883915   -0.0300870721    0.1587493597
 O    1.1672423605   -0.5939148120    0.4993345072
 C   -1.1680997350   -0.8009780433    0.0484166232
 C   -1.9458012663   -0.7284638139   -1.2888980475
 O   -1.8536472349   -2.1558944662   -1.4482892795
 C   -1.0493046105   -2.3077641766   -0.2606276429
 C   -1.9913713794   -0.4747547309    1.2816815996
 O   -2.8684431772    0.3489331756    1.3109365001
 H    0.9813617413    1.9474633689    0.2232197129
 H    0.0609737007    1.5813453524   -1.2514581418
 H   -0.8166664226    1.9006939913    0.2416349628
 H   -2.9773742559   -0.3723084997   -1.2022425734
 H   -1.4400426246   -0.1915874175   -2.1005639844
 H   -0.0278751583   -2.6399668017   -0.4727719445
 H   -1.5108143806   -2.9873914436    0.4667012418
 H   -1.7060997190   -1.0578850392    2.1844379183