15

 N    0.0762973536   -1.1734843527   -0.0477904634
 C    0.0290692083   -0.0191858147   -0.0499539959
 C    0.0123177112    1.4441225852    0.0091651003
 C   -0.2271465469    2.0841880851    1.4479005644
 C    1.1453893671    2.7539730539    1.3600900599
 C    2.2149609064    1.7189768503    1.1734490871
 C    1.4009778111    2.1409694428   -0.0147584328
 C   -0.9047225391    1.9911440767   -0.9885738255
 N   -1.6151575869    2.4592559750   -1.7698308533
 H   -1.0673220417    2.7773115142    1.4217910861
 H   -0.3723123193    1.3583736887    2.2513203659
 H    1.3590002449    3.7597473283    1.6956722935
 H    3.2327986373    2.0936458039    1.1678264890
 H    2.1074391750    0.7218688425    1.5925277328
 H    1.8245795391    2.5679875407   -0.9134414581