20

 C   -0.3432202851    1.4370195140   -0.2504299223
 C   -0.0075297411   -0.0331675502   -0.1282396629
 C    1.3907158092   -0.6108270539   -0.3392496559
 C    2.5818912600    0.3199085186   -0.2310113029
 C    2.4835587759    0.8940078181    1.1739245498
 N    3.2269804557    1.7941322550    1.6533188969
 O    1.4515191909    0.2983580021    1.8521799245
 C    0.7545406555   -0.6323535181    1.0275877024
 C    0.3086302726   -1.8453548911    1.7911273722
 H   -0.4767754236    1.7167683195   -1.3008881610
 H   -1.2768163239    1.6625652451    0.2754787694
 H    0.4307609101    2.0828712850    0.1695968959
 H   -0.7904888659   -0.6901408540   -0.5015711097
 H    1.4917999068   -1.5196247958   -0.9210316131
 H    3.5238873410   -0.2273649025   -0.3355650893
 H    2.5998529595    1.1307679681   -0.9642751895
 H    2.9532016194    2.0112449437    2.6131260581
 H   -0.3920841661   -1.5714393795    2.5867112435
 H   -0.1947706205   -2.5488392459    1.1223348974
 H    1.1628829895   -2.3537637181    2.2498590864