20

 C    0.1318471388    1.4985979825   -0.2903122595
 C    1.3303684206    0.5995298898   -0.1663202522
 O    2.1721605169    0.8844263973    0.9068478708
 C    2.7286939266   -0.2439740582    1.5725511501
 C    1.7590447765   -1.4093067285    1.8229923767
 C    0.3553895804   -1.0680584514    2.2970432537
 C   -0.0860130369    0.3163224001    2.6450659762
 N   -0.5549913085   -0.3218464748    1.4154468475
 C   -0.0649961296    0.0606030628    0.1168767747
 H    0.0311507202    2.2462276270    0.4891604618
 H   -0.1968978246    1.8172492170   -1.2729994949
 H    1.8372986406    0.2668523214   -1.0737656951
 H    3.5998749173   -0.6232191317    1.0155003328
 H    3.0954910353    0.1537582591    2.5242833910
 H    1.6673727997   -2.0110064728    0.9097243372
 H    2.2336560845   -2.0649998179    2.5631716554
 H   -0.1348728012   -1.8948780286    2.8099316448
 H   -0.8589813396    0.4562373930    3.3976778107
 H    0.6408628288    1.1174133969    2.5827297486
 H   -0.4662216959   -0.5959667629   -0.6514938004