21

 C    0.1187000481    1.5777345261   -0.0214359087
 C    0.0203105836    0.0513050456    0.0139385395
 C    0.6329356365   -0.6527258310   -1.2214600150
 C    1.1451820029   -2.0328228521   -0.7378084005
 O    2.2769595082   -2.5148775426   -1.4404375938
 C    1.4053740181   -1.8394510863    0.7538810121
 C    1.7168242046   -3.0194761294    1.6282905021
 O    2.1941089058   -0.6436153698    0.9704662588
 C    0.7687897121   -0.5889310202    1.1730634827
 H    1.1676215764    1.8900227375   -0.0499177118
 H   -0.3818320260    1.9855593354   -0.9054885746
 H   -0.3449763530    2.0286725233    0.8625317201
 H   -1.0355796215   -0.2371186855    0.1148477989
 H   -0.0728027437   -0.7412384265   -2.0505270145
 H    1.4895215883   -0.0765648256   -1.5853713855
 H    0.3762967688   -2.8037054240   -0.8694695360
 H    2.9904247241   -1.8873882669   -1.2716016880
 H    2.5817647883   -3.5614921842    1.2327268911
 H    1.9408550406   -2.6989057252    2.6484242941
 H    0.8713388770   -3.7154236760    1.6543000866
 H    0.4597038005   -0.4074634824    2.2010327825