20

 C   -0.1228169280    1.5100430436    0.0488877233
 C   -0.0402766430   -0.0150464475   -0.0361810622
 C   -1.4177526506   -0.5798836143    0.3167661707
 C    0.7297742273   -0.6005414459   -1.2777944174
 C    2.0004037368   -0.2473101003   -0.4554675251
 N    1.1644471861   -0.5510943833    0.7762853587
 C    1.0226925353   -2.0213347940    0.5852431310
 C    0.6728418908   -2.0856155594   -0.9265886831
 O    0.4261005459   -3.0381512939   -1.6141620879
 H    0.8122472222    2.0238382271   -0.1738125351
 H   -0.8817708281    1.8811726921   -0.6468122286
 H   -0.4230770179    1.7974938501    1.0616947617
 H   -2.1839712085   -0.0706996075   -0.2757485110
 H   -1.5256480937   -1.6493756346    0.1287074922
 H   -1.6372639127   -0.3926514931    1.3734630391
 H    0.5454487750   -0.3237517797   -2.3150075373
 H    2.8813330521   -0.8845188929   -0.5692136147
 H    2.3040632542    0.7959473512   -0.4968629243
 H    1.9649361388   -2.5295310910    0.8088748904
 H    0.2451721880   -2.4533893066    1.2171933895