17

 C   -0.2496710174    0.7794209638    0.3031357039
 O    0.9541375353    0.4758101704   -0.3803270076
 C    0.7799517543   -0.3912286864   -1.4779200040
 C    0.6113620697   -1.8359531371   -1.0832928542
 C    1.7585568342   -2.6977931112   -0.5202530455
 C    1.0277322153   -3.1412345837   -1.7277963780
 O   -0.2123839290   -3.7862255606   -1.3237189464
 C   -0.6689065105   -2.5839686960   -0.7968744957
 O   -1.7467183393   -2.3510177469   -0.3537325805
 H   -0.9568352435    1.3086208107   -0.3537358735
 H   -0.7502009338   -0.1175756670    0.6897966408
 H    0.0168806150    1.4329278471    1.1366912915
 H   -0.0752965950   -0.0741670082   -2.0951955563
 H    1.6851634406   -0.2952095918   -2.0879211159
 H    2.7392281787   -2.2562860720   -0.6727303054
 H    1.6334912382   -3.2435258839    0.4090808040
 H    1.4016245174   -3.3635049972   -2.7168947973