15

 N   -0.0633415283    1.1323837986    0.4349807318
 C   -0.0035109006   -0.0763270163    0.0840777177
 O    1.1383386266   -0.7989491276   -0.0865537732
 C    0.8790245152   -2.0639070016   -0.7161036961
 C   -0.6305201626   -2.3303168848   -0.5784978416
 N   -0.9577001379   -3.2045209946    0.5612726703
 C   -1.6540881422   -2.4968879620    1.3504843589
 O   -1.9423988046   -1.2123482271    1.0361702371
 C   -1.2180361764   -0.9518780116   -0.1891876283
 H    0.8726932576    1.5155863590    0.5802503284
 H    1.1864394502   -1.9997309721   -1.7657288219
 H    1.4710663004   -2.8285341751   -0.2106031757
 H   -1.0377495313   -2.7610029530   -1.4962966143
 H   -2.0726630979   -2.8306353056    2.2931833613
 H   -1.9047760381   -0.4833015861   -0.8926069544