18

 O    0.0821086094    1.2807603549   -0.1580264182
 C   -0.1275117606   -0.1129430228   -0.3021224012
 C   -1.4399218473   -0.5734291503    0.3499622164
 C   -1.6057144289   -2.0751487199    0.2837797487
 C   -2.8653466463   -2.8243160222    0.1421798884
 C   -3.9172750226   -2.1033447819   -0.6978505871
 C   -2.8077182851   -2.0018135106   -1.7566478027
 O   -2.7041604974   -1.5327357031   -2.8469215951
 N   -1.8480110939   -2.8027198213   -1.0149982483
 H   -0.5289813458    1.7347553078   -0.7466606504
 H   -0.1089039534   -0.4226064335   -1.3564039308
 H    0.7212445306   -0.5976422996    0.1931761028
 H   -1.4385816830   -0.2641931780    1.4017397936
 H   -2.2780474016   -0.0559174781   -0.1298333794
 H   -0.8358452506   -2.6119704472    0.8357667005
 H   -3.0434914516   -3.7532284364    0.6709963344
 H   -4.7187689455   -2.7653572253   -1.0363892595
 H   -4.3545324064   -1.1760658926   -0.3208141723