15

 N   -0.0266632295    1.2886555862   -0.1260884657
 C   -0.0174617367    0.0287368322   -0.0852275284
 C   -1.2356503070   -0.8682968332   -0.0573629312
 C   -0.6674196298   -2.2302936604   -0.5130311639
 C    0.7790904540   -2.1310846792    0.0262851408
 O    1.1160084483   -0.7429348119   -0.0648691777
 C   -1.3889253240   -3.4021357556   -0.0487567547
 C   -1.9759349058   -4.3715730994    0.3510322470
 H    0.9269006508    1.6553242363   -0.1179008416
 H   -1.6163043147   -0.9380805901    0.9672444836
 H   -2.0341652458   -0.4804798471   -0.6886817246
 H   -0.6219913416   -2.2408006122   -1.6090005313
 H    0.8289990628   -2.4586937732    1.0714133119
 H    1.5015465330   -2.6995079906   -0.5621958140
 H   -2.4990506642   -5.2286060816    0.6971112898