20

 C   -0.1919000397    1.4986688164    0.2003746706
 C   -0.1138294434   -0.0118762160   -0.0307629905
 O   -1.3974511881   -0.5943847996   -0.1797446224
 C    0.8116320808   -0.4140056232   -1.2266149166
 C    1.0798998584   -1.8993690359   -1.0866288924
 O    0.7466251681   -2.7686452009   -1.8526302548
 C    0.2342292842    0.0588360448   -2.5489115154
 C    0.4358812683   -0.5844970651   -3.8690020130
 N   -0.8859566018   -0.6462298184   -3.2121163029
 H    0.7987727894    1.9237519133    0.3919106232
 H   -0.6251830714    2.0173110509   -0.6607386067
 H   -0.8289821027    1.6978749373    1.0658922803
 H    0.2973550228   -0.4723140218    0.8769482860
 H   -1.7888646389   -0.2520217103   -0.9934454140
 H    1.7796761932    0.0822139468   -1.0550687793
 H    1.6236647515   -2.1558964785   -0.1479672942
 H    0.1040081104    1.1395740926   -2.5730278271
 H    0.4808752931    0.0431312957   -4.7545628617
 H    1.0082027712   -1.5028893569   -3.9192812704
 H   -0.9601426654   -1.5752408412   -2.8020764087