21

 C    0.0105237683    1.3578205978   -0.2261329432
 O   -0.0087984108   -0.0483163359   -0.2503911242
 C   -1.2759905459   -0.5861500114    0.0521675310
 C   -1.1840305421   -2.1048875110   -0.0066235965
 C   -2.5306889260   -2.7776548488    0.3216873325
 C   -2.4742579744   -4.2334049127    0.2658379637
 C   -2.4079846266   -5.4337439697    0.2058877435
 C   -2.3253087854   -6.8874390763    0.1586700838
 O   -2.9121079361   -7.3640178362   -1.0478408182
 H    1.0267215198    1.6763295893   -0.4711137113
 H   -0.6846620925    1.7903122052   -0.9637026104
 H   -0.2563261012    1.7546123972    0.7667454971
 H   -1.6037093815   -0.2583094318    1.0553667365
 H   -2.0318505301   -0.2181524201   -0.6649329761
 H   -0.8539924931   -2.4071380899   -1.0054263459
 H   -0.4185484261   -2.4451893536    0.6980486194
 H   -2.8657610171   -2.4632340998    1.3196199420
 H   -3.2995570356   -2.4221203152   -0.3777495222
 H   -1.2678416740   -7.1906773936    0.2319066190
 H   -2.8365907052   -7.3071780060    1.0407796994
 H   -2.8329729044   -8.3234366575   -1.0438657600