18

 O   -0.0754438662    0.0713528103   -0.1834720462
 C   -0.0633862658    1.2677936278   -0.0316637387
 C   -1.2482391184    2.1635632184    0.1610909265
 C   -0.7217647280    3.3716956552    0.9048212038
 C    0.7742188247    3.1812239815    1.1505393946
 C    1.1641226904    2.1863060721    0.0391437269
 C    1.2190946603    2.9365436369   -1.3096653446
 C   -0.1171813247    3.7061354753   -1.5119672881
 N   -1.1393020176    3.4916397291   -0.4727048724
 H   -2.2422831956    1.7449935527    0.2745258415
 H   -1.3333061996    3.8904004212    1.6379904159
 H    1.3320199450    4.1227372742    1.0935493028
 H    0.9394060500    2.7553707326    2.1456392642
 H    2.0777005110    1.6228493824    0.2285500308
 H    2.0728082752    3.6230239412   -1.3103544603
 H    1.3806336192    2.2250725810   -2.1253241671
 H    0.0578960139    4.7860068044   -1.5465641590
 H   -0.5798629137    3.4332976636   -2.4647320105