16

 O   -0.1488903121   -0.0331328859   -0.2659282141
 C   -0.0061251449    1.1460958198   -0.0811375162
 C    1.3263014657    1.8671269501   -0.1151535188
 C    1.3629373443    2.9224887035   -1.2374617732
 N    2.5832839110    3.7301345833   -1.2245224454
 C    3.7010940835    3.2512982424   -1.9281026472
 O    4.7809113174    3.7653662238   -1.9836472402
 C    2.5811329730    4.9294415905   -0.4952306745
 O    3.5053865402    5.6756724836   -0.3453444669
 H   -0.8815059827    1.8059001507    0.1247531246
 H    1.4677243282    2.3745455262    0.8485904654
 H    2.1260331658    1.1326481395   -0.2418768467
 H    1.2805232361    2.4341148156   -2.2126034916
 H    0.5050235135    3.5967138199   -1.1514836547
 H    3.4486802047    2.3075637241   -2.4527302881
 H    1.5760260064    5.1139839429   -0.0632834624