16

 O    0.0371535590    0.0458907017   -0.0538311025
 C    0.0231015309    1.2471581980   -0.0054636456
 C   -1.1772927356    2.2118363794    0.0306904581
 N   -0.5073144254    3.5305155122    0.0867872554
 C    0.6627791557    3.3887932301   -0.9093195361
 C    1.5266156554    4.5850426069   -0.5297888425
 C    1.5222704211    4.5304613965    0.8008696638
 C    0.6562845606    3.3073882407    1.0755184233
 C    1.1662763572    2.2338631812    0.0390399383
 H   -1.8040078876    2.1239400559   -0.8624513238
 H   -1.8092070590    2.0512090308    0.9099470359
 H    0.4088477376    3.2086139250   -1.9544383132
 H    1.9718627454    5.2937710362   -1.2112809860
 H    1.9628674690    5.1808848462    1.5410024494
 H    0.3955981480    3.0422892012    2.1006933500
 H    2.1860674075    1.8522501081    0.0267642954