17

 C   -0.1061233187    1.5430421068    0.0009263083
 N    0.0332855395    0.0976565680    0.0189446131
 C    1.0610076338   -0.5339527010   -0.8304506031
 C    2.4871002764   -0.1003636396   -0.3419097371
 C    2.6956649944   -1.3600533954    0.4640014218
 C    2.2318662720   -0.1062299542    1.1658764368
 C    0.7249750602   -0.5416177138    1.1545161281
 C    1.1959842201   -1.6969462838    0.2088507984
 H    0.8457301378    2.0761141290    0.1641148601
 H   -0.5151024121    1.8586503958   -0.9648417486
 H   -0.8105741559    1.8519090954    0.7806253876
 H    0.8602036663   -0.6373534127   -1.8968687901
 H    3.2227136753    0.5368085958   -0.8135503853
 H    3.5740781571   -1.9718042257    0.6103134515
 H    2.7704580722    0.5264058517    1.8581559265
 H    0.1844841588   -0.6527676014    2.0946102503
 H    0.7123464729   -2.6652377749    0.1232388617