19

 C   -0.1529290087    1.3222104840    0.0933747037
 O    0.1282870577   -0.0707490402    0.0634547244
 C    0.7040383357   -0.5485493587   -1.1326101942
 C    2.0888830517    0.0292909501   -1.4153670563
 C    0.6426371653   -2.0787670636   -1.2135198167
 C   -0.7441169262   -2.5521627565   -1.2276615052
 N   -0.1822694625   -2.0296509200   -2.5130628476
 C   -0.2028551943   -0.5848808419   -2.3768465371
 N   -0.6998021564    0.3133097588   -3.1019472762
 H    0.7620441630    1.9260022739    0.1603691223
 H   -0.7229818516    1.6370929258   -0.7881255134
 H   -0.7484972234    1.4946735002    0.9928065051
 H    2.7321430317   -0.1087110171   -0.5404488712
 H    2.5465755563   -0.4724694025   -2.2725517514
 H    2.0291985420    1.0949409793   -1.6479138288
 H    1.5004706310   -2.7363974089   -1.1389318209
 H   -0.9165381665   -3.6227148786   -1.2650100579
 H   -1.5102706409   -1.9732322853   -0.7219383406
 H   -1.2091398439   -0.1023795685   -3.8879641280