20

 C   -0.0316509765    1.5568294937   -0.1620192270
 C   -0.0015803001    0.0978672478    0.3100441778
 C   -1.3624503906   -0.5578269704    0.1967330285
 C   -1.8393398396   -1.1735311743   -1.0755493247
 C   -1.5561137421   -2.0806558179    0.1108749340
 C   -0.3808132161   -2.9976699433    0.0486399914
 C   -0.4417207724   -4.2121147408    0.9585222725
 O    0.5707119846   -2.7982581266   -0.6803164577
 H    0.9539670984    2.0216010732   -0.0617633401
 H   -0.3298043441    1.6238139842   -1.2134664680
 H   -0.7418528860    2.1530197199    0.4222541858
 H    0.7260001465   -0.4714073756   -0.2734050620
 H    0.3333157560    0.0593738040    1.3549192157
 H   -2.1323253296   -0.0770670392    0.7973981148
 H   -2.8731003920   -1.0518021610   -1.3787840702
 H   -1.1207356927   -1.2541779922   -1.8848588595
 H   -2.4098370695   -2.4680294713    0.6572876591
 H   -1.3077363121   -4.8330229271    0.7008269392
 H    0.4722107148   -4.7985142254    0.8591982154
 H   -0.5743826369   -3.9013444879    2.0011914948