21

 C   -0.0196982448    1.5628202480    0.0300500023
 C    0.0113071867    0.0391114734    0.0093883421
 O   -1.3479978219   -0.4023123225   -0.0516889531
 C    0.7457829977   -0.4922060092   -1.2296004479
 O    0.7061175574   -1.9145921975   -1.2454793934
 C    1.4295696029   -2.4659351307   -0.1532054233
 C    0.8184323665   -2.0537352436    1.1945599037
 O    1.6357029625   -2.4814200328    2.2751386802
 C    0.6999813831   -0.5324436592    1.2682675977
 H    0.9907927654    1.9787528159    0.0870554073
 H   -0.5099505467    1.9458525946   -0.8697099039
 H   -0.5860403539    1.9124755784    0.8980942470
 H   -1.3308559218   -1.2832600534   -0.4459105980
 H    0.2374886621   -0.1607776897   -2.1395206320
 H    1.7879193701   -0.1361423940   -1.2518608125
 H    1.4068559996   -3.5531990395   -0.2835454410
 H    2.4813868242   -2.1373391290   -0.1788463688
 H   -0.1882986825   -2.4917768590    1.2729821876
 H    1.5810432269   -3.4406102266    2.3343936501
 H    1.7104284325   -0.1149225783    1.3625352411
 H    0.1370927838   -0.2438911551    2.1608814146