12

 N   -0.1850915867    1.2813570950    0.0089712064
 C    0.0002461442    0.0351053517    0.0008486313
 O   -1.1857046854   -0.7337345423    0.0032955558
 C   -1.1118584826   -2.0696923484   -0.0044545547
 C    0.0618434462   -2.7384678096   -0.0146686596
 C    1.2439409832   -1.9195370318   -0.0166806448
 N    1.2231767184   -0.6285013228   -0.0094474647
 C   -2.3881184950   -2.7190100407   -0.0009368218
 N   -3.4035494315   -3.2721823840    0.0016605173
 H    0.7220283664    1.7445241267    0.0066846971
 H    0.0977309934   -3.8175431611   -0.0208159967
 H    2.2217934992   -2.3992916827   -0.0247109957