23

 C    0.0101580076    1.5391623754   -0.0243886031
 C   -0.0294354110    0.0408630329    0.0751828221
 C    1.1282322474   -0.8409936352   -0.3163470341
 C    0.6058232556   -0.9207513915    1.0968382144
 C    1.4828520451   -0.6574612247    2.2905113583
 C   -0.6694312745   -1.7878139901    1.0907203688
 C   -1.4196970841   -1.8385075319    2.4086685754
 O   -2.6711216038   -2.4672865787    2.1684851317
 C   -1.3075771098   -0.8075465545    0.0527664669
 H    1.0028250671    1.9313308347    0.2218150353
 H   -0.2305438596    1.8755790738   -1.0407184222
 H   -0.7123220849    2.0057650662    0.6556306373
 H    0.9890172443   -1.6687119873   -1.0103345096
 H    2.0828436318   -0.3327084464   -0.4230093978
 H    2.1930552226    0.1499829767    2.0831865183
 H    0.9032118432   -0.3661395488    3.1736206998
 H    2.0697392674   -1.5450113543    2.5587773990
 H   -0.5241932759   -2.8145788421    0.7333650874
 H   -0.8324419459   -2.3960301209    3.1564071981
 H   -1.5572942511   -0.8152075651    2.7973620044
 H   -3.1630377380   -2.4833554552    2.9944173424
 H   -2.1782636131   -0.2951898549    0.4713689702
 H   -1.5901387506   -1.2290410582   -0.9177355429