16

 C   -0.0710551536    1.7344673063   -0.0662766610
 C    0.0350726681    0.2253148889    0.0055904776
 O    1.1775669211   -0.2931620604   -0.7301356014
 C    1.6708966120   -0.9991899241    0.4287021146
 C    0.5210622987   -0.4565231544    1.3197152782
 C    0.9089828865    0.4115288274    2.4144072697
 N    1.2293869202    1.1104349360    3.2778003733
 C   -1.1994304357   -0.4586100826   -0.5778832302
 O   -1.9282412114   -1.1965535556    0.0303988902
 H    0.8507025331    2.1990792366    0.2912535737
 H   -0.2386431701    2.0454122485   -1.1022863505
 H   -0.9042260855    2.0933513365    0.5465835220
 H    1.6618304974   -2.0844980124    0.2881348698
 H    2.6742305562   -0.6668024051    0.7079085368
 H   -0.1867478641   -1.2113051001    1.6679786925
 H   -1.3457920330   -0.2400630356   -1.6580191753