21

 O   -0.1443776696    1.4575999402   -0.0156303271
 C    0.0150134773    0.0337563374   -0.0943129162
 C   -1.3666810836   -0.5876702547    0.0371885340
 C   -1.3933966859   -2.1266821292    0.1651433024
 C   -2.8780353166   -2.3572933328    0.5753069043
 C   -2.4189385886   -1.6489212734    1.8820611347
 C   -1.0566915197   -2.3646059399    1.6687599486
 C   -2.1165226406   -0.2282346087    1.3817863361
 O   -1.3256997139    0.4666014835    2.3248069569
 H    0.7256254743    1.8630515031   -0.0814625517
 H    0.4610510826   -0.2485278970   -1.0592053821
 H    0.6808243477   -0.3198077835    0.7028367877
 H   -1.9598460107   -0.2619573587   -0.8245409941
 H   -0.9198048901   -2.7035850341   -0.6315181265
 H   -3.6581173869   -1.8823923523   -0.0290450775
 H   -3.1154369966   -3.4114462877    0.7345332140
 H   -2.9764786191   -1.7244720830    2.8154572121
 H   -1.0969667264   -3.4237671953    1.9334006904
 H   -0.1686276886   -1.8998659823    2.0999901571
 H   -3.0430321621    0.3267149569    1.1756261007
 H   -0.9467239532    1.2205179016    1.8517853060