18

 C   -0.1609730262    1.6110269009   -0.1701235722
 C   -0.0144510754    0.1093194472   -0.0793552359
 C    1.3334917207   -0.5455679890   -0.1218223200
 C    0.5427645786   -0.5572622495    1.1773700357
 N    1.0242145851    0.2817919951    2.2088826183
 C    0.8139046946    0.0077243698    3.4361179541
 N    0.1613830821   -1.0871356041    3.9908389426
 C    1.3657042683    0.9148794572    4.4242388933
 N    1.7831560282    1.6195252582    5.2404124038
 H    0.6482759110    2.1166839466    0.3600695431
 H   -0.1457544417    1.9348320463   -1.2163741350
 H   -1.1076254695    1.9441344180    0.2692222210
 H   -0.8211832580   -0.4530608867   -0.5431962237
 H    1.4551889327   -1.4865428129   -0.6464759583
 H    2.2031423790    0.1017401928   -0.1286936905
 H    0.0969055386   -1.5160910104    1.4419866764
 H   -0.5432872166   -1.5245135862    3.4173801928
 H   -0.1095635016   -0.9935702336    4.9577533844