14

 C    0.0528014397    1.4648318979    0.0502797126
 C   -0.0696841775   -0.0138847197   -0.0057372159
 C   -1.1472059580   -0.8370525438   -0.2141845322
 C   -0.5965470768   -2.1492124223   -0.1487467062
 C    0.7416854763   -2.0267496050    0.0888438081
 O    1.1007639383   -0.7205933689    0.1827710016
 C    1.2343086709   -3.3427588159    0.1442748865
 N    0.2471425527   -4.1984290939   -0.0490735331
 O   -0.9366006192   -3.4385398305   -0.2387869282
 H    0.7418488155    1.8349570981   -0.7169339419
 H   -0.9237844677    1.9254455391   -0.1109313797
 H    0.4357421318    1.7946048431    1.0223803493
 H   -2.1628295109   -0.5209414129   -0.3847255278
 H    2.2291041651   -3.7279770252    0.3096824968