17

 C   -0.1827617726    1.5427786816    0.0275558426
 C   -0.0372149844    0.0331954385   -0.0666066372
 C    1.1010426332   -0.5648678725   -1.0008516198
 O    1.9624569124    0.3221982094   -1.6548895119
 C    1.6747016446   -1.2822614616    0.2296549508
 O    2.0088890007   -0.2386292738    1.1527968440
 C    0.6349376256   -0.7001644489    1.1118045675
 C    0.0381546795   -1.1900065454    2.3062323768
 C   -0.5160449641   -1.5833589493    3.2982766356
 H    0.7443812945    2.0076650923    0.3730085690
 H   -0.4304349067    1.9662153333   -0.9501909520
 H   -0.9773259340    1.8145839408    0.7295012528
 H   -0.9934671184   -0.4413438359   -0.3064256705
 H    0.6976672820   -1.2424998153   -1.7563880063
 H    2.4402628596    0.7984589641   -0.9640504682
 H    2.2245562103   -2.2130475447    0.3139441228
 H   -0.9939627321   -1.9366886228    4.1785056339