13

 O    1.4675890669    2.3373877109   -1.6954475440
 C    0.5324317208    2.0790107205   -0.9722755814
 C    0.6930589305    1.6343266136    0.3970899384
 C    0.8253393708    1.2493607755    1.5296836206
 C   -0.8981174880    2.1629950251   -1.4846997536
 C   -1.6651036932    0.8236897542   -1.5924721359
 C   -2.5788050523    1.4599314825   -0.5441638805
 O   -3.5616894007    1.1850465232    0.0567889422
 O   -1.8468162057    2.6272366218   -0.4759032794
 H    0.9478550410    0.9158719819    2.5322240692
 H   -0.9190502179    2.7973467939   -2.3717128438
 H   -2.1370532026    0.6198456444   -2.5539497869
 H   -1.1363024495   -0.0636176375   -1.2402621750