18

 C   -0.0327726213    1.6449250198   -0.2784578185
 C   -0.0226240489    0.1378215367   -0.1404188507
 C   -1.3100463193   -0.4775338162    0.4109640839
 C   -1.6367335484   -0.0063585736    1.7589092771
 N   -1.8873317143    0.3710191273    2.8218381635
 C    0.6508532434   -0.7927498017   -1.1444098225
 C    1.9785745446   -0.2011817367   -1.6018287431
 O    2.3995756839    0.0194319362   -0.2267189238
 C    1.2179025979   -0.6202723615    0.2508031100
 H    0.9704380370    2.0207022755   -0.4862070477
 H   -0.7032672513    1.9681174030   -1.0827364121
 H   -0.3720154362    2.1111134623    0.6522414825
 H   -2.1533869969   -0.2440465295   -0.2506523786
 H   -1.2311419343   -1.5706966852    0.4416449373
 H    0.1398597925   -1.6279559000   -1.6062741625
 H    2.6329919389   -0.9347562134   -2.0844118675
 H    1.9595392666    0.7232958962   -2.1892342965
 H    1.3080383761   -1.2788222892    1.1083030993