19

 N    0.0701288267    1.4005069927    0.0634733966
 C   -0.0082588832   -0.0068714395   -0.0198875402
 C   -1.0572838514   -0.8964691558    0.0231613837
 C   -0.5256846758   -2.2107605903   -0.1850784207
 C    0.8337083879   -2.0682084021   -0.3427011376
 N    1.1379152533   -0.7282088105   -0.2395742769
 C   -1.3045382841   -3.4724791440   -0.2225555350
 C   -0.6639298924   -4.8009534108    0.0940204128
 C   -1.6643472600   -4.2089049502    1.0533973321
 H   -0.8394366994    1.8136706833   -0.1029151063
 H    0.3823448540    1.7141086115    0.9787137278
 H   -2.0910293390   -0.6456512081    0.2101171283
 H    1.6018568855   -2.8013677649   -0.5264155362
 H    2.0355290469   -0.3091801458   -0.4091825082
 H   -2.0754083824   -3.5035308543   -0.9897710735
 H   -0.9569236063   -5.6644071859   -0.4928906646
 H    0.3771943784   -4.8025219370    0.3966571019
 H   -1.2867327502   -3.8012273191    1.9844923934
 H   -2.6458738986   -4.6651749990    1.1249182425