18

 O    0.1723186967    1.4042383293   -0.1105972673
 C    0.0407432261    0.0244608867   -0.0816784870
 C    0.4040157408   -0.7547227027   -1.3428655281
 C   -0.5097193196   -1.8837837679   -0.7878072454
 O    0.1978052865   -2.7902796215    0.0471007159
 C    1.0712583614   -2.0842130384    0.9307617334
 C    0.4314392767   -0.7364947513    1.2555736051
 N   -1.0238927517   -0.9221084698    1.5385039208
 C   -1.2718126265   -0.7961387088    0.0977878028
 H   -0.2057160221    1.7604546258    0.7016844330
 H   -0.0467634806   -0.2745770683   -2.2162395365
 H    1.4477908783   -0.9961745911   -1.5589728494
 H   -1.0887510072   -2.4804486056   -1.4916512112
 H    1.1832819656   -2.7033703981    1.8280064800
 H    2.0690574987   -1.9543635224    0.4846451807
 H    0.9920704629   -0.1659873551    2.0035230206
 H   -1.2456586824   -1.8402924960    1.9223110381
 H   -2.2680036835   -0.4930541248   -0.2317214555