20

 C    0.0509791024    1.5592072825    0.0858815376
 C   -0.0403940576    0.0348673628    0.0057289955
 O    0.6870111240   -0.5577641198    1.0825897992
 C   -1.4929005710   -0.4986693208   -0.0432043943
 C   -2.2434800089   -0.0746022894   -1.3252419223
 O   -3.6490720443   -0.0981772521   -1.1929764664
 C   -1.4569740741   -2.0398133887    0.1180061582
 C   -2.7756825898   -2.6661533627    0.0986333218
 N   -3.8261871481   -3.1495632754    0.0610856936
 H    1.0988171628    1.8524991575    0.1902517082
 H   -0.3523231526    2.0532365397   -0.8010302306
 H   -0.5010813762    1.9357535824    0.9561793015
 H    0.4862939308   -0.3098884295   -0.8945013113
 H    0.3962559940   -0.1360706907    1.8994531601
 H   -2.0481135627   -0.0724114048    0.8030416069
 H   -1.9968117174    0.9610899623   -1.5720110429
 H   -1.8992688184   -0.6940017155   -2.1708650793
 H   -3.9440566248   -1.0103528761   -1.0928324031
 H   -0.8616823688   -2.4790264092   -0.6928170234
 H   -0.9480564992   -2.3010521025    1.0486584209