20

 C   -0.2403395243    1.5134945163    0.1057178971
 C    0.0358772388    0.0230370812   -0.0052790559
 C   -1.1770191464   -0.9217284734    0.2683718174
 C   -0.4134059978   -1.5830389909    1.4476363310
 C    0.8242072940   -0.6898298988    1.1606863874
 C    1.9826456141   -1.3803028968    0.4391704042
 O    1.5429259487   -1.5629353828   -0.9037559706
 C    0.8503247317   -0.3696603554   -1.2463800539
 H    0.6887531990    2.0948338571    0.0910474239
 H   -0.8646741219    1.8630604441   -0.7257145059
 H   -0.7698817384    1.7517119510    1.0340859705
 H   -2.0931603245   -0.3970849860    0.5526837940
 H   -1.4101786077   -1.5989028913   -0.5576572829
 H   -0.8659533634   -1.4121031400    2.4271986444
 H   -0.2321525055   -2.6556662324    1.3368089791
 H    1.1588825590   -0.0609804789    1.9886245899
 H    2.8853646580   -0.7465040108    0.4646459694
 H    2.2388376670   -2.3644219876    0.8428370387
 H    0.2371984377   -0.5794852309   -2.1281548508
 H    1.5659797818    0.4319248163   -1.5010653770