18

 C   -0.0174563065    1.5409587823    0.0922578435
 C    0.0127353667    0.0866672436    0.0668520012
 C    0.0375405493   -1.1171962591    0.0530923135
 C    0.0305944401   -2.5640626365    0.0184409549
 N    0.2592648499   -3.2837854267    1.3100987476
 C   -0.8686759389   -4.2322206840    1.0899929257
 C   -1.8095991342   -4.4371947803    2.2672519599
 C   -1.3328583509   -3.3195946733   -0.0563029529
 O   -2.3292760890   -3.1999513102   -0.6961049830
 H    0.7317770180    1.9698596938   -0.5821508702
 H   -0.9983465113    1.9210827655   -0.2137185796
 H    0.1850047131    1.9205003312    1.0998137761
 H    0.6675521843   -2.9287796185   -0.8045343695
 H    1.1718749706   -3.7199698367    1.3744629171
 H   -0.5585541553   -5.2050853122    0.6748042196
 H   -2.1237106382   -3.4733787394    2.6756822762
 H   -2.6968779950   -4.9926109533    1.9479042555
 H   -1.3163600725   -5.0032967760    3.0633504344