25

 C    1.0117683464    1.9238031124    0.7614326858
 C    0.6386560347    0.4898444139    0.3769609929
 C    0.9921381959   -0.5298003244    1.4643522542
 C    0.6521391907   -1.9746477897    1.0880885326
 O    1.4322857821   -2.2802645565   -0.0619973579
 C    1.0692831896   -3.4572586179   -0.7449728443
 C    0.9127443100   -2.9359983233    2.2329463088
 C   -0.0810843698   -3.0411512928    3.3631529601
 C    0.0957353567   -4.1937418955    2.4106198780
 H    2.0885229331    2.0172377961    0.9425704987
 H    0.7462141047    2.6316009720   -0.0302787821
 H    0.4963762283    2.2392804013    1.6759536219
 H   -0.4386573996    0.4351455806    0.1682041783
 H    1.1458364802    0.2051006452   -0.5502093920
 H    2.0665832704   -0.4780728598    1.6852335383
 H    0.4676352107   -0.2832379479    2.3953001187
 H   -0.4206737373   -2.0344800506    0.8225882923
 H    1.2850159704   -4.3647946803   -0.1656501931
 H   -0.0011833582   -3.4623386736   -1.0066115479
 H    1.6539146756   -3.4837398885   -1.6686781769
 H    1.9626842717   -3.0005961598    2.5075763835
 H    0.2972002371   -3.1378660604    4.3744540848
 H   -0.9954600071   -2.4607406471    3.2870095189
 H   -0.7030385131   -4.3853487344    1.7013158412
 H    0.5969915769   -5.0878426790    2.7651125653