19

 C   -0.0007441001    1.4461286865   -0.1453489968
 C    0.0954645478   -0.0748503337    0.0867052315
 C    0.7488128963   -0.3976413463    1.3527478060
 C    1.2578596881   -0.6600019087    2.4099950854
 C   -1.2983661832   -0.7144009208    0.0573369972
 O   -1.9969120895   -0.5021146423   -1.2052122799
 C   -2.2939076905   -1.9010036186   -1.2832905803
 C   -1.0433801727   -2.7013163829   -1.4355016006
 C   -1.4719943022   -2.2273192011   -0.0586742105
 H    0.9944559951    1.8962706090   -0.1754721689
 H   -0.5093488412    1.6400539578   -1.0927348196
 H   -0.5662768617    1.9245566133    0.6600605527
 H    0.6815403150   -0.5118011197   -0.7314384903
 H    1.7219980917   -0.8940039901    3.3358374880
 H   -1.9031849718   -0.3053079055    0.8767976852
 H   -3.2875548692   -2.1900450146   -1.6037323247
 H   -1.1852081980   -3.7658282427   -1.5952313438
 H   -0.1874157051   -2.2722792770   -1.9480673239
 H   -1.6637537488   -2.9011779027    0.7638802136