19

 O    0.1158040153    1.3555282257    0.2002326745
 C    0.0458109635   -0.0546206661    0.0529298447
 C   -1.4303440839   -0.4442302982   -0.0161232815
 C   -1.6544584478   -1.9664709702   -0.2215976217
 C   -2.7222661230   -2.3618727464    0.8046898138
 C   -3.7725138844   -3.3649239715    0.5655430481
 O   -2.6473644067   -3.6722034040    1.3900892304
 C   -2.8886627538   -1.1873486014    1.6992175197
 C   -2.1890212999   -0.1426483436    1.2587245038
 H    1.0381253372    1.6041039861    0.3089352812
 H    0.5567026149   -0.3869997991   -0.8653871765
 H    0.5189207852   -0.5722598970    0.9028847800
 H   -1.8672955596    0.1283643141   -0.8455015288
 H   -1.9427923017   -2.2149757444   -1.2455084767
 H   -0.7410222490   -2.5278280658    0.0050673224
 H   -4.7287349262   -3.2901184370    1.0838938204
 H   -3.8082806818   -3.8820311065   -0.3936905232
 H   -3.5165715154   -1.2217321759    2.5817444609
 H   -2.1471809130    0.8360356511    1.7207557186