23

 C    0.0454513108    1.5434754248   -0.0011710104
 C    0.0258863808    0.0120015656    0.0301119466
 C   -1.3826499337   -0.5796902185   -0.0606941977
 C   -2.1498417416   -0.2962311691   -1.3807737460
 C   -2.9746993032   -1.5444315313   -1.5730133562
 C   -2.6347947070   -2.5329390823   -0.7410629570
 C   -3.2056955203   -3.9134699608   -0.6602052111
 C   -1.4478404275   -2.1256166432    0.1114206986
 O   -0.2668290675   -2.8304252813   -0.2906327026
 H    1.0673697820    1.9270815276    0.0796782824
 H   -0.3808895222    1.9339347022   -0.9315626454
 H   -0.5341625945    1.9646890583    0.8282796090
 H    0.6396253210   -0.3824008709   -0.7886091075
 H    0.5021993693   -0.3429045134    0.9519273214
 H   -1.9848551256   -0.1593084235    0.7557118797
 H   -2.7656934873    0.6080641624   -1.3175600656
 H   -1.4673952669   -0.1356671255   -2.2292538752
 H   -3.7530480702   -1.6172645768   -2.3271542611
 H   -3.9624866816   -4.0885188584   -1.4298102611
 H   -2.4140529987   -4.6633129215   -0.7716221496
 H   -3.6682385413   -4.0927319881    0.3189756142
 H   -1.5628806074   -2.3994372520    1.1662408694
 H   -0.2059432875   -2.7608739744   -1.2501192149