19

 C   -0.0154467602    1.5593875362   -0.0105795048
 C    1.5008218470    1.8499448018    0.0041972452
 C    1.9492823356    0.9644986025   -1.1784214821
 C    1.3334712515   -0.3769224719   -0.7486100377
 O    2.1658646965   -0.9235368040    0.2809514544
 C    1.7185372665   -0.2211031311    1.4254433824
 C    2.1037130159    1.2710357563    1.3133684274
 O    0.3107639060   -0.3618441270    1.3836270809
 C    0.0125265481    0.0230365546    0.0365641736
 H   -0.5648417943    1.9608379157    0.8441662728
 H   -0.4752320461    1.9350957193   -0.9314995825
 H    1.7509315810    2.9072908540   -0.1136349760
 H    1.5256843133    1.3292520159   -2.1208508599
 H    3.0317446002    0.8718521251   -1.2936579019
 H    1.2101175904   -1.1255689639   -1.5312824994
 H    2.1025559740   -0.7124071937    2.3217686526
 H    3.1952829107    1.3620391839    1.3117908651
 H    1.7212933190    1.8083410795    2.1879351652
 H   -0.8977476651   -0.4873410432   -0.2783629054