19

 C   -0.0101044493    1.5539463059   -0.1709537337
 C   -0.0751217105    0.0388941140   -0.0871320164
 O    0.6335117516   -0.5022303927   -1.1868289456
 C    0.6319604475   -1.9074716733   -1.2116901033
 C    1.4643718767   -2.3738714196   -2.3889416003
 O    2.8982168027   -2.3413961279   -2.1805052969
 C    3.0748508866   -3.7488924618   -2.4369137884
 C    1.5598283955   -3.8911655239   -2.6180298825
 O    0.7870256817   -4.7777172489   -2.8131128608
 H    1.0287011097    1.8942886380   -0.1428218663
 H   -0.4615564576    1.9066035268   -1.1025069190
 H   -0.5476288140    2.0045892339    0.6685750940
 H    0.3663738602   -0.3173928825    0.8585905177
 H   -1.1224353653   -0.3076413104   -0.1046598871
 H    1.0451582766   -2.3237777460   -0.2783523876
 H   -0.3909523482   -2.3054890349   -1.3333602436
 H    1.1752935180   -1.8074938678   -3.2851834535
 H    3.6718166722   -3.9531005627   -3.3353324941
 H    3.5026381361   -4.2931194564   -1.5854142325