20

 C   -0.0470559953    1.5746423090   -0.0170952033
 C    0.0409355632    0.0478851450    0.0006758296
 C    0.7990429198   -0.5657132149   -1.1986977524
 C    1.3088517389   -1.9420389860   -0.7062294965
 C    1.5071195273   -1.7613654850    0.7916691114
 C    2.2530329726   -0.5206050129    1.2573644651
 C    0.7433853037   -0.5422415031    1.2223525656
 O    0.0345595887   -0.5643135557    2.4270391734
 H    0.9509163611    2.0278511759   -0.0138378678
 H   -0.5746130525    1.9336793172   -0.9068710688
 H   -0.5905887665    1.9504723273    0.8574027682
 H   -0.9791153491   -0.3602446122    0.0232715047
 H    0.1694259567   -0.6456359524   -2.0891656780
 H    1.6432658562    0.0778804518   -1.4714174519
 H    0.5499846178   -2.7149083184   -0.8777784728
 H    2.2162442613   -2.2598165270   -1.2312561792
 H    1.5413851590   -2.6325205806    1.4360163450
 H    2.6969589512   -0.5831236862    2.2449345916
 H    2.8176303592    0.0750519562    0.5465019459
 H    0.0954541169    0.3113572321    2.8234844003