15

 O    0.1341803072    1.3156948645   -0.3547335530
 C   -0.0018766900    0.0004777359    0.1437618199
 C   -1.4299313183   -0.5252839270    0.0452097021
 C   -1.8827169573   -1.1368315120   -1.2700830736
 C   -1.6364968610   -2.0258244088   -0.0860108106
 C   -2.3793989286    0.2449172125    0.8035225180
 C   -3.1251631036    0.9399054911    1.4444305020
 H   -0.4886503479    1.8685465142    0.1316925629
 H    0.6573223850   -0.6285759143   -0.4633763976
 H    0.3366832420   -0.0703431586    1.1892450901
 H   -2.9073253872   -0.9633299188   -1.5759523863
 H   -1.1607052883   -1.1351748716   -2.0791681862
 H   -0.7456778134   -2.6453634918   -0.0790412911
 H   -2.4904974233   -2.4577818482    0.4215782371
 H   -3.8022504453    1.5309164329    2.0100107662