23

 C   -0.1094793779    1.4932392178    0.1736429403
 C    0.0741845926   -0.0039996725   -0.0100073085
 O    0.6810210409   -0.5304966217    1.1505485880
 C    0.8911124533   -1.9263330657    1.0920569250
 C    1.5078625963   -2.3686674267    2.4057457705
 C    0.6475884988   -2.3055238433    3.7139358311
 C    0.9412255318   -3.7923914388    3.9564819123
 C    0.4304036034   -4.6114283328    2.8079127425
 C    1.7313996291   -3.8690840304    2.6459822468
 H    0.8562659641    1.9810606963    0.3338507214
 H   -0.5785340961    1.9326755741   -0.7118511194
 H   -0.7435698429    1.6979643222    1.0410195606
 H   -0.8989637695   -0.4939659392   -0.1871431129
 H    0.7001593008   -0.2108781338   -0.8953790309
 H   -0.0639862828   -2.4468564804    0.9094774489
 H    1.5612007799   -2.1825295183    0.2519383585
 H    2.4382304577   -1.8119517305    2.5505320010
 H    1.0792491015   -1.6391261547    4.4627470789
 H   -0.4082879055   -2.0449883489    3.5855268467
 H    1.1789116600   -4.2381687489    4.9146006940
 H    0.5353373205   -5.6862629936    2.9180233326
 H   -0.4668241887   -4.3109548245    2.2720458495
 H    2.6544977526   -4.3978203156    2.4385546328