15

 C   -1.5531484390   -0.2575511192   -0.7547045660
 C   -0.6291027520    0.3636906958   -0.3039191412
 C    0.5022922606    1.1055274585    0.2492123483
 N    0.7003331189    2.3805861869   -0.4510286928
 C    1.7708623934    2.5494763461   -1.0758494446
 C    2.3577434312    3.6710486702   -1.9055240278
 C    3.5524133601    2.7070516621   -2.0561213614
 O    2.8656522054    1.7139487726   -1.2338827271
 H   -2.3717239785   -0.8043737621   -1.1520853466
 H    0.2940954263    1.3355235368    1.3019904203
 H    1.3968968682    0.4686254018    0.2305094903
 H    1.8056925965    3.8988202129   -2.8185493045
 H    2.5512134196    4.5937111600   -1.3563713497
 H    3.7389105685    2.3186089480   -3.0599240687
 H    4.4897345608    3.0181910695   -1.5890812985