21

 C   -0.0273975381    1.5363377136    0.0668340644
 C    0.0533056967    0.0107609288   -0.0560097917
 C    0.7622055290   -0.4596559899   -1.2995370167
 C    0.3346163108   -0.2486961750   -2.7884516247
 C    1.6493186655   -1.0815033848   -2.8337783960
 O    2.2899864797   -1.6412371244   -3.9255562164
 C    2.2277347065   -0.1275624938   -1.7456257976
 C    1.0484313494   -1.9356621033   -1.6941810660
 O    1.8996054476   -2.6434936150   -0.8288875785
 H    0.9715485199    1.9842192186    0.0897455079
 H   -0.5699946565    1.9755718054   -0.7769335859
 H   -0.5454678958    1.8287456424    0.9851645372
 H    0.5724574882   -0.4044316937    0.8167514888
 H   -0.9584835847   -0.4154512290   -0.0425680342
 H   -0.5823991159   -0.7475644503   -3.1163730057
 H    0.3963719485    0.7753161832   -3.1646047599
 H    2.6594747923   -0.9325954644   -4.4630117528
 H    2.4157534828    0.9046336121   -2.0552679148
 H    3.0247092720   -0.5276179869   -1.1200721298
 H    0.1650694020   -2.5302788317   -1.9678472363
 H    2.3005225402   -3.3602328122   -1.3314037213