15

 N   -0.0153733329    1.3419431379    0.0097631319
 C    1.2479484542    1.8721062343    0.0006051223
 C    2.1316846228    0.8005107344   -0.0139177318
 C    3.5425399714    0.6594609470   -0.0283283367
 C    4.0552841691   -0.6091150814   -0.0403227680
 N    3.3093415502   -1.7615607415   -0.0395056808
 C    2.0041344502   -1.6561342757   -0.0263084633
 C    1.3344050253   -0.4061235973   -0.0129155849
 C   -0.0029723380   -0.0197192820    0.0021198990
 H   -0.8562196520    1.8959727824    0.0209127081
 H    1.4070924457    2.9374359918    0.0050152052
 H    4.1990303873    1.5230776120   -0.0298621491
 H    5.1304760344   -0.7634228634   -0.0515488087
 H    1.4328228241   -2.5842758161   -0.0259581278
 H   -0.9165992517   -0.5907334125    0.0077585848