15

 C    0.0894584927    1.3925299631    0.1225549215
 N   -0.1194898856   -0.0253751208   -0.0980202092
 C    0.5599512492   -0.6470177385   -1.1171340134
 C    1.2019797294   -0.1177494190   -2.2109722809
 O    1.6723132793   -1.1571042451   -2.9604017495
 C    1.3060950929   -2.2611535749   -2.2836293644
 C    1.6561393089   -3.5897161492   -2.7970769625
 O    2.2674940538   -3.7938408478   -3.8184963632
 N    0.6450243125   -2.0187890029   -1.1817657449
 H    1.1437166476    1.6560234612    0.3013365038
 H   -0.2589303617    1.9594899443   -0.7480960898
 H   -0.5022719664    1.7120947247    0.9822788144
 H   -0.1900201313   -0.5974292263    0.7299978086
 H    1.3932485312    0.8735102073   -2.5799695217
 H    1.2915694775   -4.3998135062   -2.1348608387