19

 O    0.3301424959    0.1604283490   -0.4457163532
 C    0.4278401877    1.3479681222   -0.5165159388
 O    0.9701482877    2.0908334588    0.4741622235
 C    0.9970068813    3.4900928429    0.2595903484
 C    2.0933923644    4.2284621684    0.9590456176
 C    2.1242376324    4.0884095223   -0.5500926663
 C    3.1410060975    3.2154932090   -1.2137611167
 C    3.1267050806    3.0368617486   -2.7148104149
 C    4.2298915586    3.8288556236   -2.0587016676
 H    0.0910473400    1.9594989635   -1.3744322822
 H    0.0074501283    3.9356923193    0.2095276472
 H    1.8665095482    5.1898886897    1.4051193890
 H    2.7925117976    3.6188541159    1.5212993273
 H    1.8550372097    4.9750433522   -1.1198498336
 H    3.4244332626    2.3418107109   -0.6353575169
 H    3.3594832060    2.0579895593   -3.1184950789
 H    2.3818974584    3.5853655111   -3.2826162439
 H    4.2244701594    4.9063805228   -2.1863994820
 H    5.2218730838    3.3937781404   -2.0116699781