15

 O   -0.4421182089    0.7249105947    0.9140296963
 C    0.0833427211    1.0297397040   -0.1225075812
 C    1.4072123753    1.7834115627   -0.2204331377
 C    1.3533981905    2.8733164166   -1.2592346759
 N    1.2196684337    2.4943553799   -2.5361216062
 C    1.1529146992    3.4657554293   -3.4467213215
 C    1.2243427140    4.8115425543   -3.0966701204
 N    1.3538851171    5.1998881160   -1.8267399185
 C    1.4115827602    4.2287180796   -0.9170027878
 H   -0.3603578086    0.7721915893   -1.1080216285
 H    1.6709343908    2.1633504597    0.7686909969
 H    2.1612762389    1.0458477972   -0.5261907487
 H    1.0435602628    3.1627655741   -4.4849049872
 H    1.1765325345    5.5906444920   -3.8525547459
 H    1.5127924397    4.5320288106    0.1223601664