17

 C    0.0221778639    1.4532114334   -0.2681272446
 C    0.1295734274   -0.0303190696   -0.0740421507
 O   -0.7978356509   -0.6649510753    0.8260492928
 C    0.6030398090   -0.7475416079    1.1142266216
 C    1.2165830412   -2.0485083438    0.6554169857
 O    0.8097932968   -2.2029763590   -0.7042852459
 C    0.4466975252   -0.9488877356   -1.2572968785
 C   -0.7649887661   -1.1388399904   -2.1596695644
 O   -1.1437440113   -0.2976222255   -2.9323030604
 H    0.9687142918    1.8664817832   -0.6310947983
 H   -0.7491997067    1.6839174492   -1.0089460867
 H   -0.2387015838    1.9389265487    0.6747868407
 H    0.9454145104   -0.2499905254    2.0177956264
 H    2.3130117374   -1.9983492273    0.7433304551
 H    0.8592377613   -2.9203680238    1.2123874340
 H    1.2614690807   -0.5046374028   -1.8504275978
 H   -1.2818029262   -2.1113107879   -2.0210765591