15

 C    0.0042139224    1.3617835910    0.2581253899
 N   -0.0278631437   -0.0221291414   -0.1764948021
 C   -1.1619925499   -0.7736929991   -0.0457281887
 N   -1.2173954000   -2.0928851563   -0.0704036665
 C   -2.5630638801   -2.3410198599    0.0433489557
 N   -3.3330980338   -1.2649227508    0.1421724119
 N   -2.4104636678   -0.2601274142    0.0871593025
 C   -3.1026913198   -3.6542870369    0.0585117393
 C   -3.5501255148   -4.7699657335    0.0713936949
 H    1.0098920308    1.7556906284    0.1030860363
 H   -0.6763096455    1.9685213117   -0.3507649082
 H   -0.2636145737    1.4949952696    1.3169309023
 H    0.8087584285   -0.5650641941   -0.0278828273
 H   -2.7161266416    0.6965124072    0.1282316062
 H   -3.9470374310   -5.7546371617    0.0810465937