17

 C   -0.0295701968    1.4673083245    0.0649272531
 C   -0.0021074351   -0.0361871521    0.0184225491
 C    0.6168780087   -0.9600369992   -1.0752153526
 C    0.0181431261   -1.9402686602   -0.0286613218
 C    0.6357335091   -1.0151538311    1.0608491161
 C   -1.2306670747   -1.0093203160   -0.0281313999
 O   -2.1803503534   -1.0370457950    1.0004415855
 H    0.9796538177    1.8859343165    0.1442229490
 H   -0.4949423488    1.8789938304   -0.8374139823
 H   -0.6088527323    1.8171969814    0.9266268264
 H    0.1469442387   -0.9391145481   -2.0633547237
 H    1.7068206128   -0.9484115108   -1.1496662532
 H    0.0381784196   -3.0300129234   -0.0595385964
 H    1.7274032395   -1.0047303845    1.1272485479
 H    0.2082291060   -1.0421260089    2.0694091020
 H   -1.8044165924   -0.9893129794   -0.9594124454
 H   -1.7292213147   -1.1185709640    1.8467405260