15

 C    0.0950503690    1.5147828024    0.1188811794
 C   -0.0458970021   -0.0001232054   -0.0378152603
 C    0.7829491269   -0.5817710825   -1.2226250329
 N    2.0077036136   -1.1542625681   -0.6366393991
 C    1.7923525375   -1.1872714303    0.6241397765
 N    0.5611475267   -0.7434319606    1.0863241122
 C    2.7470796938   -1.7007201328    1.5705908722
 N    3.4913267366   -2.0896335983    2.3643237773
 H    1.1496034002    1.8048293456    0.1730478911
 H   -0.3563932086    2.0270091211   -0.7368804995
 H   -0.4089050575    1.8710409902    1.0237422887
 H   -1.1027956136   -0.2682141726   -0.1226714383
 H    0.2393030112   -1.3816164649   -1.7399626292
 H    1.0383099502    0.1767647022   -1.9688950979
 H    0.5178878660   -0.3389941760    2.0119869697