18

 C   -0.0101715544    1.5869935766    0.0123624419
 C    0.0820968556    0.0617454288    0.0569273332
 C    0.6789064120   -0.5229735308   -1.2286040491
 C    0.9524224441   -2.0210447509   -1.0352353219
 O    1.7741307381   -2.2307226062    0.1332838847
 C    1.5858307507   -1.3635712009    1.1648646484
 N    0.8548918097   -0.3375978945    1.2370952545
 C   -0.2744184080   -2.8122388271   -0.9361669660
 C   -1.2889283115   -3.4525349763   -0.8722221950
 H    0.9838323357    2.0306227137   -0.1072439095
 H   -0.6390127642    1.9171586832   -0.8209330135
 H   -0.4357460802    1.9636308994    0.9458146482
 H   -0.9324847289   -0.3407120155    0.1831421922
 H    0.0152606537   -0.3788358329   -2.0857193886
 H    1.6313946523   -0.0284968905   -1.4518888516
 H    1.5557538888   -2.4050338150   -1.8640232563
 H    2.2018159258   -1.6741913475    2.0071051530
 H   -2.1813105992   -4.0257319535   -0.8114545845