16

 O    0.4559620773   -0.3020073248    1.0330996047
 C   -0.1546270810    0.2682844484   -0.1221301152
 C   -1.5540424746   -0.2438879762   -0.2037024690
 C   -2.7124281601    0.3109740176   -0.7141635956
 C   -3.7380650961   -0.6551606233   -0.5893671220
 C   -3.1862885220   -1.7817436601    0.0049168735
 N   -1.8486531390   -1.5080884235    0.2155189294
 C   -3.7657394705   -3.0083220809    0.3805498693
 C   -4.2506078182   -4.0635688079    0.7053803122
 H    1.4021214947   -0.1372108788    0.9834446034
 H   -0.1727900541    1.3670519088   -0.0776981810
 H    0.4122093378   -0.0104268376   -1.0263014920
 H   -2.8036085955    1.3009784181   -1.1346459566
 H   -4.7698240428   -0.5555074792   -0.8872442623
 H   -1.1991993120   -2.0964676095    0.7102233799
 H   -4.6866880739   -4.9885767710    0.9895189215