17

 O   -0.1366746156    1.4633802380    0.1894038599
 C   -0.0133793980    0.0659764556    0.0432833462
 C    0.3636275644   -0.7968857280    1.2883615673
 C   -0.8658054496   -1.7126150160    1.0118379462
 C   -2.1040083369   -1.3889010729    1.8774474963
 C   -2.4559155578   -0.2106935767    0.9189014811
 C   -1.3530616965   -0.6805468827   -0.0745446522
 H    0.7426527139    1.8329871148    0.3168737116
 H    0.6378258125   -0.1820313478   -0.8080268574
 H    1.3425867728   -1.2804190063    1.2437567713
 H    0.2884646865   -0.2425955471    2.2291537967
 H   -0.6449893981   -2.7571901412    0.7902232644
 H   -2.8538532580   -2.1846092341    1.8451812650
 H   -1.9123000325   -1.1422035391    2.9266437186
 H   -3.4703108157   -0.2368167127    0.5159536696
 H   -2.2726670437    0.7874183970    1.3210228048
 H   -1.6885743177   -0.9577568808   -1.0746001692