18

 O   -0.0468565535    1.4127014349    0.1687766603
 C    0.0143455810    0.0235839495    0.0334279851
 C   -1.3343315128   -0.7111907779    0.0698516672
 N   -2.0932920114   -0.0938131589   -1.0494125087
 C   -1.1494426739   -1.2106169239   -1.3183835052
 C    0.2452017460   -0.5901322508   -1.4193648762
 C    0.5320623107    0.3629867800   -2.5842481760
 C    1.8858223425    0.9031703266   -2.5521920066
 C    3.0135280546    1.3174817538   -2.5185180360
 H   -0.8504949544    1.6827218968   -0.2969277193
 H    0.7465827197   -0.3462927987    0.7530209309
 H   -1.8514617323   -1.1498229543    0.9142789027
 H   -3.0361425159   -0.4779644950   -1.0334612444
 H   -1.5040163715   -2.1297756466   -1.7688780492
 H    1.0158761340   -1.3639852533   -1.3684023665
 H    0.3767679375   -0.1740836637   -3.5297292043
 H   -0.1985581130    1.1782104317   -2.5725883886
 H    4.0020680127    1.7030293298   -2.4875416653