20

 C   -0.7781707650    1.1843534982    0.3141363963
 C   -0.1858628050   -0.2060261700    0.1871618312
 C   -1.1851468475   -1.2683707199   -0.2312878995
 N    1.1677762919   -0.2574593826   -0.3966237893
 C    0.9820012748   -0.6527626763    1.0050572444
 C    1.6663262991    0.2066132287    2.0669350230
 N    1.0441336831    0.1723652183    3.3952894171
 C    3.0747228569   -0.2071482600    2.1881958116
 N    4.1672291443   -0.5737015557    2.2691178370
 H   -0.0167831535    1.9345566560    0.5346768529
 H   -1.2561603525    1.4739125409   -0.6280837209
 H   -1.5452810754    1.2177555695    1.0963462439
 H   -1.6042478878   -1.0345203680   -1.2168387190
 H   -0.7198512207   -2.2577633190   -0.2857361331
 H   -2.0206732148   -1.3278072870    0.4748987395
 H    1.2863990796   -1.0741783008   -0.9905693567
 H    1.0177388797   -1.7168113117    1.2406537187
 H    1.6706690997    1.2455387670    1.7222169565
 H    0.0727619885    0.4563770194    3.3068922693
 H    1.0397815046   -0.7798898372    3.7506094269