17

 C    0.0389253654    1.4794675782    0.2391604979
 O    1.3328728192    2.0163382047    0.0092423917
 C    1.8401435537    2.0025796659   -1.2881657873
 C    1.0730403720    1.5208040341   -2.5592088976
 O    2.3908341654    1.4432058390   -3.2187423344
 C    2.5885714816    0.7820670822   -1.9131356117
 C    1.2432421394    0.0230183820   -2.1409740150
 C    0.4713677198   -0.6269749661   -1.0380540193
 C   -0.0744435747   -0.0052718565    0.0051246522
 H   -0.1820643369    1.7138576177    1.2841714740
 H   -0.7037568115    2.0178827089   -0.3732125945
 H    2.3819335754    2.9361137399   -1.4560122829
 H    0.2649678099    1.9901432426   -3.1219334984
 H    3.5765269086    0.3776071494   -1.6919064814
 H    1.3111494149   -0.6190785303   -3.0222130631
 H    0.3542283522   -1.7042445129   -1.1255800826
 H   -0.6381362447   -0.5752290687    0.7389828525