25

 C    0.1653583147    1.3679016669    0.5040522323
 C   -0.0932323407    0.1711839593   -0.4295093310
 C   -1.4325139475   -0.3919409405   -0.2826550269
 C   -2.5426111765   -0.8400299521   -0.1405734889
 C   -3.8968240565   -1.3891688754    0.0169240608
 C   -3.7894576230   -2.9028899265    0.3144526748
 C   -4.5876563613   -0.6773614571    1.2033421743
 C   -4.6678479592   -1.1343032617   -1.3131938072
 C   -6.1156818194   -1.6338482786   -1.3641532190
 H    1.1783857210    1.7554640085    0.3588961005
 H   -0.5446253515    2.1754808553    0.3055317580
 H    0.0553350874    1.0739008763    1.5514939741
 H    0.0605970079    0.4819749043   -1.4711791005
 H    0.6547214581   -0.6091490717   -0.2371761167
 H   -3.1813734995   -3.0743633339    1.2070884949
 H   -4.7775563318   -3.3390000917    0.4897821210
 H   -3.3202303256   -3.4326155714   -0.5199332770
 H   -4.6929627082    0.3940519386    1.0084135804
 H   -5.5821272766   -1.0955573584    1.3859881309
 H   -3.9979057594   -0.7973522528    2.1164556994
 H   -4.6497344156   -0.0557491687   -1.5081933492
 H   -4.0958280165   -1.5985975764   -2.1248852890
 H   -6.5559504083   -1.4021528670   -2.3392091093
 H   -6.1834037253   -2.7172548673   -1.2265078630
 H   -6.7429921068   -1.1591508680   -0.6035799437