19

 C   -0.1660224845    1.6369271671    0.0176656662
 C   -0.0057919538    0.1265606746    0.0373773808
 C   -1.3248884098   -0.5666486070   -0.2396697186
 O   -2.3570537479    0.0242033359   -0.4463214302
 C    1.1554163879   -0.6056607595   -0.7257963023
 C    2.4421844756    0.1030595319   -0.2566017428
 C    2.1278733290    0.0896969632    1.2725494586
 C    0.7628758658   -0.6224157722    1.1842789672
 O    1.0507188423   -1.6960527999    0.2385536548
 H    0.7683611449    2.1637024167    0.2142707378
 H   -0.5494038514    1.9628978446   -0.9533276389
 H   -0.9023302951    1.9478861664    0.7641347221
 H   -1.2806956588   -1.6727910104   -0.2404574357
 H    1.0690697796   -0.9197776541   -1.7665256714
 H    3.3188072540   -0.4957258713   -0.5110847037
 H    2.5691417162    1.1028068499   -0.6774358345
 H    2.8351967902   -0.5161732875    1.8421008047
 H    2.0750113742    1.0818183540    1.7260077754
 H    0.2741118616   -0.9537124523    2.1011137804