18

 C    0.3151587087    1.5566283834   -0.2313213021
 C    0.0783634668    0.0633471499   -0.0741341490
 N    0.9910213486   -0.8027811856   -0.9083747937
 C    1.3374758439   -1.6341626342    0.2743303709
 C    2.6089941576   -1.1195401322    0.9673860663
 O    1.8434768001   -0.1266588743    1.7031513411
 C    0.5985692892   -0.6451462955    1.2043172061
 C   -1.3619240772   -0.3062812939   -0.3706705800
 O   -2.1419678175   -0.7829850552    0.4138892982
 H    1.3574669479    1.7803141739    0.0045785388
 H    0.1103572422    1.8756353124   -1.2586697181
 H   -0.3289231305    2.1289759256    0.4449163673
 H    0.5186555893   -1.3079984986   -1.6531677984
 H    1.1570961513   -2.7064213022    0.2022132086
 H    3.0815501177   -1.8335540922    1.6534803677
 H    3.3583873316   -0.6710514344    0.3078668394
 H   -0.1274500044   -0.8758408346    1.9833758080
 H   -1.6512095855   -0.1287072522   -1.4357115512