23

 C   -0.0484641158    1.5667862023   -0.0539353172
 C   -0.0287495678    0.0406188121    0.0675004049
 C   -1.4267394626   -0.5804068107   -0.0162170001
 C   -1.4073148153   -2.0979751288    0.1063854325
 O   -2.7394193116   -2.5676874264    0.0068332156
 C   -2.8691174464   -3.9843501955   -0.0010604768
 C   -2.8114997401   -4.5768260287    1.4168514119
 C   -4.1341063751   -4.3183455274   -0.6581397280
 C   -5.1717627408   -4.6252748414   -1.1794493727
 H    0.9609515448    1.9851561453    0.0072397733
 H   -0.4830954498    1.8813993630   -1.0090755226
 H   -0.6463724883    2.0189598122    0.7449514712
 H    0.6061983929   -0.3805356184   -0.7232892012
 H    0.4419046908   -0.2442259318    1.0178997377
 H   -2.0671377556   -0.1740896467    0.7762181017
 H   -1.9026071468   -0.3140081355   -0.9676873715
 H   -0.7894587453   -2.5403364711   -0.6942294532
 H   -0.9511180062   -2.3923609344    1.0656056637
 H   -2.0485352209   -4.4171369612   -0.5985825573
 H   -2.9330410578   -5.6628960161    1.3800693668
 H   -1.8507833531   -4.3544350770    1.8891137263
 H   -3.6131103285   -4.1538199120    2.0271241125
 H   -6.0874975707   -4.8863188620   -1.6495251475