17

 C   -0.0183059081    1.5582761154    0.0122045371
 O    1.3591249143    1.9662851296    0.0192706293
 C    2.0981716081    0.9204795709    0.5955433252
 C    2.6766622346   -0.2385602434   -0.3080305737
 O    2.1494921787   -1.1971241443    0.6745356804
 C    1.1720906619   -0.2144661955    1.0431152952
 C    0.0308475178    0.0161620912   -0.0121547899
 C    0.5367197671   -0.3985276525   -1.3784063901
 C    1.8574763429   -0.4252748960   -1.5607236763
 H   -0.5269481721    1.9305048355    0.9156018159
 H   -0.5023491730    1.9935691920   -0.8660780410
 H    2.8173962922    1.3042971895    1.3210605148
 H    3.7561893727   -0.3332886077   -0.4333038360
 H    0.8154136311   -0.3327583615    2.0684328640
 H   -0.9253381128   -0.4406700004    0.2528407985
 H   -0.1773893953   -0.5962438174   -2.1716405139
 H    2.3293980102   -0.6470779853   -2.5109221196