18

 C   -0.0010218028    1.5181245214    0.0240073432
 C    0.0043499903   -0.0203000880   -0.0080358484
 C    0.8145869082   -0.6010511017   -1.2151445458
 C    1.3919553324   -1.9512180690   -0.7365955610
 C    1.5465003727   -1.7664254811    0.7586027991
 O    2.1372472877   -0.5031245128    1.1227743235
 C    0.7204707061   -0.6413775095    1.2019661921
 C   -1.3724251165   -0.5338521420   -0.0260481673
 N   -2.4530696924   -0.9450302940   -0.0306604363
 H    1.0270593313    1.8724379579    0.1339028251
 H   -0.4194057451    1.9264401198   -0.8998459831
 H   -0.5939379748    1.8949302238    0.8618565801
 H    0.1976741796   -0.6932418463   -2.1104002697
 H    1.6260997842    0.0951968680   -1.4340954446
 H    0.6918734212   -2.7745327951   -0.9197154866
 H    2.3334628947   -2.1987218585   -1.2352946493
 H    1.7979018065   -2.5986840631    1.4097763991
 H    0.2789360065   -0.5584143297    2.1915126698