25

 C    0.0992017211    1.5218376289    0.2730139298
 C   -0.1212272948    0.0465937344   -0.0831732861
 C    0.6862340512   -0.4513281262   -1.2790836829
 C    2.2488909739   -0.4192200837   -1.1977278514
 C    2.2290903036   -1.7138413166   -2.0619068128
 C    0.8261977493   -1.9923980618   -1.4622629920
 C    2.0858087605   -1.3794458713   -3.5557883300
 C    1.2702462993   -0.0794931313   -3.7440437316
 C    0.2175127475    0.1345311745   -2.6309930403
 H    1.1563998412    1.7242040385    0.4762515972
 H   -0.2169666405    2.1918591204   -0.5325519171
 H   -0.4688031953    1.7956303611    1.1676100940
 H    0.1382842993   -0.5691860811    0.7881707367
 H   -1.1895427173   -0.1306581840   -0.2716062108
 H    2.7835236436    0.4574903114   -1.5743133562
 H    2.5882333411   -0.6280923299   -0.1785506142
 H    3.0115588322   -2.4565673987   -1.8873824597
 H    0.8868213225   -2.5061142039   -0.4974317568
 H    0.0912308542   -2.5008944077   -2.0960408080
 H    3.0704617254   -1.2625502361   -4.0234670369
 H    1.6004174655   -2.2241821123   -4.0607328437
 H    1.9643883469    0.7673480687   -3.7256078266
 H    0.7981977821   -0.0537342110   -4.7313182728
 H   -0.7349040813   -0.3423116751   -2.8973501142
 H    0.0095197988    1.2065776128   -2.5408904337