16

 C   -0.0324927521    1.4267686762    0.0720218013
 C    1.4111637411    1.9623591889    0.0152497855
 O    2.1916227382    1.5147331404    1.1234175634
 C    2.0001163740    0.1807433924    1.3465733274
 C    0.9613755732   -0.5526963718    0.8117071300
 N    1.1157007177   -1.8171632356    1.2856905483
 N    2.2046804955   -1.9467228036    2.0776569517
 C    2.7418576888   -0.7272260641    2.1265653286
 N   -0.0974373264   -0.0450042200    0.0456679649
 H   -0.5027677430    1.7749838601    0.9984037077
 H   -0.6082768283    1.8244609742   -0.7675565921
 H    1.8861978827    1.6379140914   -0.9230604137
 H    1.4216100938    3.0545207695    0.0547552616
 H    0.5330879212   -2.6175547935    1.1115473827
 H    3.6341600936   -0.5480091520    2.7065518796
 H   -0.0975875399   -0.3990434925   -0.9057649267