21

 C   -1.5245769708    2.7534195458    1.0647882735
 C   -0.9316929095    1.4787348336    0.4452803912
 C    0.1973851787    0.8849241590    1.3162861270
 C    1.4050854159    1.7921040587    1.3851073411
 O    1.9289818194    2.1765306228    2.3978693577
 C   -2.0209467010    0.4450636902    0.2423371177
 O   -2.9922857059    0.7063176515   -0.7742916322
 C   -2.1497824447   -0.4444034350   -0.9260550582
 C   -1.2181843612   -0.4724155529   -2.1110705522
 H   -0.7633178383    3.5290569139    1.1934959542
 H   -2.3175301483    3.1506419804    0.4258549970
 H   -1.9543095108    2.5445398792    2.0511627043
 H   -0.5134258921    1.7355159066   -0.5347493135
 H   -0.1453669635    0.6799427091    2.3355125185
 H    0.5324905030   -0.0640105617    0.8725320678
 H    1.8016411481    2.0942955032    0.3859112791
 H   -2.4594811874    0.0888006755    1.1795018174
 H   -2.6766492337   -1.3861963658   -0.7554881571
 H   -0.7130881622    0.4838357457   -2.2592498740
 H   -0.4619691242   -1.2551375749   -1.9852453032
 H   -1.7809203914   -0.6980886348   -3.0228404961