23

 O    0.1563287092    1.3858737927    0.1450516532
 C    0.1174633436   -0.0326543235    0.0928476775
 C   -1.3420015704   -0.4746358147   -0.0443191156
 C   -1.4076345377   -2.0060677001   -0.2151703516
 C   -2.7414714167   -2.5523333618   -0.7425549015
 C   -3.9385406257   -2.4324646969    0.2090887047
 C   -4.3959847316   -0.9923580554    0.5032749441
 C   -3.4518405603   -0.1715912152    1.3504948927
 C   -2.1587506748    0.0506350128    1.1174234760
 H    1.0620718517    1.6564490903    0.3199443350
 H    0.6971013932   -0.4117789872   -0.7631360213
 H    0.5484445589   -0.4755339229    1.0065096415
 H   -1.7179393073   -0.0153843935   -0.9722446921
 H   -0.6191495616   -2.3071884348   -0.9178220420
 H   -1.1677496543   -2.4844779430    0.7435655603
 H   -2.9835029331   -2.0484008367   -1.6894058186
 H   -2.6029164175   -3.6114857503   -0.9924679758
 H   -4.7826441513   -2.9775101796   -0.2314889272
 H   -3.7050821640   -2.9350181375    1.1566808236
 H   -4.5735144615   -0.4790936313   -0.4545787646
 H   -5.3709592421   -1.0316560027    1.0006890099
 H   -3.8912179275    0.2977622812    2.2283985640
 H   -1.6188811892    0.7000741202    1.8016756577