17

 C   -0.0205288703    1.4797547530   -0.1720456371
 C    1.5322042610    1.5957563211    0.0776658364
 C    1.9532740408    2.2965015534    1.3943750369
 C    1.1980762330    1.4360364637    2.4153008361
 C    0.9403979905    0.2317481883    1.8907734931
 C   -0.3798392568   -0.4193355575    1.4965368341
 N   -0.0412613589   -0.0212762968    0.0679662291
 C    1.4228895165    0.1122444684    0.4586232930
 H   -0.6536270854    2.0578116766    0.5091370883
 H   -0.3236298271    1.6903304425   -1.1998988779
 H    2.1112080716    1.8757110250   -0.8049116724
 H    3.0456434194    2.3151994817    1.5166170099
 H    1.6145161404    3.3379143739    1.4414384900
 H    0.6939243115    1.8647965429    3.2745777559
 H   -0.4260559451   -1.5111992147    1.5389408735
 H   -1.2956500591    0.0082694088    1.9153009580
 H    2.1177282480   -0.6680056703    0.1422766930