19

 C   -0.0984962996    1.5470758516   -0.0230705779
 C    0.0622449968    0.0468729031    0.0197481730
 O    0.6846434914   -0.4165143049   -1.1966478406
 C    1.3762822055   -1.5793489279   -0.7680335213
 C    2.9157366262   -1.8758117688   -0.7858059519
 C    3.1488111255   -0.4972078464   -0.1336312239
 C    1.8903142334   -1.1123470607    0.5649416481
 C    2.6707590298   -2.4536129525    0.6775917789
 O    0.8870417423   -0.3592041746    1.1630609847
 H    0.8773051093    2.0285143630   -0.1206659319
 H   -0.7238263175    1.8286073223   -0.8747445153
 H   -0.5773390523    1.8944150548    0.8958951877
 H   -0.9050581191   -0.4627289189    0.1438669586
 H    0.7251458101   -2.4610777859   -0.7954899208
 H    3.5044716383   -2.3560377245   -1.5642101725
 H    4.0471060975   -0.3940349012    0.4785223728
 H    2.9721256830    0.3741948452   -0.7622492537
 H    2.0806652061   -3.3698322791    0.7551520749
 H    3.5511453032   -2.4748982248    1.3221120913