13

 O    0.1050897330    1.3527276454    0.1175779054
 C    0.0695684342    0.0063204081    0.0372233359
 C    0.0724080249   -0.6893634860   -1.1719628238
 C    0.0332862431   -2.0839839214   -1.1269053454
 N   -0.0069746154   -2.8045463861    0.0005302676
 C   -0.0087153706   -2.1132362241    1.1424561402
 C    0.0278875696   -0.7269923985    1.2238082258
 C    0.0356752238   -2.8171963321   -2.3682479526
 N    0.0389260490   -3.3700519562   -3.3840217186
 H    0.1316644515    1.7341702216   -0.7674884311
 H    0.1038992082   -0.1727502731   -2.1253306846
 H   -0.0415027299   -2.7048828127    2.0534130864
 H    0.0246522187   -0.2143573450    2.1779278748