18

 C   -0.0669151182   -1.2325457276    0.0293969806
 C   -0.0524320807   -0.0309047847   -0.0008890537
 C   -0.0030655585    1.4268321590   -0.0398047162
 C    1.4298838614    1.9850556770   -0.0070173023
 C    1.5026243169    3.5303709932   -0.0509670300
 C    2.6813415765    3.8719875558    0.8978354672
 O    3.2467787825    2.6348504079    1.3174396951
 C    2.2122298029    1.6694284720    1.2771930456
 H   -0.0911473662   -2.2936609842    0.0569483372
 H   -0.5132313792    1.7827196480   -0.9439043439
 H   -0.5684809996    1.8357649373    0.8089628560
 H    1.9859506354    1.5699958158   -0.8536948500
 H    1.6654763587    3.9006191883   -1.0657686321
 H    0.5703931493    3.9751621712    0.3124539593
 H    3.4737684685    4.4510424805    0.4152690305
 H    2.3258202587    4.4441124893    1.7682938578
 H    1.5515098971    1.7545499311    2.1592147103
 H    2.6693985845    0.6779229098    1.2856192186