21

 C   -0.1259664748    1.6602274461    0.0269974877
 C    0.0776017539    0.1493100461    0.0438540780
 C    1.0386344025   -0.5871923068   -0.9460249182
 C    2.3704577820    0.1629068747   -1.1101787247
 C    2.9455824399    0.5174279655    0.2880787488
 C    2.3559744450   -0.4820646637    1.2741386373
 O    2.5433220863   -1.8097646849    0.6835589642
 C    1.2120485738   -1.7040132057    0.1668771043
 C    0.7905154291   -0.6229463765    1.1770295647
 H    0.8072937260    2.2255037535    0.0673503435
 H   -0.6560000549    1.9674523066   -0.8817081239
 H   -0.7372763903    1.9725247352    0.8814064679
 H   -0.9113311006   -0.3196961947   -0.0467928005
 H    0.6222047541   -0.8936932010   -1.9082970065
 H    3.0752755980   -0.4826105431   -1.6411500466
 H    2.2330999370    1.0599025353   -1.7225921898
 H    4.0367778003    0.4290860289    0.2913825774
 H    2.7081127225    1.5413216694    0.5917528736
 H    2.7831615458   -0.4279571777    2.2787859148
 H    0.7210046526   -2.6657435445    0.0069780429
 H    0.2845061917   -0.8324834527    2.1206309250