18

 C    0.0400707303    1.5496112688    0.4799736066
 C   -0.0070904195    0.0844546394    0.0961301613
 C   -1.3799398833   -0.4140370367   -0.3639145315
 C   -1.8436723633    0.2219864611   -1.5891353678
 C   -2.2110194711    0.7585683644   -2.6080302668
 C   -2.6297559777    1.3608169453   -3.7591390434
 N   -2.9857526646    1.8737720402   -4.7390639958
 C    1.2048909077   -0.5386852142   -0.5496514854
 C    0.8377804296   -0.8957597236    0.8724563554
 H    1.0456197787    1.8350633935    0.8017048900
 H   -0.2366258085    2.1905311814   -0.3638754985
 H   -0.6485614325    1.7657704589    1.3054786157
 H   -1.3475855103   -1.4989733754   -0.5239187137
 H   -2.1232732633   -0.2416763873    0.4268828343
 H    1.0517572575   -1.2877519970   -1.3193541969
 H    2.0723778548    0.0910822402   -0.7136473208
 H    1.4536267932   -0.5048330704    1.6751394222
 H    0.4404313924   -1.8872566587    1.0638906552