22

 O   -0.1693281905    1.5006413728    0.1344762610
 C    0.0020479251    0.0884287265    0.0036978023
 C    0.8157626994   -0.4698754171    1.1838666717
 C    1.5206915313   -1.8226583372    0.9583621988
 C    0.7455704517   -2.8979401660    0.1684778672
 C   -0.7727169921   -2.9582855336    0.4081915351
 C   -1.5654766384   -1.9492970211   -0.4395764311
 C   -1.4225758659   -0.4720254389   -0.0550325463
 H    0.7016967206    1.8959927157    0.2389289378
 H    0.5251435298   -0.1346993705   -0.9430537450
 H    1.5856850311    0.2663597930    1.4510639749
 H    0.1503413206   -0.5264690346    2.0539187459
 H    2.4747246611   -1.6488576618    0.4455783231
 H    1.7854652404   -2.2236402343    1.9441399340
 H    0.9107299711   -2.7514753177   -0.9068559487
 H    1.1926121092   -3.8710305028    0.4023864136
 H   -1.1258724538   -3.9641109648    0.1518926426
 H   -0.9994021767   -2.8223131997    1.4744416245
 H   -1.2715193019   -2.0815421802   -1.4903146965
 H   -2.6313765666   -2.2028038203   -0.3936882824
 H   -1.8827870375   -0.2958546952    0.9261558415
 H   -1.9843483981    0.1384035279   -0.7705468543