21

 C   -0.1248638325    1.5624182921   -0.0649969792
 C    0.0021913365    0.0365524803   -0.0136581799
 C    0.7532827978   -0.4729188318    1.2268415796
 C   -0.0054200038   -0.1420991027    2.5046288569
 O    0.5143893665    0.0557540887    3.5743186827
 C    0.9810666687   -1.9909950567    1.1595269668
 C    1.6738118383   -2.7082695442    2.3387014481
 C    0.3858784789   -3.5538937893    2.3934836822
 O   -0.2409174651   -2.7428469071    1.3715598573
 H    0.8609235101    2.0401514700   -0.0769488150
 H   -0.6632323849    1.8825548260   -0.9619117593
 H   -0.6680390420    1.9541618004    0.8021925397
 H   -0.9915786734   -0.4278763232   -0.0362124718
 H    0.5240024275   -0.3190116845   -0.9098469324
 H    1.7419923452   -0.0010135046    1.3008476921
 H   -1.1124578585   -0.1193667981    2.3958262174
 H    1.4189794695   -2.2346794298    0.1803815968
 H    2.5940827749   -3.2400618228    2.0944104627
 H    1.8342419965   -2.0724998388    3.2097401210
 H    0.4968020806   -4.5956839690    2.0683408886
 H   -0.1773288707   -3.5300079949    3.3325944957