20

 C   -1.2075076483    1.2830842209    0.6771299263
 C   -0.3706642387    0.0986686901    0.2404875906
 C    0.9592088746    0.2692565772   -0.4546510709
 C    0.9007706163   -0.3675999889    0.9165721796
 C    1.5756877735    0.2279182229    2.1512275873
 C    0.8446730879   -0.1640789995    3.4408521230
 O    2.8919273060   -0.3109504121    2.2721056769
 C    1.6975145055    1.7061870134    2.0776799820
 N    1.8395015549    2.8519070363    2.0172413304
 H   -0.5999390433    2.1263316198    1.0096400990
 H   -1.8256159009    1.6308058361   -0.1576063554
 H   -1.8849838603    1.0096014796    1.4938240773
 H   -0.9709360317   -0.7292604163   -0.1296458149
 H    1.2002440654   -0.3541995764   -1.3086119253
 H    1.3495363888    1.2810587842   -0.5147761182
 H    1.0331672277   -1.4461261138    0.9461305397
 H    0.7677260404   -1.2534142052    3.4833895526
 H    1.4054119076    0.1831895048    4.3113656390
 H   -0.1580380142    0.2671123542    3.4627051094
 H    3.3465690987   -0.1636681772    1.4340519116