17

 C   -0.0186365223    1.5710045315    0.2508238762
 C    0.0602564723    0.0575009560    0.0281259648
 O    0.7298706466   -0.6171365285    1.0790587047
 C   -1.3132801714   -0.5296777069   -0.1584324408
 O   -2.0663060487   -0.8228422116    1.0521086468
 C   -1.8702265384   -1.8794735031    0.1083776620
 C   -2.9979800102   -1.7331062373   -0.9227705717
 C   -2.3945376805   -0.3255296003   -1.2240389430
 O   -2.5879266627    0.5039891966   -2.0609027556
 H    0.9865401149    1.9783677237    0.3825485140
 H   -0.4959456645    2.0601314236   -0.6040721747
 H   -0.6070945074    1.7961558487    1.1467650003
 H    0.6454251921   -0.1444720356   -0.8770503429
 H    0.1244785393   -0.6148942291    1.8316726627
 H   -1.3392566398   -2.7634328014    0.4363063243
 H   -2.9119229588   -2.3817078776   -1.7999202309
 H   -4.0129284505   -1.7726685587   -0.5234480263