22

 C    0.1176503059    1.4828850251   -0.1088565214
 C    0.0080549345   -0.0259973241    0.1045232280
 O    0.5597818196   -0.4125356545    1.3681916342
 C   -1.4204162903   -0.5440083661   -0.0208666163
 C   -2.1498691731   -0.5204239840   -1.4158378602
 C   -2.3169523850   -2.0381293552   -1.3006770525
 N   -0.9350805243   -2.5812063134   -1.2109399608
 C   -1.6108892852   -2.0744168403    0.0112345946
 C   -1.7768698898   -2.9208614784    1.2337989497
 H    1.1548683664    1.8086712360    0.0093282118
 H   -0.2244876167    1.7699520571   -1.1082686028
 H   -0.4967904894    2.0268128283    0.6210049173
 H    0.6232021271   -0.5497513743   -0.6338071868
 H    0.0938628885    0.0838472905    2.0506646292
 H   -2.0512313519   -0.0663988115    0.7405970449
 H   -3.0894565893    0.0353124750   -1.3910024138
 H   -1.5524371228   -0.1912525406   -2.2706846384
 H   -3.1258778204   -2.6521496905   -1.6791555778
 H   -1.0131146458   -3.5981434538   -1.1861559330
 H   -0.8350222494   -2.9745238091    1.7897937855
 H   -2.5368315049   -2.5009168888    1.9025906529
 H   -2.0856035834   -3.9401773872    0.9751498556