22

 C    0.1184989039    1.6168657799    0.0496474111
 C   -0.0203822046    0.0878921653   -0.0034545816
 C    0.5812209387   -0.4621679798   -1.3114299842
 C    0.0953048249   -1.8507467730   -1.7677543572
 C   -0.0009757414   -2.9510264853   -0.6850590252
 C    0.9137351845   -2.7964214156    0.5345481839
 O    0.4001767069   -1.8813734182    1.4875054086
 C    0.6538627771   -0.5153476542    1.2424357493
 H    1.1719975692    1.9188070644    0.0029860254
 H   -0.3952745014    2.0865005688   -0.7947441664
 H   -0.3044333139    2.0289125438    0.9717830456
 H   -1.0886348407   -0.1652667032    0.0408308458
 H    0.3744437658    0.2434865903   -2.1254263581
 H    1.6748588942   -0.4685468835   -1.2048261093
 H   -0.8898806606   -1.7452218262   -2.2375664085
 H    0.7661101755   -2.1865153997   -2.5676629307
 H   -1.0216670329   -3.0035925098   -0.2897766759
 H    0.1960463959   -3.9251032778   -1.1490540428
 H    0.9744925722   -3.7555915381    1.0603334044
 H    1.9398805587   -2.5184627770    0.2422916993
 H    1.7426137337   -0.3351271774    1.1746350299
 H    0.2931472842    0.0020132164    2.1382208564