17

 N   -0.1609698337    1.4928308887   -0.0039727576
 C   -0.0458988980    0.0332213958   -0.0206740276
 C    0.5437268839   -0.4639596146    1.3338588968
 O   -0.5690295040   -0.7524836772    2.1502789791
 C   -1.4885828710   -1.4199007908    1.2989011664
 C   -1.5123353393   -0.5965028709   -0.0021835353
 O   -2.5042093162    0.3946490955   -0.0200565501
 C    0.7386847844   -0.4619784354   -1.1615729331
 N    1.3666057619   -0.8220076331   -2.0641183251
 H    0.7603425368    1.9162262082    0.0487310347
 H   -0.5983978079    1.8172542081   -0.8616175885
 H    1.1602403972   -1.3608058799    1.1707696655
 H    1.1458075898    0.3049561112    1.8230251965
 H   -1.1541927466   -2.4512543382    1.0988935741
 H   -2.4669943135   -1.4412171232    1.7811694809
 H   -1.6834939253   -1.2239172513   -0.8791393528
 H   -2.2205409285    1.0835405871    0.5971447661