14

 O   -0.0211192006    0.0281280792    0.1344633156
 C    0.0000668077    1.2188023820    0.0185010634
 N   -1.0042478814    2.1795191519   -0.0405547502
 C   -0.1163929048    3.3315183149   -0.0657406575
 C    0.4391260855    3.7766559867    1.3255813137
 O    1.4907416732    2.7706044410    1.2519696857
 C    1.0772826236    2.3439598933   -0.0631670213
 C    0.9638439624    5.1276040634    1.3835210248
 C    1.3780730507    6.2555867342    1.4018745182
 H   -1.9760536404    2.1125228257    0.2309706707
 H   -0.3199594368    4.0956864831   -0.8125510124
 H   -0.2395394271    3.5809829682    2.1639967637
 H    1.8899993435    2.2853618798   -0.7862437195
 H    1.7496223345    7.2504674765    1.4340502150