18

 N    0.1430008371   -1.1677166939    0.0790275207
 C    0.0588069322   -0.0151831547    0.0527571441
 C   -0.0242165647    1.4466225806    0.0402088364
 C   -0.8225119444    1.9452223787    1.2696718927
 C   -1.3809341621    3.3689220402    1.1110333038
 O   -0.5846632649    4.2602145472    0.3420567830
 C    0.7965957421    4.2571333078    0.5665381817
 O    1.4803893574    3.3926909744   -0.3049762886
 C    1.4200014028    2.0224473446    0.0082141643
 H   -0.5288747622    1.7517155332   -0.8840039055
 H   -1.6652855823    1.2754008834    1.4662333538
 H   -0.1700279751    1.8759114897    2.1467235765
 H   -2.3386868828    3.3362005904    0.5830370712
 H   -1.5715114304    3.7903338185    2.1093270911
 H    1.1565920433    5.2587541740    0.3214646312
 H    1.0335048004    4.0200742212    1.6180600952
 H    1.8958786399    1.8174647591    0.9807419896
 H    2.0001059740    1.5139645757   -0.7653158611