21

 C    0.1581140705    1.5258682363   -0.0050216370
 O    1.1830949857    0.5449580924   -0.1674708600
 C   -0.1623731071    0.0925422123    0.0218611150
 C   -0.4617435390   -0.6442793860    1.2934379903
 C   -1.9612983623   -0.9173993900    1.6327752579
 C   -1.5642764672   -2.3485868313    2.0181514994
 C   -1.7869981422   -2.9776269753    3.3630292948
 C   -2.4261199725   -3.5676455694    2.1237433721
 C   -0.2041354731   -2.1837940067    1.3280237035
 H    0.1902863532    2.0850297554    0.9297163020
 H   -0.0698889217    2.1181836109   -0.8904305400
 H   -0.6091584127   -0.3386673086   -0.8777583139
 H    0.0474604467   -0.1470382384    2.1235563478
 H   -2.4145923212   -0.2914978166    2.4062217493
 H   -2.5967592727   -0.8831915148    0.7400258873
 H   -0.9634970820   -3.5180766240    3.8197171207
 H   -2.4286276887   -2.4623082498    4.0713454142
 H   -3.4981936669   -3.4509484114    1.9975544214
 H   -2.0342052595   -4.5064758438    1.7446070897
 H   -0.1866216540   -2.6172660718    0.3214744312
 H    0.6829963165   -2.5231322294    1.8687106742