18

 C   -0.0703317171    1.5229133763   -0.1135750027
 C   -0.0111480166    0.0231414454    0.0419389469
 N    1.2954781830   -0.6176160707   -0.1389167135
 C    0.6656386156   -0.6392247820    1.2019071246
 C    1.3421455632    0.0716772062    2.3660825522
 C    1.1207365411   -0.8649805541    3.5696082847
 O    1.4792161313   -0.6578526545    4.7049056237
 C    0.3805708335   -2.0469360752    3.0652826388
 C    0.1341120418   -1.9083087018    1.7543287946
 H    0.8394548801    1.9904047890    0.2697878043
 H   -0.1668984021    1.7928081154   -1.1704593964
 H   -0.9314325401    1.9373593016    0.4213440139
 H   -0.8776677503   -0.5066914709   -0.3548158069
 H    1.1990182761   -1.5248758471   -0.5907211666
 H    2.4119862615    0.2080260210    2.1879095863
 H    0.9182900303    1.0551774417    2.5889496264
 H    0.0986049533   -2.8751195453    3.7019900757
 H   -0.3882116046   -2.6241853149    1.1259887840