17

 O   -0.0535996083    1.4340928989   -0.0136403461
 C    0.0114562220    0.0154284462    0.0035149088
 C   -1.4170540749   -0.5207591191    0.0515546302
 C   -1.4145401530   -2.0492921654   -0.0958205019
 C   -0.6041547140   -2.4627859077   -1.3261970917
 O    0.7146125131   -1.9375681075   -1.2878247184
 C    0.7198871953   -0.5231096927   -1.2483718943
 H    0.8440357991    1.7773324680    0.0430010839
 H    0.5592419680   -0.3427393201    0.8904126289
 H   -1.9032096341   -0.2079613539    0.9808977542
 H   -1.9776049738   -0.0623331193   -0.7738457910
 H   -0.9675791179   -2.5110034941    0.7930758959
 H   -2.4380088129   -2.4317999891   -0.1797139339
 H   -0.4950938349   -3.5494835941   -1.3856089295
 H   -1.1162398473   -2.1220607126   -2.2431861960
 H    0.2250395596   -0.0983276685   -2.1387892533
 H    1.7718741041   -0.2160150392   -1.2660195258