9

 C   -0.0119327974    1.5143319798    0.0103169960
 C    1.3029911772    0.7788656204   -0.0061784231
 C    0.0086717414    0.0076704221    0.0020103247
 H   -0.3054146435    2.0170211723    0.9253323893
 H   -0.3227549828    2.0268015645   -0.8934783865
 H    1.8849339609    0.7914501983   -0.9211939346
 H    1.9022663059    0.7816539079    0.8976637317
 H   -0.2708804319   -0.5128912474    0.9113747374
 H   -0.2882198296   -0.5031040880   -0.9074082449