17

 C   -0.2357202333    1.4709536810   -0.2861546957
 C    0.0264722314   -0.0169951871   -0.0610938534
 C   -1.3224531408   -0.6200729118    0.2949655200
 O   -2.0706192217   -1.1291313830   -0.4997722621
 C    0.9978955086   -0.8514225842   -0.9412789915
 C    2.1230554491   -0.0951316487   -0.2038581831
 N    1.1462199210   -0.4045910722    0.9512251259
 C    1.0681764345   -1.7946878378    0.2810810285
 H    0.6632163001    2.0424744986   -0.5188692364
 H   -0.9412138916    1.5932703850   -1.1140754195
 H   -0.6873882633    1.9131435600    0.6089271402
 H   -1.6015503883   -0.4988604230    1.3680784422
 H    0.9068710015   -1.1014590787   -2.0024052559
 H    3.0794511310   -0.6110093493   -0.0888538582
 H    2.2845908124    0.9643380645   -0.3971629383
 H    0.1850562025   -2.3784676878    0.5492042633
 H    1.9786507968   -2.3822809854    0.4178632541