19

 C   -0.0265700895    1.6518162158    0.2040560754
 C    1.4306061419    1.1812510554    0.0494711237
 O    1.1024791764    0.0104062632    0.9290878472
 C   -0.0028566319    0.1197211059   -0.0495559460
 C   -1.1446829905   -0.8149743578   -0.3173190520
 O   -1.6746661698   -0.4084008690   -1.5822853842
 C   -0.7414698077   -0.4136602854   -2.6617258343
 C    0.3910994491    0.6294951719   -2.5024489045
 C    1.0402240396    0.2898527927   -1.1677152510
 H   -0.3076192486    1.9387474854    1.2178979645
 H   -0.4553936778    2.3076560400   -0.5541106943
 H    2.3609397581    1.7050234271    0.2710938925
 H   -0.7898883471   -1.8575465786   -0.3477259621
 H   -1.9680301394   -0.7395422024    0.3978684022
 H   -0.2985292799   -1.4181336569   -2.7680190931
 H   -1.3375665007   -0.2120017280   -3.5558246881
 H    1.0877708439    0.5481533040   -3.3439885328
 H   -0.0357313340    1.6360132395   -2.5258989215
 H    1.6928513881   -0.5852150727   -1.2412077117