12

 N   -0.2915933760    1.3669645539   -0.1205345101
 C   -0.0354252521    0.1430396056    0.1083319200
 C   -1.1570139914   -0.8343260638   -0.0298333940
 N   -1.3845859911   -1.8155259674    0.7468273937
 C   -0.6396892941   -2.0523555544    1.8943237098
 O   -1.0863603942   -2.2109481699    2.9825622836
 O    0.7421961546   -2.2808356439    1.6959328350
 C    1.5158132927   -1.4395384565    0.9784954705
 N    1.2447224266   -0.3667227909    0.3587647380
 H    0.5555149168    1.9292261773   -0.0007337026
 H   -1.8309929240   -0.6792279483   -0.8726310961
 H    2.5453374922   -1.7883727618    1.0201695722