21

 O    0.1719212032    1.3476978568    0.2066525172
 C    0.0613713769   -0.0385015937   -0.0976954380
 C   -1.3597042233   -0.5115095611   -0.1270418804
 C   -2.0887788844   -0.9671049371    1.1151551646
 C   -1.9206271401   -1.9358270213   -0.0260922487
 C   -2.9204479178   -1.6145654000   -1.1198865649
 C   -3.2908401923   -2.5074879961   -2.2628626192
 C   -4.3358678361   -2.0993625915   -1.2438667967
 C   -2.3779244541   -0.1732401699   -1.2329361240
 H   -0.3047414804    1.4944984390    1.0306366500
 H    0.5265890340   -0.1547920802   -1.0832475604
 H    0.6405038829   -0.6532857870    0.6116068374
 H   -1.4581179593   -1.1578103215    1.9793778881
 H   -3.0748235892   -0.5768784416    1.3564613135
 H   -1.3824273446   -2.8707305225    0.0856947717
 H   -3.3463547874   -2.0741151281   -3.2567736403
 H   -2.9381549376   -3.5341981589   -2.2456336882
 H   -4.6869983646   -2.8499304714   -0.5428483636
 H   -5.0946914978   -1.3875928517   -1.5533353448
 H   -3.0756796467    0.6417831002   -1.0136144088
 H   -1.8986591814    0.0223293275   -2.1967198946