21

 C    0.0740528636    1.6208820233    0.1309090219
 C    0.0704696489    0.1037375097    0.0278603588
 C    1.0891492965   -0.5816723933   -0.9309039442
 C    1.3077189096   -1.6748419947    0.1394346989
 C    0.6821423476   -0.7258676952    1.1937848059
 C    0.5870292164   -3.0127049559   -0.0853395154
 O    1.3662592953   -3.9303131425    0.6661263993
 C    2.6867608747   -3.4912214667    0.4783118870
 O    2.6512887432   -2.0788674789    0.3826708095
 H    1.0806061889    1.9949746885    0.3497832196
 H   -0.2586981191    2.0853759671   -0.8041104110
 H   -0.5912017723    1.9673419399    0.9296604580
 H   -0.9431487520   -0.2498892754   -0.1925020136
 H    0.7449455780   -0.8993274122   -1.9197879796
 H    1.9964099432    0.0187656985   -1.0455350820
 H    1.4731954144   -0.1695021248    1.7054989357
 H    0.0116807175   -1.1618584677    1.9394830495
 H   -0.4380248201   -3.0383865002    0.2895579627
 H    0.5884893081   -3.2795106814   -1.1551630220
 H    3.2864244629   -3.7980603736    1.3417970851
 H    3.1159878147   -3.9135265247   -0.4484678641