19

 C    0.0842129357    1.5303749079    0.0221822521
 C    0.0486497298    0.0752330814    0.0430906607
 C    0.0134855887   -1.1267837494    0.0592757424
 C   -0.0240356449   -2.5908522925    0.0801285055
 C   -1.3782542915   -3.1487734051    0.0282220628
 C   -2.4914450035   -3.6039203948   -0.0293016843
 C   -3.8425801347   -4.1751174416   -0.0438086966
 C   -3.8066563381   -5.7088809869    0.0263332064
 O   -4.6607474865   -3.6246069119    0.9871050635
 H    0.6551174843    1.9030711780   -0.8353599968
 H   -0.9261230816    1.9484070670   -0.0453470147
 H    0.5488294802    1.9313064967    0.9297102569
 H    0.5577097531   -2.9860058707   -0.7647920323
 H    0.4865553196   -2.9593990860    0.9811162410
 H   -4.3428790841   -3.8791846681   -0.9740584669
 H   -3.3086817987   -6.0381311375    0.9440622812
 H   -4.8287266952   -6.0965154057    0.0219948615
 H   -3.2609742377   -6.1258033170   -0.8252603675
 H   -4.1668338048   -3.6930264440    1.8116491951