20

 C   -0.1918975552    1.5858689598   -0.0346176334
 C    0.0144932012    0.0821227198    0.0188776862
 C    1.2529696235   -0.5874181334   -0.6048382702
 C    2.1712686300   -0.1018591986    0.5833041281
 C    3.1979117417   -1.2017263494    0.8065467484
 C    2.9108982103   -2.1806203815    1.9280022335
 C    2.3030704098   -2.3911553840    0.5678402816
 N    0.9733106017   -1.8202898155    0.2771676450
 C    0.8079146241   -0.5810637831    1.1672760600
 H    0.7182385813    2.1500528605    0.1859022792
 H   -0.5378450405    1.8902089750   -1.0284691648
 H   -0.9579488562    1.8952012640    0.6849102394
 H   -0.9084685564   -0.4591878859   -0.2075279764
 H    1.5232748668   -0.7002349717   -1.6578054456
 H    2.4920814502    0.9365934376    0.6761894511
 H    4.1970550560   -1.1060362807    0.3984977667
 H    3.7164659263   -2.8572021903    2.1967369672
 H    2.2943259107   -1.8838324056    2.7687514501
 H    2.5749927367   -3.2504742772   -0.0328746910
 H    0.5090498481   -0.6714155697    2.2133532150