19

 C   -0.0174425756    1.4271657178    0.2938109155
 N   -0.0100488624    0.0080452528    0.0499863703
 C   -1.2140057267   -0.7728695466   -0.1411332250
 C   -0.6450737541   -2.1718924893   -0.4466675835
 C   -0.3110997069   -2.6072825825   -1.8996132828
 C    1.1615883595   -2.7588169230   -1.4226431631
 N    0.8076339473   -2.0885406285   -0.1354386630
 C    1.1548742108   -0.7242304639   -0.0440702047
 O    2.2819781416   -0.2776533128   -0.0624381934
 H    1.0217717118    1.7522052656    0.3710822921
 H   -0.5013432164    1.9703296877   -0.5286718957
 H   -0.5453399168    1.6749836092    1.2243400835
 H   -1.8411929728   -0.7760765413    0.7615640109
 H   -1.8271466369   -0.3803839227   -0.9658931811
 H   -1.1497395375   -2.9512146242    0.1301906397
 H   -0.8109343605   -3.5045298463   -2.2696237631
 H   -0.4426639710   -1.7993999660   -2.6248434949
 H    1.4748128827   -3.7932872184   -1.2592332373
 H    1.9370545637   -2.2320069476   -1.9829213143