18

 O   -0.7599311899    1.3083476123    0.7018619394
 C   -0.0996915082    0.1508823566    0.1996150071
 C    0.6414675752   -0.6317778801    1.2874016317
 O   -0.3299664586   -1.4424711152    1.9378383535
 C   -1.5057007158   -1.5561954683    1.1369169431
 C   -2.6941814250   -0.9060963589    1.8783168263
 C   -2.9527729440   -1.5234319066    3.1760189698
 N   -3.1707016707   -2.0178950355    4.1973110497
 C   -1.1849463077   -0.8529055030   -0.1972540174
 H   -0.1027174785    1.8833297370    1.1069214702
 H    0.5605710517    0.4118759600   -0.6380157765
 H    1.4279230395   -1.2588304604    0.8397914356
 H    1.1114674641    0.0220885736    2.0315541444
 H   -1.7194468832   -2.6212116157    0.9910263257
 H   -2.4808352565    0.1583321668    2.0109923008
 H   -3.5995120321   -0.9916402352    1.2659751985
 H   -2.0459606890   -0.3562122306   -0.6484582519
 H   -0.7822279412   -1.5704521769   -0.9170487599