18

 O   -0.1365331451    0.0467803113    0.2999194709
 C    0.0124849310    1.1593421313   -0.1420548750
 C    1.2647571789    1.9544956316    0.0105089784
 C    1.1367437102    3.4275517627    0.2557285561
 N    1.4585480570    2.9493056341   -1.0737943276
 C    2.8357150648    3.1717592287   -1.5604043477
 C    3.8424279197    2.1429156729   -1.0415794799
 O    3.6684661329    1.9217890751    0.3476206954
 C    2.4648547274    1.2157995167    0.5827456930
 H   -0.7864101743    1.6868735416   -0.7081030392
 H    0.1572340635    3.8862107597    0.3716165298
 H    1.9330347720    3.8665022145    0.8537934814
 H    2.8157311323    3.1440728841   -2.6559095664
 H    3.1478307304    4.1789516697   -1.2645452144
 H    3.7346405767    1.1905809120   -1.5855515503
 H    4.8651235597    2.5016179843   -1.1875392390
 H    2.3662451823    1.0977352214    1.6649319504
 H    2.5133279207    0.2096991383    0.1394883039