22

 C    0.0316049361    1.5299300695   -0.1525193328
 C    0.1698620218    0.0079695724   -0.0653934657
 C    0.5025178885   -0.4862643556    1.3493993547
 C    0.6395460844   -1.9922856192    1.4245828374
 C    1.9532521771   -2.6902948538    1.1027753617
 C    1.3861165432   -2.7190494807    2.5047828871
 C    2.0848076388   -2.0048791065    3.6398930229
 O    0.7455320232   -3.9091571415    2.9031150230
 H    0.9619208783    2.0300646105    0.1397257817
 H   -0.2129654245    1.8518955891   -1.1696367975
 H   -0.7602559044    1.8948866431    0.5113170673
 H   -0.7618141773   -0.4656008202   -0.4016639712
 H    0.9498149780   -0.3347735475   -0.7570503531
 H    1.4299507830   -0.0055310477    1.6854934955
 H   -0.2819881279   -0.1510478919    2.0422183807
 H   -0.2423249966   -2.5364846555    1.0947731446
 H    1.9147462756   -3.6093999496    0.5286067134
 H    2.8241536997   -2.0688262698    0.9141758422
 H    2.5531207790   -1.0734411459    3.3126778108
 H    1.3770694453   -1.7748977425    4.4429955688
 H    2.8758861073   -2.6386683366    4.0603842215
 H    1.4301130513   -4.5352253403    3.1653858171