18

 C    0.0438313744    1.5025696513   -0.0881999794
 N   -0.0414701374    0.0593659837    0.0557647828
 C   -1.4161002858   -0.4741741296    0.2287135667
 C   -1.2050325500   -1.3759718137    1.4327269978
 O   -2.2773350706   -2.1326993340    1.8444088613
 C   -0.2732683294   -0.6346795785    2.4570170791
 O    0.3631961866   -1.9124003751    2.8191517281
 C    0.2459377517   -1.9733031028    1.3535828862
 C    0.6537943464   -0.4928595002    1.2007080545
 H    1.0936699794    1.7994187402   -0.1778715015
 H   -0.4693916524    1.8115520633   -1.0040738321
 H   -0.3999375100    2.0637026263    0.7550054394
 H   -2.1458827439    0.3174028799    0.4456685981
 H   -1.7593695411   -1.0231538136   -0.6550353482
 H   -1.9651905735   -2.6452046837    2.6036826563
 H   -0.5216364636    0.0537974352    3.2650922032
 H    0.6168450709   -2.8600909260    0.8400009175
 H    1.6940285482   -0.1987640925    1.3243540502