15

 N    0.0387246209   -1.1100736503   -0.0128998506
 C   -0.0013911436    0.0459692455    0.0021223654
 C   -0.0694638971    1.4809323624    0.0275371599
 C   -1.0947536555    2.2663104628    0.8967657998
 C   -0.8345610287    3.4212786324   -0.0990544072
 C    0.6823999745    3.7005341347   -0.0739049530
 C    1.2339071321    2.3213614226    0.0057050477
 N    0.9973167101    2.9456187327   -1.3365346748
 C   -0.4241032932    2.3985962702   -1.2064085091
 H   -2.1000629729    1.8497061055    0.7902136371
 H   -0.8528810704    2.4152828003    1.9517119754
 H   -1.5287621509    4.2435641668   -0.2484095022
 H    1.2188628341    4.5973239786    0.2086746429
 H    2.2195646306    2.0403924581    0.3526372199
 H   -0.9952690600    2.0914583879   -2.0783171912