23

 C   -0.0200141843    1.1952269921    0.1346991945
 C   -0.3637702620   -0.1947769733   -0.4062183984
 C    0.7024567572   -0.7281001006   -1.3519198951
 O    0.3062056442   -2.0142004303   -1.8069601103
 C    1.2009581017   -2.6015673886   -2.7042678072
 C    2.3963232852   -3.3623551230   -2.1854455446
 C    1.1911827907   -4.0982648756   -2.7454690884
 C    0.2493178443   -4.8244554747   -1.8026432690
 O   -1.1107868200   -4.6203140001   -2.1449224832
 H    0.9229508898    1.1852792410    0.6922329632
 H    0.0818941433    1.9254585197   -0.6756397519
 H   -0.8004599719    1.5566617315    0.8100984032
 H   -0.4842343410   -0.9050601184    0.4199650245
 H   -1.3215212486   -0.1689691286   -0.9387890364
 H    0.8291630608   -0.0501564494   -2.2121851564
 H    1.6773373126   -0.7946000707   -0.8443199150
 H    1.3124045487   -2.0528022748   -3.6402491352
 H    3.3181711318   -3.3394652337   -2.7561728262
 H    2.5294474811   -3.3975770380   -1.1088559881
 H    1.2911228307   -4.5470700154   -3.7291469882
 H    0.4223220968   -5.9044866381   -1.8548237460
 H    0.4488086702   -4.5099433330   -0.7681146540
 H   -1.2573671813   -3.6704151078   -2.0603512019