19

 C    0.3381562519    1.5212866484    0.1152523907
 C   -0.0380011531    0.0360809884    0.0587899111
 C    0.6547623446   -0.7224433237   -1.1027576049
 O    1.8690196246   -1.2653266984   -0.5410100926
 C    1.7182297379   -1.2701102874    0.7943548733
 N    2.5473408873   -1.6171717140    1.6901724090
 C    1.8305406216   -1.3397140613    2.9532031754
 C    0.6086599603   -0.4343072859    2.5779147205
 N    0.4710702980   -0.7726344030    1.1622149539
 H    1.4246331577    1.6529689649    0.1511197811
 H   -0.0410505695    2.0376535324   -0.7722844883
 H   -0.0958697166    2.0094100820    0.9926649485
 H   -1.1256798212   -0.0637133871   -0.0246536652
 H    0.0368576004   -1.5491315212   -1.4687867550
 H    0.9287616929   -0.0748492874   -1.9380100380
 H    1.4885717970   -2.2817651000    3.4018549696
 H    2.4920762268   -0.8554419965    3.6767535288
 H   -0.2943825934   -0.6697886131    3.1472545446
 H    0.8423103229    0.6306602829    2.7199434876