21

 C   -1.1405035952   -0.3142193140   -0.5268397707
 O    0.1631272485   -0.0155813234   -0.0700552282
 C    0.4708442628   -0.5160032234    1.2037932648
 C    1.8734707491   -1.0276550653    1.3299882958
 C    0.7101311030   -2.0027306985    1.3392436784
 C    0.3287469085   -2.7312795464    2.6154921385
 C    0.0789558051   -1.8100179690    3.7791400643
 C   -0.1250519790   -0.4983266079    3.6669067093
 C   -0.1426469978    0.2532073608    2.3628064656
 H   -1.9208038042    0.1561281527    0.0883717809
 H   -1.2174304457    0.0806919835   -1.5427979036
 H   -1.3267100108   -1.3975611760   -0.5493393836
 H    2.4830898887   -0.9884809463    0.4349414346
 H    2.4007128280   -0.8463472107    2.2611314220
 H    0.5919540622   -2.5775939875    0.4255833879
 H   -0.5768357035   -3.3301801972    2.4362705035
 H    1.1079690147   -3.4600743317    2.8808517484
 H    0.0536015589   -2.2711474505    4.7634737469
 H   -0.3138842877    0.0913640239    4.5607414998
 H    0.3700598533    1.2184797673    2.4723257640
 H   -1.1845249991    0.5052631296    2.1173614714