21

 C    0.7092030770   -0.0722815373    1.5331390579
 C    0.1484407571    0.0404306608    0.1100777153
 C   -1.2338074976   -0.5917404645   -0.0192899493
 C   -2.0281931176   -0.6297512708   -1.3609650202
 C   -1.0895326945   -1.4014856098   -2.3086289576
 C   -1.1663304873   -2.6975980885   -1.4779295587
 O   -2.5797284455   -3.0352777453   -1.6396035961
 C   -2.7936856908   -1.9178486656   -0.7734110832
 C   -1.4588372275   -2.1173714182   -0.0302217873
 H    1.6983897519    0.3894469233    1.6091116254
 H    0.0536124322    0.4230723966    2.2580373321
 H    0.8065702013   -1.1196673151    1.8388265711
 H    0.0867772837    1.0991623811   -0.1752147796
 H    0.8534506501   -0.4234308973   -0.5881488437
 H   -1.8861549560   -0.1736745490    0.7599560891
 H   -2.5521294312    0.2469259197   -1.7384108678
 H   -1.5068567950   -1.5718431991   -3.3029951343
 H   -0.0964098462   -0.9592384554   -2.4013359611
 H   -0.4909166667   -3.5283981344   -1.6756369312
 H   -3.7880368245   -1.8283008938   -0.3393217179
 H   -1.3353880129   -2.7826648974    0.8226599670