21

 C   -0.1052463570    1.6241968731    0.0328993178
 C    0.0551249784    0.1084842994    0.0352318037
 C    1.1000693843   -0.5844557568   -0.8827192443
 O    1.1968341548   -0.6744716372   -2.0766943683
 C    1.7695030892   -1.2903550899    0.2560549080
 C    2.3882883181   -2.6578509612    0.2061238076
 C    2.1596936161   -0.2361416540    1.2911069427
 C    0.7239500564   -0.6293220998    1.2169705026
 C   -0.0277139738   -1.2683857125    2.3485224785
 H    0.8248131289    2.1359790095    0.2973854360
 H   -0.4013821002    1.9675811124   -0.9631851814
 H   -0.8769479449    1.9437783356    0.7411843878
 H   -0.9097891180   -0.3635444607   -0.1967204684
 H    3.3663490200   -2.6272614086   -0.2861378146
 H    2.5374674412   -3.0615223108    1.2130215272
 H    1.7590227253   -3.3574230236   -0.3530943812
 H    2.7192338596   -0.6486038600    2.1266285979
 H    2.5031280598    0.7478172206    0.9846967836
 H   -0.4250558552   -0.5116028798    3.0353592675
 H   -0.8747241912   -1.8587863799    1.9816062252
 H    0.6190420582   -1.9312000258    2.9328382024