18

 O   -0.0690690880    1.3899348547    0.0387764135
 C    0.0289982278   -0.0190346573   -0.0109661296
 C   -1.3976180901   -0.6208480172   -0.1034741580
 C   -1.2861980881   -0.4333871216   -1.6471692715
 C    0.2514168992   -0.6079676321   -1.4461196218
 C    0.5497568253   -2.0823838321   -1.2865338662
 C   -0.2234759394   -2.7966185247   -0.4666264435
 C   -1.3589965263   -2.1142351152    0.2645637561
 H    0.8055541674    1.7539315986   -0.1324715145
 H    0.6911377705   -0.4050596623    0.7762826083
 H   -2.1826659268   -0.0805572754    0.4297962094
 H   -1.7892495685   -1.1568702529   -2.2926213248
 H   -1.5445405789    0.5852803437   -1.9373773413
 H    0.9410850364   -0.0893223268   -2.1157435103
 H    1.3788066142   -2.5266554589   -1.8287112478
 H   -0.0683144000   -3.8604818406   -0.3116090090
 H   -1.2374585551   -2.2333189920    1.3506380007
 H   -2.3171446199   -2.5934101978    0.0175735904