23

 C    0.1461866197    1.6074765439    0.0249419094
 C   -0.0175089639    0.0832089806   -0.0333973054
 C    0.6146302295   -0.5094249862   -1.3037486096
 O    0.0309114119   -1.7486035174   -1.6738167751
 C    0.4959350807   -2.8820098750   -0.9738140268
 C    0.2565383250   -2.8433663484    0.5407455552
 C    0.6117298946   -4.1763231150    1.1922489612
 O    1.0925315076   -1.8485309552    1.1259125439
 C    0.5414656410   -0.5530521410    1.2621685606
 H    1.2045361786    1.8916185439   -0.0135299785
 H   -0.3651095811    2.0950666564   -0.8107782738
 H   -0.2695956872    2.0143471360    0.9529152432
 H   -1.0875665059   -0.1450353286   -0.1096136019
 H    0.4222443785    0.1629586667   -2.1470077015
 H    1.7051740962   -0.6079764155   -1.1905700920
 H   -0.0314334200   -3.7351082398   -1.4145189675
 H    1.5777097666   -3.0236677426   -1.1357950624
 H   -0.8018051278   -2.6081814122    0.7314827685
 H    1.6623924574   -4.4223683390    1.0072768366
 H    0.4641307475   -4.1174070177    2.2733889138
 H   -0.0095289181   -4.9860082548    0.7977145625
 H    1.3716712341    0.0558502537    1.6380868884
 H   -0.2421698947   -0.5476247529    2.0377590613