19

 C   -0.0190300524    1.4494863946    0.0622583545
 C   -0.0232932762   -0.0393377789    0.0208230595
 C   -0.0083004586   -0.9003125620   -1.0063009513
 C    0.0237290523   -2.2653555280   -0.3136313602
 O    0.0364392226   -3.4619914267   -1.0309107478
 C   -1.0350896891   -2.0675699006    0.8090099185
 C   -0.0094685712   -0.9672932795    1.2451414530
 C    1.1140209509   -1.9701938182    0.7853408518
 O    1.3645824094   -3.0364243227    1.6639159604
 H    0.8569476485    1.8307092899    0.6024661116
 H   -0.0100637939    1.8775285464   -0.9442423098
 H   -0.9004798582    1.8365398254    0.5892723611
 H    0.0087597941   -0.7156245592   -2.0725243616
 H    0.6551464731   -3.3735001561   -1.7643868137
 H   -2.0294332418   -1.7392499015    0.5007930613
 H   -1.0796676911   -2.9043973437    1.5075512840
 H   -0.0116505651   -0.5305940528    2.2421079066
 H    2.0473651033   -1.5079420539    0.4356000853
 H    1.2993714633   -3.8473530627    1.1443086267