15

 O   -0.1058579282    1.4240114266   -0.0526777823
 C    0.0281377644    0.0613119116   -0.0172633678
 C   -1.0196417121   -1.0109283684    0.0499040113
 N   -0.4728552314   -1.6945929094   -1.1094846907
 C    0.7871810326   -0.8693067942   -1.0193251750
 C    1.7744301702   -1.6803344011   -0.1724110312
 O    2.7422667524   -2.3113421692   -0.5355453443
 N    1.2425058653   -1.6499480622    1.1068736100
 C    0.0617235231   -0.8445416307    1.1751819632
 H    0.6505074940    1.8232870855    0.3929366102
 H   -2.0824467995   -0.9715298160    0.2585048423
 H   -0.3194108470   -2.6964263245   -0.9900189008
 H    1.1645304059   -0.4986751905   -1.9698835712
 H    1.4696609699   -2.3748382956    1.7695002564
 H   -0.2555042697   -0.4767415518    2.1429979398