18

 C   -0.2170223510    1.6278057503   -0.0321852145
 C    0.0596657666    0.1266497266    0.0166640409
 O   -1.0755198269   -0.6257630316   -0.3836885691
 C    1.3198871289   -0.6446437081   -0.3475464620
 C    2.6817496152   -0.1327120070    0.1888681915
 C    2.6341053354    1.1475456664    0.9726067937
 C    2.1200809771   -0.1239125061    1.6042334944
 C    0.7657911065   -0.6686501428    1.0780433602
 H    0.3455798029    2.1342581565   -0.8225393185
 H   -1.2838437915    1.7614195172   -0.2316447769
 H   -0.0036673469    2.1236051317    0.9169581851
 H   -1.1815789521   -0.5026334591   -1.3337233409
 H    1.2510342544   -1.4360338581   -1.0840352388
 H    3.6170014223   -0.5554821158   -0.1563499880
 H    3.6043522138    1.4434893922    1.3638892120
 H    2.0132732791    1.9894370171    0.7042795080
 H    2.5728906196   -0.5215453238    2.5035892452
 H    0.2439506566   -1.4821950356    1.5656355177