17

 O   -0.2453948519    1.2300843515    1.0050964614
 C   -0.0140621281    0.2900888639   -0.0081022937
 C    0.4955513177    0.9924820364   -1.2909852225
 C   -0.0799303172    0.4793912379   -2.6299896075
 O    0.2880647701    1.3495768236   -3.6617704877
 C    0.3523008402   -0.9348346689   -2.9649981993
 O    0.9690448515   -1.1895988379   -3.9708804748
 C    0.9632550893   -0.7622439617    0.4865808101
 O    1.3946509870   -0.7464412572    1.6128338738
 H    0.2340650643    0.9047738474    1.7837975854
 H   -0.9527688882   -0.2473932003   -0.2489478056
 H    0.1846022181    2.0359463637   -1.2044456580
 H    1.5900431191    0.9942081227   -1.3452285483
 H   -1.1815499881    0.4446836194   -2.5266312807
 H    0.7431425419    0.8030614309   -4.3218486011
 H    0.0607242485   -1.7318375903   -2.2504741668
 H    1.2657387957   -1.5469801912   -0.2366659250