12

 C   -0.1492666798    1.5777937667    0.1064757110
 N    0.0389065281    0.1441178966    0.1430056619
 C   -0.9549545783   -0.5766114038   -0.1398303562
 N   -0.9461859816   -1.9737637141   -0.1527061070
 C    0.0914857332   -2.8490422168    0.1251111605
 O    1.2146070147   -2.5616963299    0.4382244030
 H    0.5561515998    2.0193030284   -0.6065267105
 H   -1.1701033986    1.8896639940   -0.1723422302
 H    0.0873951927    2.0010036107    1.0892049983
 H   -1.9466872711   -0.1814503745   -0.4097860459
 H   -1.8220471849   -2.4088252187   -0.3985951772
 H   -0.2635967241   -3.8952480885    0.0162829223