16

 C    0.7393497850    1.5122358972   -0.0852939895
 C   -0.0616829078    0.2173249444   -0.0606735471
 C    0.2329659529   -0.7792353478   -1.2149082079
 C    1.0114511065   -1.6411690160   -0.1536661060
 N    0.3976198010   -0.8177879574    0.9096657124
 C    0.6491065908   -3.0652568334   -0.0889846048
 N    0.3338629719   -4.1756750227   -0.0577878459
 C    2.4731457642   -1.5072835913   -0.2699127124
 N    3.6159608506   -1.3461897749   -0.3336164025
 H    1.8046123510    1.3263473809   -0.2558266345
 H    0.3743710048    2.1708231577   -0.8805079676
 H    0.6316995490    2.0481242874    0.8639167408
 H   -1.1244408896    0.4399174616    0.0763253553
 H   -0.6428142735   -1.3044400187   -1.5935653501
 H    0.8393752513   -0.4132801132   -2.0421422456
 H    1.0295541917   -0.5172141339    1.6445785255