17

 C    0.0240753016    1.5760622603    0.3006285473
 C   -0.0111615783    0.0781084488    0.0749104149
 C   -1.3548517730   -0.4653141675   -0.4137740341
 C   -1.7535294958    0.0546334667   -1.7194637385
 C   -2.0674944928    0.4924106572   -2.7942196153
 C    1.2351040104   -0.6059963047   -0.4266838543
 C    0.7833170237   -0.8085090908    1.0023076776
 H    1.0149819448    1.8996752883    0.6331570110
 H   -0.2182317750    2.1163167478   -0.6203618196
 H   -0.7003978484    1.8779933546    1.0667749906
 H   -1.3086939327   -1.5604662321   -0.4618947238
 H   -2.1340634724   -0.2263460276    0.3234506977
 H   -2.3510459847    0.8721059616   -3.7442390990
 H    1.1239499869   -1.4330644619   -1.1200258611
 H    2.1151557999    0.0029094897   -0.6039499070
 H    1.3552663138   -0.3338679365    1.7927397577
 H    0.3711653719   -1.7745852437    1.2758274159