18

 N    0.0475425595    1.3405321373   -0.0873904792
 C   -0.0270445190   -0.0161579562   -0.0335176108
 C   -1.1377910453   -0.7963610036   -0.0195219199
 C   -0.7678370745   -2.2053263097   -0.0127408338
 O   -1.4927658301   -3.1834209078    0.0025339347
 C    0.7469545351   -2.2643872609   -0.0229201331
 C    1.4126182488   -3.3921186803    0.7321094156
 C    1.4023943170   -3.4056978871   -0.7662843129
 C    1.2513138262   -0.8301609654   -0.0401622791
 H    0.9166807916    1.7899552960    0.1479720533
 H   -0.7823626701    1.8834194827    0.0871943877
 H   -2.1636289300   -0.4520722193   -0.0129575328
 H    2.3458494674   -3.1762901408    1.2421308380
 H    0.7459248075   -4.0775950545    1.2443556266
 H    0.7287215098   -4.1001007541   -1.2568923682
 H    2.3283055354   -3.1991327043   -1.2930752116
 H    1.8480054919   -0.5935031198   -0.9302102668
 H    1.8682027789   -0.5816164022    0.8338841523