20

 C    0.1179622263    1.4876711978    0.1417761472
 N   -0.0039840468    0.0466484544    0.1506811161
 C   -1.2584065475   -0.5540860484    0.6504892916
 C   -0.4068021999   -1.7180353014    1.2340723288
 O   -0.2957251851   -2.8295199515    0.3680485569
 C    0.7803219355   -0.7220468932    1.1414161501
 C   -0.8056464188   -2.2699846902    2.5768398553
 C    0.1574965647   -2.4842872200    3.6607523441
 O   -0.7432748393   -1.3709047029    3.6816025339
 H    1.1296749003    1.7728855717   -0.1658537647
 H   -0.5851890182    1.9157192997   -0.5806190772
 H   -0.0827489985    1.9439303787    1.1293834214
 H   -1.7404128559    0.0368536841    1.4454464304
 H   -1.9965894945   -0.8135266154   -0.1166051838
 H   -0.0925809464   -2.4832637510   -0.5086122553
 H    1.7335571363   -1.1212024364    0.7781784132
 H    0.9323811432   -0.1816040925    2.0884927365
 H   -1.6967968506   -2.8982428584    2.5467982637
 H   -0.0330595681   -3.2521598853    4.4081493581
 H    1.2051264333   -2.2314672699    3.5070961037