17

 C   -0.1011678531    1.5423762761    0.0517311069
 C   -0.0419756693    0.0260971539    0.0216756242
 C   -1.3395472125   -0.6338073414   -0.4021265698
 N    1.2237713578   -0.5488548183   -0.4032661347
 C    0.8503576591   -0.7153225930    1.0264446088
 C    1.7169509840    0.0451014678    1.9962845428
 O    1.7614782679   -0.1835830918    3.1741707940
 C    0.4063949815   -2.0063922916    1.4947143812
 N    0.0634633221   -3.0545943635    1.8423317348
 H    0.8778043714    1.9883498307    0.2285624634
 H   -0.4640631910    1.9083341547   -0.9145499886
 H   -0.7949466863    1.8882295904    0.8239491304
 H   -1.5810493442   -0.3287433346   -1.4262483072
 H   -1.2818866258   -1.7236050829   -0.3672719938
 H   -2.1646753349   -0.3174240188    0.2430456668
 H    1.0913236029   -1.4293120475   -0.8971864168
 H    2.3221539204    0.8376339599    1.5129358275