18

 C   -0.0293468545    1.5046903198    0.0019166935
 O    1.1552137695    0.6870941409   -0.0118438688
 C   -0.1097156554    0.0449903815    0.0038115312
 C   -0.4518607534   -0.9527312446    1.1148384812
 C   -1.9778663781   -1.1503781637    1.2589511943
 N   -2.0549991671   -2.0095053509    0.0285614974
 C   -2.0075505517   -1.1519547857   -1.2044282927
 C   -0.4785205481   -0.9541398707   -1.0973766125
 C   -0.5290861843   -2.0613908247    0.0102064268
 H   -0.1975058581    2.0611014347    0.9233496159
 H   -0.2196794193    2.0599493436   -0.9158895320
 H    0.1911293687   -0.9600543898    1.9950874346
 H   -2.2342135138   -1.7523603043    2.1362093562
 H   -2.6176616533   -0.2608202588    1.2450689815
 H   -2.2849448382   -1.7550583714   -2.0744835648
 H   -2.6468451975   -0.2623746845   -1.1762732808
 H    0.1430791483   -0.9625894737   -1.9928489811
 H   -0.0142019036   -3.0200731176    0.0046086702