15

 C    0.3350392834    0.5184895089   -0.8645182702
 C   -0.0202869742    0.1480675720    0.5823021188
 O   -0.2939067101    1.2993555422    1.3733519074
 C   -1.1260861317   -0.8179553908    0.6319226312
 C   -2.0600169803   -1.5757040554    0.6586762763
 C   -3.1850318970   -2.5062555130    0.7059161493
 C   -4.2375413103   -2.1870563772   -0.2685263354
 N   -5.0703932996   -1.9427672290   -1.0298068594
 H    1.1576714111    1.2379630930   -0.8608630069
 H    0.6349647012   -0.3668749746   -1.4323501361
 H   -0.5265848484    0.9685347123   -1.3680780227
 H    0.8587161088   -0.3051495211    1.0562094714
 H   -1.1116971260    1.6901118947    1.0448387652
 H   -2.8417583276   -3.5315026181    0.5164061806
 H   -3.6355232293   -2.5156214238    1.7068117907