17

 O   -0.6363645907    0.6135592352    0.6065951971
 C    0.1649771798    0.9148924402   -0.2388040852
 C    1.2467587190    1.9677286776   -0.0722343948
 C    1.2281773396    2.9745478198   -1.1805138117
 C    0.1616456627    4.0359421681   -1.6110308955
 C    0.6260461767    3.9177639514   -3.0551848729
 C    1.2703169825    4.9388050045   -2.1293935755
 C    2.3340355145    3.8829700763   -1.7054911378
 C    1.6900049313    2.8615758417   -2.6335490308
 H    0.1608449191    0.4254161604   -1.2400740694
 H    1.1310046101    2.4327411239    0.9128026504
 H    2.2157796718    1.4461813568   -0.0878790959
 H   -0.8126187428    4.2916210920   -1.2162791712
 H    0.0707791239    4.0674952892   -3.9709545438
 H    1.3024263689    6.0171682587   -2.2034920758
 H    3.3616845531    3.9642948511   -1.3762216156
 H    2.1394099706    2.0246827131   -3.1520191717