19

 C    0.0732644767    1.5434745698   -0.3231845887
 C   -0.0804451381    0.0958156320    0.0726774607
 N    1.0904418382   -0.7966907570   -0.0382389529
 C    0.5013373942   -0.5473659297    1.2838334997
 C    1.3665731168    0.0922362749    2.3476433305
 C    2.3664185270   -0.8614379430    3.0499144191
 O    3.4786656366   -0.0130419993    2.6411817719
 C    2.6365479240    0.8594809286    1.9901391723
 N    2.8990537565    1.9267469997    1.3883959033
 H    1.0266884217    1.9559608121    0.0100275656
 H    0.0114791534    1.6398091653   -1.4128965465
 H   -0.7390653050    2.1394454143    0.1086031546
 H   -1.0330706530   -0.3416227107   -0.2298048966
 H    0.8209257805   -1.7105440819   -0.3904808922
 H   -0.1098460977   -1.3441744196    1.7122178328
 H    0.7440535959    0.6513653171    3.0532211665
 H    2.3041827940   -0.9296375791    4.1386743091
 H    2.4522121591   -1.8562112454    2.6051747758
 H    3.9022666291    2.1169413120    1.3895949049