21

 C    0.2885689330    0.8700964333    1.3745752733
 C    0.6204322758   -0.3326405294    0.5178585440
 C    0.0567553189   -0.4733212667   -0.8676314966
 N    1.4922499223   -0.2817644206   -0.6518401195
 C    2.0832981696    0.9771250910   -1.0811266641
 C   -0.4129614281   -1.7601553343   -1.4458605700
 C    0.3338695194   -3.0322317323   -1.1638230575
 N   -1.4683505853   -1.6685575394   -2.1660346354
 O   -1.8843750901   -2.9209918227   -2.6474123028
 H    0.0499724563    1.7559054291    0.7818551739
 H   -0.5810402452    0.6478971568    2.0014879412
 H    1.1216710850    1.1196471898    2.0413766962
 H    0.7606581279   -1.2486154921    1.0919445446
 H   -0.5128154922    0.3843575960   -1.2244359244
 H    1.4174150621    1.8489650440   -0.9996555574
 H    2.9825279863    1.1745441722   -0.4884036193
 H    2.3833914498    0.8814315938   -2.1291814730
 H    1.3571944425   -2.8034299939   -0.8613468991
 H   -0.1565267971   -3.6013655483   -0.3652824524
 H    0.3402490397   -3.6689907744   -2.0507744031
 H   -2.6429515107   -2.6837789820   -3.1908216488