15

 C    0.0177856165    1.5498242693    0.1516631901
 C    0.0961768002    0.0588023155   -0.0588853536
 O    1.1293795638   -0.5555400256   -0.1664371345
 C   -1.2558913875   -0.6855781168   -0.0736876907
 O   -2.2236080869    0.1284318153   -0.6685465371
 C   -1.1428419287   -2.1796608825   -0.4464933003
 O   -1.3419896450   -2.5510537900    0.9644493260
 C   -1.5739582227   -1.2634880362    1.3365627397
 O   -1.9387434309   -0.8356413996    2.3836255414
 H    1.0242398884    1.9558663512    0.2527782604
 H   -0.5024839368    2.0197225197   -0.6878121952
 H   -0.5755366097    1.7656765924    1.0470661685
 H   -3.0962852768   -0.1111541069   -0.3383231913
 H   -1.9615436743   -2.5551976543   -1.0624037453
 H   -0.1661344497   -2.5068710917   -0.7978258081