18

 O    0.0365979091   -0.0818701665   -0.0010159413
 C   -0.0271853100    1.1204635820    0.0570446161
 C   -1.3519510214    1.8820446326    0.1495093592
 N   -1.2420437490    3.0715915840    1.0118766909
 C    0.0007602159    3.8367680035    0.8628830453
 C    0.3883796846    4.1523934691   -0.5944948050
 O    1.0193584443    2.9589278499   -1.0836354503
 C    1.1938950264    2.0429767897    0.0090668222
 C    1.1699493807    2.9226721395    1.2636420916
 H   -1.6326583745    2.1202735467   -0.8923880396
 H   -2.1109088796    1.2024533077    0.5450287151
 H   -2.0414247895    3.6751929798    0.8556382802
 H   -0.0762793997    4.7368330598    1.4772581733
 H   -0.4817678447    4.3828126855   -1.2204991718
 H    1.0922668797    4.9935481785   -0.6585092177
 H    2.1030822380    1.4628201549   -0.1568211536
 H    2.1070314868    3.4773012958    1.3639535152
 H    0.9682960328    2.3734622478    2.1851281001