25

 C    0.0585403891    1.4525627122   -0.3647837049
 C   -0.0002870747   -0.0029763767    0.1211675079
 C   -1.4039875996   -0.5405671640    0.1996215295
 C   -2.1420862589   -1.0868019203   -0.9984436324
 C   -1.9335324437   -1.9843461290    0.1971377651
 C   -1.2102022405   -3.3017954364    0.1155680041
 C   -2.1060570487   -4.4488526665   -0.3742396488
 C   -2.9725716291   -1.6185847048    1.2690352496
 C   -2.4342857494   -0.1510475923    1.2715912748
 H    1.0896620106    1.8183127368   -0.3984743361
 H   -0.3682720784    1.5474146948   -1.3686013128
 H   -0.5081910599    2.1138138523    0.2994740167
 H    0.5951138170   -0.6349374149   -0.5501329738
 H    0.4745299237   -0.0745787078    1.1094532652
 H   -3.1348670773   -0.7222243441   -1.2578868114
 H   -1.5180998244   -1.3142010123   -1.8588937960
 H   -0.3469047561   -3.2027926453   -0.5548309699
 H   -0.8024139742   -3.5569161851    1.1034494577
 H   -1.5559032723   -5.3944529183   -0.4101567731
 H   -2.9664219395   -4.5887205383    0.2889977275
 H   -2.4922434787   -4.2424602922   -1.3777727947
 H   -4.0236010209   -1.7589467710    0.9937232325
 H   -2.7951348988   -2.1251631652    2.2219955941
 H   -1.9724358718    0.1177269316    2.2258944479
 H   -3.1449876537    0.6364571568    0.9979147513