19

 C    0.0850096127    1.4945585489   -0.0938150609
 C   -0.0361793548    0.0041417983   -0.0310431446
 O    0.4540115484   -0.7331329223   -1.1657912859
 C   -0.2520294655   -1.8581909205   -0.5648502150
 C    0.6565527491   -2.1651567355    0.6393475941
 C    0.3662846133   -0.7993426197    1.3025339142
 O    1.2865645086   -0.2217988756    2.1705384761
 C   -1.1537485162   -0.9221039695    1.6204881894
 C   -1.3043239222   -0.8784279210    0.0916974441
 H    1.1405945121    1.7838956150   -0.0973154688
 H   -0.3889365432    1.8845428360   -0.9990453591
 H   -0.3844909768    1.9564379783    0.7794498131
 H   -0.5143596210   -2.6448636627   -1.2710514211
 H    0.3440776996   -3.0148519028    1.2543002171
 H    1.6928965828   -2.2864695721    0.3180600634
 H    1.4948961883   -0.8512903930    2.8691638291
 H   -1.4947862056   -1.8024544326    2.1735251540
 H   -1.5534552484   -0.0136753731    2.0791157850
 H   -2.2337465212   -0.6795661160   -0.4375085243