20

 C    1.1524493097    0.2362861691   -0.8815937260
 N   -0.0354993658   -0.3336105212   -0.2019227308
 H    0.2265466708   -1.1540579726    0.4066986357
 C   -0.7216939456    0.6645044282    0.6810659753
 C   -0.9753826468   -1.0600573596   -1.1389577683
 C   -1.5933520950   -2.2013798094   -0.3129469569
 O   -0.6197755889   -2.6814380796    0.6033370665
 C   -2.8062701202   -1.6433906743    0.5247620265
 O   -3.7003613512   -1.0820086871   -0.1068275959
 O   -2.6130742057   -1.8005660097    1.7652394945
 H    1.8233622317    0.6647166335   -0.1349647748
 H    1.6671391121   -0.5556393328   -1.4266680366
 H    0.8319661761    1.0148179317   -1.5768649042
 H   -1.4359344422    0.1333979035    1.3127249031
 H    0.0357213904    1.1513213462    1.2979607036
 H   -1.2301675630    1.4004680083    0.0570974888
 H   -1.7570425757   -0.3883081161   -1.4966316574
 H   -0.3640219453   -1.4187298375   -1.9704414429
 H   -1.9322159319   -2.9887660953   -0.9938460243
 H   -1.1689239436   -2.5513958654    1.4444250643