20

 C   -0.0483576000    1.6010769529    0.1603138730
 C   -0.0334916081    0.0707881989    0.1619908865
 C   -1.3994966195   -0.5364099198   -0.1941806537
 C   -1.3852795709   -2.0373902692   -0.1896824721
 C   -0.6943889509   -2.9557473783   -1.2206795771
 C   -1.9306488031   -3.8923207177   -1.0734207706
 O   -2.3162514830   -4.8384846425   -1.6976760826
 C   -2.5478727151   -3.0123721031   -0.0165953829
 N   -1.5584722149   -2.7594115094    1.0527083544
 H    0.9342748400    2.0080857768    0.4172255468
 H   -0.3250877337    1.9944730852   -0.8242533728
 H   -0.7705746495    1.9901573086    0.8863693259
 H    0.7211868105   -0.2909060850   -0.5484518096
 H    0.2698291453   -0.2981178958    1.1492564438
 H   -2.1525661146   -0.1941121557    0.5246360689
 H   -1.7141801400   -0.1824029551   -1.1846672020
 H   -0.6536035288   -2.5609127534   -2.2410997237
 H    0.2932618585   -3.3388776649   -0.9463527686
 H   -3.5965766786   -2.8537985853    0.2057439164
 H   -0.9036764537   -3.5313160973    1.1674739599