23

 C   -0.2292206940    1.4643122230    0.1592950467
 C    0.0141607278   -0.0448861009   -0.0211053365
 C    0.7194232490   -0.6183718746    1.2106443736
 O   -1.2350653668   -0.7294789218   -0.1011584226
 C    0.8514977094   -0.3515346053   -1.2891329346
 C    0.3190955519    0.2736565474   -2.5709833257
 C    0.6895395447   -0.3968057378   -3.9144635113
 C   -0.8257129142   -0.6370150969   -4.0660979581
 O   -1.0983923081   -0.0085797662   -2.7928825926
 H    0.7109471359    2.0263929993    0.1984819156
 H   -0.8367386717    1.8649007741   -0.6576250327
 H   -0.7732031951    1.6375281389    1.0919905012
 H    0.0749408893   -0.5068190309    2.0873682956
 H    0.9225941116   -1.6846853448    1.0744305352
 H    1.6650053384   -0.1025898761    1.4050586747
 H   -1.5858588696   -0.5651664964   -0.9883219296
 H    1.8846771072   -0.0064734831   -1.1515282070
 H    0.8827048597   -1.4420266887   -1.4008348994
 H    0.4751587126    1.3590143911   -2.5645311583
 H    1.1387629971    0.2598483472   -4.6605217495
 H    1.2948563407   -1.3000067619   -3.8185617701
 H   -1.3129190689   -0.1011345055   -4.8887109109
 H   -1.1494451268   -1.6835851903   -4.0819134234