23

 C    0.7213630970    0.1506736253   -1.1153893996
 C   -0.0062130722    0.1593372053    0.2368504287
 C   -0.0345003071    1.5701978398    0.8492797275
 C   -1.4187522113   -0.3937775288    0.0976556122
 O   -2.2451705607    0.3189679730   -0.7959665382
 C   -1.7203401541   -1.8753877198    0.0936363997
 C   -0.6667081109   -2.9516966624    0.2358710302
 C   -2.1263378969   -1.0066871961    1.2793617981
 O   -1.4121403061   -1.0840553166    2.4816201424
 H    1.7262781881    0.5747922441   -1.0203597502
 H    0.8189749599   -0.8651423649   -1.5102827630
 H    0.1678264379    0.7410175938   -1.8516292324
 H    0.5323474366   -0.4854658209    0.9372077683
 H   -0.5319596588    1.5650530011    1.8237401961
 H    0.9816305120    1.9521346195    0.9892940885
 H   -0.5541868010    2.2808653671    0.1949077653
 H   -2.4509415193    1.1689197771   -0.3908174877
 H   -2.5459984263   -2.1297764248   -0.5654521679
 H    0.0679771622   -2.7034815141    1.0054395019
 H   -1.1294151190   -3.9046455706    0.5175808451
 H   -0.1307330294   -3.1156522916   -0.7044457649
 H   -3.1854441313   -0.7703022806    1.3849766153
 H   -1.6434005795   -1.9118023251    2.9165056745