15

 C   -0.0168235244    1.4988846324   -0.0110508959
 C   -0.0079865875    0.0062540880    0.0636955136
 N   -0.0401649287   -0.6861603724   -1.0576198081
 O   -0.0228258957   -2.0784417068   -0.6983834019
 C    0.0189683026   -2.0947471980    0.6290806255
 C    0.0316763948   -0.8475739887    1.2073481814
 C    0.0769614920   -1.0612798724    2.6252378430
 C    0.0888314562   -2.4206470370    2.8097083790
 N    0.0524869132   -3.0705151278    1.5672157019
 H    0.8797996435    1.9154541339    0.4597607023
 H   -0.0520806772    1.8246179923   -1.0521462257
 H   -0.8844441761    1.9078867747    0.5172096765
 H    0.0984053641   -0.3254459336    3.4133067994
 H    0.1198676031   -3.0035385528    3.7159563241
 H    0.0524375299   -4.0636189818    1.4165278548