18

 O   -0.1192051291    1.4526501936   -0.0180819907
 C   -0.0051644796    0.0385719645    0.0280045884
 C    0.6332828485   -0.5610933281    1.3059013180
 C   -0.2161074547   -1.8003468923    1.5723380180
 C   -1.2340273017   -2.0038065936    0.5161138875
 N   -1.6621544159   -1.6430393053    1.9109922748
 C   -2.1026463649   -0.2953627769    1.4009394743
 C   -1.4189479964   -0.5473586181    0.0304342356
 O   -2.1370722099   -0.3187665733   -1.1419494789
 H    0.7518801729    1.8318276097   -0.1663528419
 H    0.5150843895   -0.3349510165   -0.8676482918
 H    1.6826027108   -0.8334365024    1.1582841025
 H    0.5918066440    0.1583126163    2.1306554008
 H    0.2261123537   -2.6491429705    2.0827376431
 H   -1.5178991955   -2.9216792182    0.0161203595
 H   -3.1902693482   -0.3062504639    1.3065028339
 H   -1.7878719933    0.5661058177    1.9979467493
 H   -1.9995716903    0.6092214072   -1.3704229826