17

 C    0.0534856250    1.4992134472   -0.1309356035
 O    1.4847576668    1.5300838575    0.2169556806
 C    1.4049624093    0.1826634919    0.6452541422
 C    0.9469988500   -0.4074598311    2.0097270274
 C    0.9573632460   -1.7201534052    1.2635962642
 C   -0.3131884111   -0.8467609336    1.2680768955
 C    0.0114744581   -0.0317302086    0.0160730672
 C    0.6495314218   -0.9451121160   -1.0766734589
 C    1.7341610184   -1.2078835810   -0.0000772397
 H   -0.5379873110    2.0550603949    0.6052639916
 H   -0.1203541344    1.9086112717   -1.1308848057
 H    1.1469193867   -0.1910711515    3.0503569283
 H    0.9891323070   -2.7121934414    1.6899500546
 H   -1.2599505251   -1.2042167165    1.6579485739
 H    0.0721887568   -1.7941334148   -1.4515202602
 H    1.0347851616   -0.3583112211   -1.9148984586
 H    2.7152300439   -1.6413728825   -0.2008759087