20

 C   -0.5220262245    1.7724723207    0.1339076937
 C   -0.0227303811    0.3333156347    0.0664109886
 C   -1.1897889408   -0.6430549974   -0.2141892911
 C   -1.8260498598   -0.4134040214   -1.5111305814
 N   -2.3112680676   -0.2189967230   -2.5420104969
 C    1.2075294591    0.0547713082   -0.8550908524
 C    1.8123978010   -0.8300813924    0.2673734675
 O    3.1922129450   -0.7995265042    0.5178970184
 C    0.8295325073   -0.1720182479    1.2740696150
 H    0.3053304722    2.4597419313    0.3348609084
 H   -0.9911745486    2.0767931761   -0.8077086358
 H   -1.2618065265    1.8975419601    0.9335635582
 H   -0.8416987463   -1.6815198902   -0.1868006620
 H   -1.9512446002   -0.5464360535    0.5692281040
 H    1.0267462852   -0.3960227195   -1.8339763099
 H    1.8006142590    0.9647064236   -0.9976128314
 H    1.5759394798   -1.8867038186    0.1130459096
 H    3.4566479111    0.1192708460    0.6347765465
 H    1.3061633568    0.6672437800    1.7920061974
 H    0.3453725290   -0.8096406824    2.0192544436