19

 C   -0.0007021741    1.4264781309    0.0001991611
 O   -0.0470818681    0.0113281277   -0.0247910420
 C    0.6677373570   -0.5518589669   -1.0902473815
 O    2.0762731492   -0.3583395987   -0.9678932809
 C    2.6299294682   -1.5940764651   -0.5258377132
 C    2.0421663840   -2.0415323608    0.8521705684
 C    1.0102351701   -2.8588350307    0.0732602897
 C    1.8120330184   -2.7197721802   -1.2133941350
 C    0.4736876033   -2.0586198789   -1.1048016826
 H    1.0228905446    1.7925818145    0.1428327576
 H   -0.4009787020    1.8558804024   -0.9312377516
 H   -0.6233368744    1.7527287576    0.8361899520
 H    0.3610358944   -0.0675317331   -2.0308026284
 H    3.7119053244   -1.5475651355   -0.6367170761
 H    2.7406731063   -2.6921090248    1.3865876931
 H    1.6884271920   -1.2433263290    1.5079413064
 H    0.4665712124   -3.7220150878    0.4380721025
 H    2.1183285553   -3.4357614271   -1.9637829263
 H   -0.3799273909   -2.4693179945   -1.6291178531