16

 C   -0.0580847885    1.4394717097    0.0506642153
 C    0.0260057898   -0.0386980134   -0.0792697570
 N    0.0466114737   -0.7226037955   -1.1570938639
 C    0.0579495274   -2.1027074653   -0.7597472707
 C    0.0831308662   -2.0937378183    0.7512178063
 O    0.0853959432   -0.7299226517    1.1050432965
 C   -1.1593431007   -2.6064063167    0.0405997678
 C   -2.4016962980   -1.9008453371    0.0780773789
 C   -3.4473741514   -1.3079016082    0.1181909629
 H    0.7343118430    1.8108380063    0.7072000578
 H    0.0287359291    1.8962801888   -0.9346233766
 H   -1.0168854012    1.7218515550    0.4967390821
 H    0.5804988170   -2.8035136946   -1.3988013794
 H    0.6572608518   -2.7173264013    1.4240074970
 H   -1.2352675670   -3.6904023445    0.0580493391
 H   -4.3742653844   -0.7910481434    0.1451845237