25

 C   -0.6683068359    1.3059645796    0.6597379161
 C    0.1037653689    0.2302477296   -0.1152159541
 C    1.1791362053   -0.4031993784    0.7348202914
 O    0.7583367380   -1.3290699858    1.7458699922
 C    1.6019361854   -1.8145186351    0.6895623931
 C    1.0283503765   -2.8735934332   -0.2220571475
 C    0.7744287209   -4.2230184665    0.4832355889
 C    0.0208761580   -5.1781177483   -0.4509573108
 C    2.0681798919   -4.8723079217    0.9942700176
 H   -0.0007885296    2.1048986784    1.0006258440
 H   -1.4439000960    1.7607650789    0.0366361310
 H   -1.1485066262    0.8719518520    1.5417506266
 H   -0.5917111823   -0.5346133174   -0.4714904856
 H    0.5760982160    0.6735196644   -1.0017960340
 H    1.9265630884    0.3106839628    1.0940893926
 H    2.6238435214   -2.0117677268    1.0210043844
 H    0.0864291911   -2.5221865074   -0.6536238975
 H    1.7241112315   -3.0244766181   -1.0601339188
 H    0.1326332589   -4.0126092476    1.3488076514
 H    0.6183773531   -5.4111186687   -1.3409797719
 H   -0.2064388608   -6.1244803565    0.0508198459
 H   -0.9250996520   -4.7429472507   -0.7905045040
 H    2.7596333510   -5.0741367581    0.1665600638
 H    2.5885250340   -4.2398921870    1.7194445953
 H    1.8558664424   -5.8271856284    1.4862880200