14

 C    0.0183475059    1.4176692480    0.0178301720
 N   -0.0025124326   -0.0250018190    0.0747936748
 N   -0.0909422059   -0.7720493385   -1.0823254085
 N   -0.0947503167   -2.0348952743   -0.8130286388
 C   -0.0074452341   -2.1612256274    0.5542007704
 C    0.0489668976   -3.0267028287    1.6394614397
 N    0.1336443482   -2.2057952337    2.7181136057
 N    0.1392654458   -0.8655930329    2.4565992640
 C    0.0520116077   -0.8782978111    1.1290346678
 H    0.9456111071    1.8085864720    0.4475911706
 H   -0.0456271243    1.7025246346   -1.0326194991
 H   -0.8311350068    1.8388623750    0.5639998329
 H    0.0376650075   -4.0987543030    1.7437887451
 H    0.1915966008   -2.4931620008    3.6815916035