19

 C   -2.4814815545    1.3386415408   -0.6434925745
 O   -2.3845195667    0.0244686906   -0.1450827663
 C   -1.1892264228   -0.6101813048   -0.5318957984
 C   -1.0481412977   -2.0344372666   -0.0105369903
 O    0.1875692335   -2.4530054864   -0.5103057167
 C   -1.3633767895   -2.4998868008    1.4552637732
 C   -2.8779772587   -2.4755494395    1.1753298865
 C   -2.1772250018   -3.1249132514   -0.0331726007
 O   -1.3325822791   -3.8992519639    0.9281868896
 H   -3.4322431009    1.7497700397   -0.2968502872
 H   -1.6611227865    1.9740479153   -0.2753592169
 H   -2.4631315478    1.3578216669   -1.7441928274
 H   -1.1099112069   -0.6553895172   -1.6302695118
 H   -0.3138098825   -0.0436228036   -0.1750029311
 H    0.2794618937   -3.3599259225   -0.1793507030
 H   -0.8137587028   -2.3095421684    2.3781078006
 H   -3.4402477135   -3.1861373133    1.7811429240
 H   -3.3675994752   -1.5157072254    1.0401397008
 H   -2.5938207004   -3.6765609194   -0.8770181904