21

 C    0.0449346469    0.6966897994    0.8130069619
 O    0.1515320289   -0.5978397031    0.2389735467
 C    0.4690869041   -0.6175311077   -1.1362713313
 C    1.7582859799    0.0619697155   -1.5543125076
 O    1.6468400769    1.4564175094   -1.8142093628
 C    0.0370993222   -1.8994680748   -1.8340055646
 C   -0.5497834635   -3.0714423103   -1.0792628473
 C   -0.7418357817   -0.6140673369   -2.0442879254
 O   -2.0061542511   -0.4463198390   -1.4762120501
 H    1.0326732246    1.1572152382    0.9654875225
 H   -0.5776141344    1.3639881576    0.2034725219
 H   -0.4158364217    0.5713926269    1.7963878844
 H    2.5345404824   -0.1504664725   -0.8029639236
 H    2.0942358486   -0.3757450462   -2.4988027979
 H    1.5196640730    1.9153001001   -0.9800518922
 H    0.6803585351   -2.1848914544   -2.6633914189
 H   -1.1818629779   -2.7520623012   -0.2494284932
 H   -1.1598567342   -3.6863420503   -1.7487303433
 H    0.2404959914   -3.7045468683   -0.6634628244
 H   -0.6778852331   -0.1062255971   -3.0007180827
 H   -1.9067126866   -0.6089751954   -0.5302595023