15

 O    0.1505190319    1.4014068050   -0.2686007055
 C    0.0397561233    0.0173601839   -0.1021335429
 C    0.0769116558   -0.6070293180    1.3063212016
 C   -1.4539813300   -0.3555370084    1.5497188074
 O   -1.7352471082   -1.7418490069    1.9048207053
 C   -0.7609720148   -1.8334567411    0.8361979407
 C   -1.3709042682   -0.6321326666    0.0104510274
 C   -2.4856173757   -0.6765869688   -0.9715076474
 O   -3.5921796543   -0.2479562496   -0.7548104707
 H   -0.4105085329    1.8465320605    0.3759523185
 H    0.7081787853   -0.4330436233   -0.8404676849
 H    0.8648048080   -0.6080881817    2.0583096688
 H   -1.9753690279    0.4303646862    2.0928224621
 H   -0.4367005318   -2.8121856797    0.4860865762
 H   -2.2240395805   -1.1352574114   -1.9520073565