17

 O    0.4764552438   -0.2241282314   -0.1424093340
 C    0.2382713975    0.9367220984   -0.3402778751
 C    1.2513402006    2.0518026287   -0.1095002524
 C    1.1012478990    3.1590386464   -1.1324246156
 O    0.0418814797    3.6195577226   -1.4763556859
 O    2.2999181400    3.5387526052   -1.6153462549
 C    2.2924842452    4.5863320680   -2.5758627257
 C    2.8975964759    5.8954177517   -2.1694620733
 C    3.6335890396    4.9610823408   -3.1113367165
 H   -0.7510287247    1.2897130210   -0.6963082989
 H    1.0138681939    2.4914119042    0.8697974850
 H    2.2627712578    1.6477752921   -0.0692178620
 H    1.4188388253    4.5687404993   -3.2138240165
 H    2.4563831603    6.8048820831   -2.5608685897
 H    3.2741380346    5.9688501231   -1.1557294528
 H    4.4874116941    4.4275096867   -2.7099442303
 H    3.7104781272    5.2201030502   -4.1609853615