15

 C   -1.1764091183    1.1388319673   -0.2323455106
 N   -0.2277388853    0.0452140769    0.0187881670
 C   -0.1374406251   -0.4042719177    1.3899166297
 N    0.7394517727   -1.4015509461    1.6174812669
 O   -0.8260585084    0.1162301464    2.2436243667
 C    0.5004870985   -0.4837400661   -1.0263359108
 O    1.3156903919   -1.3935639814   -0.9374804246
 C    0.2477238326    0.1186787004   -2.3230554318
 C    0.0995758703    0.5594708214   -3.4318650714
 H   -1.6237873548    1.3911535724    0.7257695510
 H   -0.6610284524    2.0103544931   -0.6416266596
 H   -1.9539837129    0.8234198049   -0.9315076287
 H    1.2739197459   -1.7971579299    0.8547878512
 H    0.8046012438   -1.7299987660    2.5649222089
 H   -0.0292848583    0.9476695344   -4.4132293639