23

 C    0.5605403617    1.3573508104    0.4960973324
 C    0.0661644931   -0.0277837566    0.0712919954
 C    0.6368780025   -0.4569442954   -1.2753251895
 O    0.4322684650   -1.0471110561    1.0023769896
 C   -0.2757648964   -1.0394240687    2.2032790476
 C    0.1354962550   -1.9499946959    3.3062866382
 C    1.6644208848   -2.0578230486    3.3756816474
 C    1.7594484671   -0.5092007791    3.5500687183
 C    0.2308958239   -0.4096866442    3.4720648880
 H    1.6537015705    1.3715925728    0.5539489806
 H    0.2456443886    2.1118477237   -0.2323623359
 H    0.1593321023    1.6410614852    1.4722067248
 H   -1.0347910538   -0.0020604255    0.0019460167
 H    1.7291393516   -0.5101209425   -1.2234845738
 H    0.2596422002   -1.4443396566   -1.5537545360
 H    0.3626550480    0.2576285596   -2.0571051412
 H   -1.3566774415   -0.9567174075    2.0694910059
 H   -0.5605065743   -2.6522476803    3.7511772871
 H    2.0075319513   -2.5946767045    4.2623802502
 H    2.1461342002   -2.4822103304    2.4916236822
 H    2.1484599328   -0.2283751321    4.5309376707
 H    2.3116784800    0.0378603155    2.7812623839
 H   -0.3852398826    0.2591992069    4.0635012473