18

 O   -0.1794938708    1.4741860118   -0.1571441453
 C    0.0243130539    0.0792021571    0.0045457742
 C   -1.3476152369   -0.5639793996    0.0269774941
 C   -2.1964041396   -0.5671060322   -1.2708313255
 C   -2.7006202230   -1.9820740105   -0.8945564241
 O   -2.9338093119   -2.9487308690   -1.8658350660
 C   -1.4605088698   -2.1272207451    0.0818476683
 C   -0.3698258771   -2.8284700296   -0.5734699611
 N    0.4611093854   -3.3874229155   -1.1541215728
 H    0.6796331755    1.8963811250   -0.2489915874
 H    0.6197846124   -0.3403196511   -0.8201030370
 H    0.5575809003   -0.1457534449    0.9428261860
 H   -1.9212617557   -0.1471800245    0.8596041456
 H   -2.9375329360    0.2207314977   -1.4076769910
 H   -1.5524719880   -0.6079561381   -2.1564466260
 H   -3.6098448467   -1.9300513829   -0.2900932524
 H   -2.1279544666   -3.0721109535   -2.3826064135
 H   -1.6524442854   -2.5795923152    1.0571570138