17

 C   -0.0193076674    1.5371896223    0.0400719932
 C   -0.0143250458    0.0377164422   -0.0156242742
 C   -0.0195350844   -0.6328461976   -1.1835593138
 C    0.0543951925   -2.0959177088   -1.2855786228
 O    0.1137188233   -2.6888534927   -2.3414866720
 C    0.0784755202   -2.8789354768    0.0532528115
 O    0.4958138562   -4.0072373592    0.1027809004
 C   -0.4810395272   -2.1270221464    1.2452371777
 C    0.0276046761   -0.6778153563    1.3125521364
 H    0.8380640706    1.9048938616    0.6179614789
 H    0.0160019074    1.9844372640   -0.9553348940
 H   -0.9169955977    1.9013103788    0.5556474960
 H   -0.0319983464   -0.1023503654   -2.1320132934
 H   -1.5731127581   -2.1080920584    1.1193365655
 H   -0.2620034266   -2.6854241721    2.1582623501
 H    1.0638663513   -0.6617490539    1.6803054810
 H   -0.5508511241   -0.1126992212    2.0523467295