20

 N   -0.0743115509    1.2659304167   -0.0947327424
 C   -0.0436456072    0.0070817264   -0.0376629032
 O   -1.2003659135   -0.6940407982   -0.0924878824
 C   -1.0769302264   -2.0934824667   -0.0669835939
 C   -2.4599000566   -2.6942316066    0.1444445548
 C   -2.3892331542   -4.2242075511    0.0292587936
 C   -1.6878545140   -4.6288513227   -1.2752424724
 C   -0.3483206211   -3.9010770429   -1.3943009529
 O   -0.5139280727   -2.4900969956   -1.2989757428
 H    0.8710612475    1.6373161458   -0.0256827519
 H    0.8461290578   -0.6262817949    0.0606331205
 H   -0.3951657840   -2.3960702145    0.7522773540
 H   -2.8462959740   -2.3817551288    1.1192827267
 H   -3.1189183667   -2.2778170679   -0.6251414425
 H   -1.8296823837   -4.6301913772    0.8832489005
 H   -3.3939785234   -4.6541694613    0.0829585880
 H   -1.5235744070   -5.7114326400   -1.3143616417
 H   -2.3132780634   -4.3602187756   -2.1348633579
 H    0.3422343963   -4.2514685478   -0.6074727375
 H    0.1273699772   -4.0805968771   -2.3617586366