21

 C    0.1038235711    1.2292845397    0.1746891248
 O   -0.0586158586   -0.1530135080   -0.0365362444
 C    0.5220803951   -0.6168600157   -1.2291920874
 C    2.0811110340   -0.7112135756   -1.2076595781
 C    2.4299044972   -2.1308860831   -1.6939903119
 O    2.6678122296   -2.9236892725   -0.5175891156
 C    1.1604730113   -2.5974535510   -2.4292369032
 C    0.0247495847   -2.0558485510   -1.5421649145
 O   -0.1761183053   -2.8441202646   -0.3898151408
 H    1.1606944180    1.5158844047    0.2867396263
 H   -0.3250012038    1.8205977281   -0.6507932132
 H   -0.4242122792    1.4792933950    1.0982222740
 H    0.2156787943    0.0361440007   -2.0642295928
 H    2.5392375319    0.0418166359   -1.8538238505
 H    2.4674497968   -0.5661032144   -0.1957148467
 H    3.3237035117   -2.1473726172   -2.3300995008
 H    2.7861438782   -3.8384164442   -0.7964237009
 H    1.1246216798   -2.1388465455   -3.4255391999
 H    1.1045937655   -3.6831028770   -2.5559051718
 H   -0.9391600102   -2.0313328716   -2.0576231719
 H    0.6818472181   -2.9184066126    0.0508298892