20

 C   -0.0764652973    1.5720908325    0.0574432167
 C    0.0578132055    0.0531645409    0.0192087487
 C    0.8038918855   -0.4924000257   -1.2229005374
 C    1.5244779938   -1.7561981842   -0.7273039066
 C    2.8695070690   -2.0847678843   -1.3903610067
 O    3.4399375414   -3.2555291374   -0.8573516842
 C    1.7029394692   -1.4952929060    0.7710581290
 O    2.4526326260   -2.0951083294    1.5254769432
 N    0.8832030450   -0.4642098309    1.1076610796
 H    0.9085794132    2.0478883471    0.0216974983
 H   -0.6619239278    1.9206534927   -0.7991127310
 H   -0.5879831670    1.9067008217    0.9662674817
 H   -0.9477995055   -0.3918893408    0.0694403734
 H    0.1253570733   -0.6754244446   -2.0585702651
 H    1.5427489732    0.2501600195   -1.5492143221
 H    0.8799971002   -2.6402502790   -0.8205059554
 H    2.7259403840   -2.2502763591   -2.4643855646
 H    3.5397298517   -1.2130579374   -1.2835751254
 H    3.4226074698   -3.1398300298    0.1064283904
 H    0.7698791667   -0.1881205659    2.0710232777