17

 O    0.3762118542   -0.1805561026   -0.5355808418
 C    0.1711546382    0.9657963184   -0.2406930867
 C    1.2325576068    2.0270226233   -0.0510519630
 O    2.5776840657    1.5530060909   -0.1258080506
 C    2.8637791187    2.4063170397   -1.2707220190
 C    2.9170192918    1.6757273361   -2.5814692202
 C    1.8020302416    1.8529536310   -3.2894289554
 C    0.7908345708    2.7447340808   -2.6025223778
 C    1.4431454435    3.0304141856   -1.2327391837
 H   -0.8640265371    1.3540344031   -0.0774273953
 H    1.0276314686    2.5285766195    0.9082515179
 H    3.7336737751    3.0392301396   -1.0650890949
 H    3.7673071660    1.0741862440   -2.8795994193
 H    1.6081504265    1.4163528552   -4.2633702479
 H    0.6256979395    3.6724462148   -3.1651020455
 H   -0.1916000967    2.2635199672   -2.5257714826
 H    1.3718839569    4.0732280634   -0.9272771742