19

 O    0.9102652533   -0.2097704889   -0.4595323069
 C    0.4722639245    0.9032538195   -0.3383407679
 C    1.3034192166    2.0992107597    0.1021229920
 C    1.0262998067    3.3136220570   -0.7915029642
 O   -0.1098640592    3.6960298863   -0.9616288062
 C    2.2182424596    3.9309568042   -1.4769395558
 C    2.7802361067    3.1336253516   -2.7102929853
 C    2.9370830847    4.4899438512   -3.4498036974
 C    1.9921074694    5.1458314347   -2.4075258345
 H   -0.5894327931    1.1487575290   -0.5472463530
 H    0.9651641802    2.3710472345    1.1113064669
 H    2.3574576319    1.8185054183    0.1444158494
 H    3.0147868114    4.0977397651   -0.7438001164
 H    3.6747371608    2.5295090942   -2.5482306146
 H    2.0095163823    2.5052385402   -3.1655078923
 H    3.9586065877    4.8727108355   -3.3762463401
 H    2.6298965750    4.5207072977   -4.4971455272
 H    0.9518928694    5.1781946488   -2.7392434041
 H    2.2688882720    6.1278367914   -2.0191328523