17

 C    0.1862686538    0.9790828935    1.2025695142
 C    1.1338582407    1.0359508430    0.0199381036
 C   -0.1224477884    0.2370212802   -0.0668705615
 O    0.0450784208   -1.1593776779   -0.0911131318
 C   -1.0139390793   -1.8608292437    0.3707025051
 C   -2.2124152498   -1.5530169274    0.9608191024
 N   -2.9139068561   -2.7182219754    1.2161383709
 C   -2.1564951460   -3.6951427072    0.7916515393
 N   -0.9782351888   -3.2285471272    0.2625140966
 H    0.4921958942    0.3830321413    2.0542816852
 H   -0.4068274083    1.8535969304    1.4453627947
 H    1.2018136569    1.9492778540   -0.5596070475
 H    2.0586300437    0.4764297419    0.1005501402
 H   -0.9401536578    0.5797526902   -0.6967552262
 H   -2.6028361712   -0.5828713379    1.2184867912
 H   -2.3862674414   -4.7489200406    0.8337970401
 H   -0.2254556128   -3.7580836373   -0.1439986064