19

 C   -0.4037618112    1.5992271393   -1.0482655877
 C   -0.0013290541    0.5287009524   -0.0220559187
 N   -1.1765126167    0.1506612288    0.7599502748
 C   -2.2077013510   -0.7411095498    0.2340101018
 C   -1.3132767847   -1.1755359710    1.3464034112
 C    0.7624903809   -0.5889728974   -0.7583124330
 C    2.2768015527   -0.5252146817   -0.6760818793
 O    0.1954158844   -1.4642777296   -1.3756231399
 H    0.4702951368    2.0122451597   -1.5612017252
 H   -1.0708831611    1.1675817596   -1.7998471336
 H   -0.9275587962    2.4111006817   -0.5377246632
 H    0.6975483521    0.9823541061    0.6930408535
 H   -3.2278650516   -0.4297817478    0.4454791742
 H   -2.0434157659   -1.2154310772   -0.7264209312
 H   -0.5802549669   -1.9406404119    1.1023012353
 H   -1.6701906395   -1.1947632807    2.3729509321
 H    2.5947460525   -0.7498642777    0.3493999411
 H    2.7217908610   -1.2483997718   -1.3605152453
 H    2.6394353284    0.4835280889   -0.9025846669