13

 C    0.0890019276    1.4058066212   -0.0267626535
 N   -0.1184735987   -0.0199743303   -0.1756600287
 C   -1.3041149133   -0.6110766066    0.0858897575
 O   -2.3184086676   -0.0744131832    0.4626453773
 O   -1.1739171712   -1.9695651683   -0.1518484936
 C   -2.2785815969   -2.7476198730    0.0583357935
 N   -2.1803498007   -3.9846531798   -0.1521468269
 H    0.8687212576    1.6178485394    0.7125720617
 H    0.3717972906    1.8669183793   -0.9791024630
 H   -0.8499988198    1.8431417799    0.3134196661
 H    0.6327575043   -0.6153051647   -0.4833404544
 H   -3.1398171828   -2.1703575874    0.3960304175
 H   -3.0727268091   -4.4354673466    0.0437343065