17

 O   -0.0839006776    1.4754196422    0.5096916034
 C   -0.0068718725    0.1392608059    0.1231705486
 C   -0.4734170513   -0.8844811989    1.1158535360
 C   -1.2877814587   -0.6185009073   -0.1342662555
 C   -2.6153645466    0.1341061752   -0.0282290810
 C   -2.8200841991    1.0521971041   -1.2473273054
 O   -1.9959462845    1.8537092509   -1.6117744199
 C   -3.7589420789   -0.7505974650    0.1606306550
 C   -4.7101624713   -1.4770916456    0.2669586190
 H   -0.4705966529    1.9502806781   -0.2424226760
 H    0.8483287514   -0.1145084044   -0.5032072658
 H    0.0602456151   -1.8247184854    1.1938347302
 H   -0.8627512193   -0.5022800576    2.0531124310
 H   -1.2726537843   -1.3786071502   -0.9093168039
 H   -2.5332049505    0.8234586198    0.8237397296
 H   -3.7890786840    0.9455430732   -1.7755840614
 H   -5.5477293651   -2.1197240248    0.3834956562