19

 C    1.0020174977    2.1040857658   -0.8377444849
 C    0.2430800461    0.7927851273   -0.6075399425
 N    0.8384222126   -0.2969269154   -1.3684128338
 C    1.6261868072   -1.0999018440   -0.7907586545
 N    2.0940290351   -2.2020088977   -1.5522400332
 C    3.3669260838   -2.7239812660   -1.6114910126
 O    4.2728207350   -2.5131883335   -0.8410372647
 O    2.0457106947   -0.9849969670    0.4805788453
 C    2.1965184868   -2.1565172556    1.2970616643
 H    2.0216503425    2.0329673519   -0.4473510114
 H    1.0607741752    2.3337473557   -1.9056294905
 H    0.4969750220    2.9330484820   -0.3317468626
 H    0.2086653115    0.5729426401    0.4671990189
 H   -0.7884611200    0.9083157501   -0.9598906658
 H    1.5356628537   -2.3220332487   -2.3865278874
 H    3.4599577381   -3.4093383873   -2.4763830780
 H    1.3399935726   -2.8273300549    1.1760799758
 H    3.1272961901   -2.6719680573    1.0586267044
 H    2.2243747251   -1.7901792654    2.3242835832