19

 C   -0.0514630532    1.5638461897    0.1032258333
 C    0.0113345319    0.0364316140   -0.0051885596
 C    0.6589604509   -0.5727510959    1.2466716889
 O   -1.3165919786   -0.5202693732   -0.0347920477
 C    0.7424831433   -0.3865328463   -1.2545761318
 C    1.7011721958    0.1802340680   -2.0583035244
 N    2.0584460398   -0.6729356407   -3.0788868464
 C    1.3233784172   -1.7466508875   -2.9011818945
 N    0.5166811079   -1.6292774321   -1.8100357574
 H    0.9511100587    1.9960367792    0.1715712294
 H   -0.5424039553    1.9968938584   -0.7744729169
 H   -0.6133374909    1.8474821997    0.9971546249
 H    0.0879581602   -0.2925111158    2.1365707751
 H    0.6741383133   -1.6635443822    1.1756039239
 H    1.6876088865   -0.2204245039    1.3542214212
 H   -1.7914841104   -0.0930951637   -0.7570742398
 H    2.1596539919    1.1524628545   -1.9595190953
 H    1.3257595696   -2.6278044239   -3.5254993046
 H   -0.1835348287   -2.2727343880   -1.4785930282