17

 C   -0.0297297552    1.5271158141   -0.0898446965
 C    0.0701736518    0.0403067120   -0.0633853536
 N   -0.1283029598   -0.7735504527   -1.0946083235
 C    0.0437541524   -2.0703567633   -0.6577145049
 C    0.3690964320   -2.0345033283    0.6759460038
 C    0.6713288530   -2.4971735753    2.0991276108
 O    1.8295116478   -3.2458868562    2.3410087478
 C    0.7019300078   -0.9466104197    2.4529400346
 N    0.3894193326   -0.7108622387    1.0254076507
 H    0.9161583951    2.0047142451    0.1902328577
 H   -0.2901501993    1.8415037252   -1.1012495588
 H   -0.7998368495    1.8960399533    0.5972583667
 H   -0.0717037719   -2.9072050444   -1.3279154078
 H   -0.1423241083   -3.0265037386    2.6013456371
 H    2.5052989265   -2.9570677341    1.7172214205
 H   -0.0684021211   -0.5898021143    3.1412403216
 H    1.6849592763   -0.5795043241    2.7588420839