15

 O    0.1742975727    1.2327568985   -0.8226476320
 C    0.0537166454    0.1927701129    0.1270075566
 C   -1.3451626925   -0.3453568350    0.1758311762
 C   -2.0912574204   -0.7968211664    1.2488432434
 N   -3.3017711676   -1.1927908817    0.6925252541
 C   -3.2322890908   -0.9608827847   -0.6406649082
 N   -2.0667089141   -0.4553180036   -0.9844485902
 C   -1.8123860250   -0.8831448844    2.6238399627
 C   -1.5734522058   -0.9553651914    3.8030212647
 H   -0.4002340622    0.9855848129   -1.5587140746
 H    0.7524058602   -0.6310299702   -0.1014499854
 H    0.3392323540    0.5914204750    1.1060414850
 H   -4.0834208788   -1.5647894653    1.2065979223
 H   -4.0521454302   -1.1757431219   -1.3095087671
 H   -1.3536363949   -1.0140835248    4.8402551924