23

 C   -0.2883733267    1.5319272343   -0.0596276671
 C    0.1053157253    0.0502826031    0.0316627556
 C    0.7788345064   -0.4689209130   -1.2135807453
 C   -0.0019861199   -1.0143905687   -2.3665298771
 O    0.1631982636   -0.5268746085   -3.6723198787
 C    0.9763072700   -1.9346619701   -1.7008070837
 C    2.4032613610   -1.6100419061   -2.1544922778
 C    2.2447941759   -0.1580316904   -1.5964227248
 C    2.5798953901    1.0327617543   -2.4898699574
 H    0.5898810207    2.1688064540   -0.2048196793
 H   -0.9661077742    1.7059245130   -0.9016246056
 H   -0.7908803269    1.8623770537    0.8550417713
 H    0.7720554362   -0.0988722831    0.8919031379
 H   -0.7900281333   -0.5513590426    0.2346287973
 H   -1.0426846756   -1.2227580279   -2.1096685107
 H    0.0632957942   -1.2690132855   -4.2783736636
 H    0.6600974222   -2.8596192051   -1.2299622779
 H    3.1703340242   -2.1882788477   -1.6356892876
 H    2.5766305728   -1.6853448470   -3.2327595765
 H    2.8200514489   -0.0822758017   -0.6660826402
 H    2.0274088039    0.9844276182   -3.4293894902
 H    2.3341970175    1.9799200284   -1.9970398937
 H    3.6528485437    1.0511434284   -2.7154004148