15

 N   -0.1205120202    1.3507670152    0.0883402120
 C    0.0281432209   -0.0297806355   -0.0615924655
 O    1.1113579521   -0.5388161353   -0.2873966948
 C   -1.2117677290   -0.7978993640    0.0237736112
 C   -1.3846087117   -2.1564511571    0.1794550441
 C   -2.7753465750   -2.4282048637    0.2380035326
 C   -3.4145241387   -1.2107202570    0.1016041933
 O   -4.7170929465   -0.8532321143    0.0493869124
 N   -2.4848584751   -0.2252476079   -0.0007923080
 H    0.7684977370    1.8268452922    0.1597678515
 H   -0.8008104752    1.6652777961    0.7656766645
 H   -0.5765830202   -2.8652374267    0.2681551601
 H   -3.2531298685   -3.3865835709    0.3700365633
 H   -5.2554512911   -1.6503698283    0.0746515278
 H   -2.6946359189    0.7129678572   -0.2985198543