17

 C    0.2263190732    1.4792465126   -0.0240517090
 O    1.2123188735    0.4466785093    0.0956683558
 C   -0.1627754441    0.0718394638   -0.0303361686
 C   -0.8123422276   -0.6734664578    1.1239194719
 O   -0.8640137446   -2.0396426093    0.7050456939
 C   -0.9893455959   -2.0828521045   -0.7021980533
 C   -2.3726277443   -1.7238408069   -1.2881090529
 O   -1.8966090406   -0.4229507041   -1.7120273701
 C   -0.5514929364   -0.7087013999   -1.2660271818
 H    0.0653483381    2.0762471480    0.8729101472
 H    0.2395979915    2.0397664620   -0.9573725384
 H   -0.2216394897   -0.6142406336    2.0405036703
 H   -1.8227445776   -0.2846395206    1.3184088526
 H   -0.5196630564   -2.9990054961   -1.0600859152
 H   -2.6925487285   -2.3343698642   -2.1409257918
 H   -3.1862089039   -1.6584660361   -0.5569976200
 H    0.1901765931   -0.6429897525   -2.0661841705