14

 C   -0.2570124205    1.4706062938    0.0273148397
 C    0.0262853758   -0.0002156251   -0.0149070268
 N    0.1509669287   -0.5347750210   -1.1813182834
 O    0.4173722305   -1.9200230591   -1.2028405622
 C    0.5395710509   -2.6687742011   -0.0653338378
 N    0.7784067966   -3.9116982686   -0.0797812532
 C    0.3689754912   -1.9030136867    1.1833077578
 O    0.4819672901   -2.6015739772    2.3026791815
 N    0.1262745030   -0.6417552246    1.2125536579
 H    0.5313129957    1.9846700680    0.5864523717
 H   -0.3160347204    1.8774056851   -0.9820887796
 H   -1.1995100730    1.6522444428    0.5536811312
 H    0.8613369960   -4.2490669638   -1.0414252352
 H    0.3484695554   -1.9781945327    3.0342966584