17

 O   -0.0824581152    1.5241052195   -0.0894280995
 C   -0.0138442856    0.1088962402   -0.0151238614
 C   -0.0240634701   -0.5994983707    1.3784618685
 C   -1.5244629412   -0.1573900255    1.5257415065
 O   -1.8757199061    1.1417920917    1.8574011342
 C   -1.3776401097   -0.6232382964    0.0315655608
 C   -0.5898638595   -1.8483359908    0.6179594661
 C    0.2773126042   -2.6305482944   -0.2374372951
 C    0.9839070919   -3.3141904665   -0.9307949874
 H    0.8079104464    1.8758188334    0.0110426271
 H    0.7104864991   -0.2754102686   -0.7390071863
 H    0.7613498661   -0.6091931959    2.1354295893
 H   -2.1318053063   -0.8211979060    2.1485135736
 H   -1.3599659326    1.7271299339    1.2840478140
 H   -2.1369299167   -0.6578661504   -0.7498116595
 H   -1.2045452292   -2.4998181720    1.2454340652
 H    1.6071290645   -3.9152578514   -1.5455227159