16

 C   -0.0032922740    1.4434216997    0.0317636151
 N    0.0031408830   -0.0050940761    0.0297834129
 C   -0.0582350480   -0.8161068382   -1.0549449926
 N   -0.0343739489   -2.0944972217   -0.7272943592
 C    0.0454860000   -2.0975608942    0.6318712005
 O    0.0937654714   -3.2254219679    1.3931241846
 C    0.0675415856   -4.4381698467    0.7771077434
 N    0.1125204797   -5.4734850028    1.4962829658
 C    0.0711205582   -0.8252433704    1.1422770658
 H    0.9099246544    1.8353506081    0.4895295524
 H   -0.0581118594    1.7977778917   -0.9991667417
 H   -0.8675813106    1.8279276182    0.5816702501
 H   -0.1187275724   -0.4256043560   -2.0598332531
 H    0.0091997006   -4.3670347886   -0.3097141199
 H    0.0860650449   -6.2989925191    0.9005113553
 H    0.1289293552   -0.4447555162    2.1465826507