18

 O    0.0973211657    1.4600974390   -0.0123466334
 C    0.0893293560    0.0526131545    0.1017947399
 C   -1.3343472581   -0.5184236037   -0.0272763021
 C   -2.0252484601   -0.4816749781   -1.4319294427
 C   -2.1043093558   -2.0017512482   -1.3323275586
 C   -0.7704873375   -2.5940718582   -1.1504635625
 N   -1.4510067847   -2.0383967579    0.0428711192
 C   -2.1610829646    0.0736992078    1.0179794387
 C   -2.8020939648    0.6160520166    1.8795348105
 H   -0.4894207967    1.8028833225    0.6731683964
 H    0.7243399712   -0.3156536832   -0.7067459581
 H    0.5170986650   -0.2951164279    1.0544570222
 H   -2.9924911990    0.0186670905   -1.4085820060
 H   -1.4292183876   -0.0751889648   -2.2533857769
 H   -2.9848104656   -2.5972735103   -1.5476369699
 H   -0.6992265137   -3.6758507066   -1.0964751436
 H    0.1056126338   -2.1089716182   -1.5701500795
 H   -3.3895794434    1.0668276660    2.6413191364