21

 C    0.3258420634    1.3160429087    0.1417534151
 C    0.1484038908   -0.1859360418    0.3938786838
 C   -1.3038069524   -0.6267038008    0.3038708516
 C   -1.9464877767   -0.8625129321   -1.0951194633
 O   -1.0866600537   -2.0629002904   -1.2558794798
 C   -1.6313164576   -2.1367993477    0.1210637350
 C   -3.0252604081   -1.7919370670   -0.4719407040
 C   -4.1972186429   -1.2881999646    0.3461055065
 O   -5.1159591655   -0.7038551153   -0.5694672579
 H    1.3761881972    1.6095347755    0.2314530851
 H   -0.0107655338    1.5926921250   -0.8631670114
 H   -0.2485043755    1.9140885580    0.8585106504
 H    0.7369662202   -0.7632788914   -0.3241065457
 H    0.5297529280   -0.4336217195    1.3934081009
 H   -1.9283579613   -0.0883487013    1.0229981653
 H   -2.0314376787   -0.1903374048   -1.9490546352
 H   -1.3304256158   -2.9910454253    0.7305730026
 H   -3.3550353198   -2.5459700677   -1.1901229211
 H   -4.6502042566   -2.1420062253    0.8759017696
 H   -3.8869441518   -0.5621043789    1.1102013142
 H   -5.9009172792   -0.4403670431   -0.0803109016