21

 C   -0.2553885451    1.5176872158   -0.2453265471
 C   -0.0312079326    0.0121761236    0.0414740520
 C    0.8756285001   -0.1640953383    1.2767604737
 N   -1.2651548833   -0.7785943076    0.2090447690
 C   -2.1052732206   -0.4897943520    1.3415186494
 C   -3.1081914648    0.6514737454    1.3991354182
 C   -3.5724493410   -0.7801674084    1.2448617848
 C    0.6621949545   -0.5738885869   -1.1272806935
 N    1.2000238713   -1.0046472116   -2.0547340328
 H    0.6972621607    2.0265591666   -0.4181555245
 H   -0.8796896477    1.6544371753   -1.1328824466
 H   -0.7507349720    1.9845562953    0.6084356315
 H    0.4259115175    0.3268449560    2.1434064240
 H    1.0131853860   -1.2243780401    1.4989739276
 H    1.8523196500    0.2908188499    1.0977089716
 H   -1.8010576225   -0.7694067648   -0.6514769838
 H   -1.6382722580   -0.7556805905    2.2848722053
 H   -3.2744203274    1.1529566829    2.3470616090
 H   -3.1964129773    1.2956141800    0.5312010284
 H   -3.9624699587   -1.0781758615    0.2762618523
 H   -4.0582667091   -1.2701677192    2.0807850415