15

 C   -0.0228523219    1.5186005888    0.0418160231
 C   -0.0035333683    0.0271105758   -0.0334056245
 C   -0.0517819337   -0.7763332718   -1.1052669592
 C   -0.0096452868   -2.2469854659   -0.7708518538
 C    0.0786222266   -2.2776458970    0.7671170230
 C    0.0795318449   -0.8041571302    1.1977907270
 O    0.1372676104   -0.3891352037    2.3332343891
 H    0.8768947658    1.8896279632    0.5446302465
 H   -0.0861594458    1.9768984956   -0.9482403893
 H   -0.8713407528    1.8619818023    0.6436304218
 H   -0.1156461661   -0.4299091934   -2.1325950469
 H   -0.9000635276   -2.7621257746   -1.1517438622
 H    0.8472020193   -2.7348549973   -1.2515523608
 H   -0.7652392256   -2.7920355723    1.2360357496
 H    0.9865909816   -2.7636608396    1.1358883765