16

 O   -0.0946111325    0.0829905212   -0.3862415780
 C   -0.0945207624    1.2398035139   -0.0786107326
 C   -1.1595519837    2.2200730273    0.4395485340
 C   -0.0550155979    3.3235727473    0.4663332004
 C    1.0018061074    2.3131489419   -0.0581465116
 C    2.3551749359    2.0368942202    0.6365992232
 O    3.0942105383    2.2776990430   -0.5737482824
 C    1.8857999756    2.5532444279   -1.3037538279
 H   -1.9858233241    2.3835933402   -0.2584472720
 H   -1.5832059805    1.9400319110    1.4084398255
 H   -0.2391735036    4.1629102160   -0.2079229541
 H    0.1642154679    3.7185678654    1.4607889042
 H    2.6138863407    2.7481471216    1.4318259899
 H    2.4853094812    1.0108915427    1.0018378192
 H    1.7290210887    1.8428863470   -2.1246238948
 H    1.8581040690    3.5795644033   -1.6924674330