14

 N    0.0428854226    1.3479786252    0.1406894455
 C   -0.0209355811   -0.0367169342    0.0326971114
 N   -1.1411259792   -0.7424423970    0.0404571954
 C   -0.6691483303   -2.0299049655    0.0246680598
 C    0.6980539481   -2.1164622683   -0.0099399809
 N    1.1331938864   -0.7951290621   -0.0168508300
 N    1.1648541887   -3.3918479715   -0.0680189392
 C    0.0472628127   -4.1054718547   -0.0582795428
 N   -1.1007563290   -3.3353063163   -0.0070533535
 H    0.6238283200    1.7865937187   -0.5643898342
 H   -0.8918000835    1.7354467482    0.1104741090
 H    2.0660850524   -0.4481662497    0.1233581207
 H    0.0006013845   -5.1829692536   -0.0815367822
 H   -2.0459589923   -3.6773367192    0.0022909611