19

 O   -0.1663479934    0.0283187256   -0.2836523191
 C    0.0062344363    1.1473130444    0.1316868940
 C    1.3084560291    1.8877712244    0.0711935493
 C    2.5770022088    1.1652848085   -0.4625632672
 C    2.9918924451    2.5578701408   -1.0079996543
 C    1.4820337330    2.8904149297   -1.1294670880
 O    3.5856217501    3.3823418348   -0.0143295808
 C    3.1216813174    3.1118735841    1.3056237071
 C    1.6427850227    2.6667904035    1.3601776876
 H   -0.8375389410    1.7268835935    0.5768521048
 H    3.2355640636    0.6595982775    0.2461310131
 H    2.3158047591    0.4777857274   -1.2686540832
 H    3.6270540927    2.6289336252   -1.8922697006
 H    1.0414608756    2.4990927251   -2.0498181675
 H    1.1900140766    3.9313627460   -0.9734142025
 H    3.7473301306    2.3293095422    1.7569278517
 H    3.2821102735    4.0261321133    1.8835670400
 H    0.9690132854    3.5262289151    1.4524588305
 H    1.4979496650    2.0433150089    2.2504273750