14

 C    0.1875425586    1.4385315052    0.0066283180
 C   -0.0762231784   -0.0194188655    0.0017414293
 C   -1.1616164643   -0.8075547853   -0.1682033074
 N   -0.8028489204   -2.1531163315   -0.0430535286
 C    0.4643744029   -2.0925251325    0.1800049871
 O    1.3471222147   -3.0855502973    0.3869938272
 C    0.9831466813   -4.3592217228   -0.0166117664
 O    1.6851264750   -5.2862041065    0.2186931885
 O    1.0010449477   -0.8654923221    0.2280004512
 H    0.9131383345    1.7197281729   -0.7644995819
 H   -0.7432394800    1.9766365750   -0.1861373761
 H    0.5838060827    1.7727893817    0.9717902669
 H   -2.1807927389   -0.5144306725   -0.3626342400
 H    0.0218799447   -4.3639291888   -0.5472484577