23

 C   -0.0325839879    1.5117847913    0.0149523375
 C    0.0652065824   -0.0034397211   -0.0162934508
 O    1.1319281685   -0.5712727003   -0.0889361439
 C   -1.2530976583   -0.7749028041    0.0250171001
 C   -1.7368114487   -1.0153966642   -1.4274139645
 C   -3.0395044286   -1.8261619872   -1.4604580070
 C   -2.8939955556   -3.1543519014   -0.7054722871
 C   -2.4125727874   -2.9251261183    0.7337427905
 C   -1.1128348721   -2.1105934688    0.7731901924
 H    0.9410226271    1.9573163283   -0.1929051818
 H   -0.7749282159    1.8743422094   -0.7041903135
 H   -0.3729470802    1.8327342202    1.0071636788
 H   -2.0052525331   -0.1502234283    0.5277151722
 H   -1.8734536677   -0.0600886974   -1.9479342581
 H   -0.9495646232   -1.5583327787   -1.9664455353
 H   -3.8456651466   -1.2346347603   -1.0044951770
 H   -3.3360388094   -2.0071728636   -2.4998962322
 H   -3.8457132886   -3.6973562619   -0.7069865165
 H   -2.1696500295   -3.7908225454   -1.2322272953
 H   -3.1942608728   -2.3943289672    1.2956142696
 H   -2.2649118717   -3.8844048797    1.2424884469
 H   -0.2948446435   -2.6758911305    0.3130042705
 H   -0.8111220174   -1.9250823910    1.8103642947