21

 C   -0.0669004532    1.3955291376   -0.3206749294
 C   -0.0014326214   -0.1036592226   -0.0048507724
 C    0.8716856104   -0.4069625849    1.2202619022
 C   -1.4080027331   -0.6626742129    0.2128271219
 O   -2.2968675407   -0.5090200194   -0.9243551458
 C   -2.5915223838   -1.9256219659   -1.0278536640
 C   -2.2909039518   -2.5252932245   -2.3893305712
 C   -1.5981021918   -2.1817637467    0.1149582415
 O   -1.1294776571   -3.1448147329    0.6442852147
 H    0.9310426885    1.7884628456   -0.5402331767
 H   -0.7106485818    1.5836095651   -1.1837676154
 H   -0.4677281072    1.9568131239    0.5317225321
 H    0.4243444106   -0.6202831636   -0.8756258376
 H    0.4919065273    0.1113004119    2.1086520536
 H    0.8945102035   -1.4783159556    1.4387250209
 H    1.8982420406   -0.0673991336    1.0522752825
 H   -1.8518035285   -0.2308186342    1.1236212468
 H   -3.6299888998   -2.1334623544   -0.7303758831
 H   -1.2522068993   -2.3429714894   -2.6779125388
 H   -2.4642395041   -3.6055566141   -2.3645303197
 H   -2.9442708574   -2.0861488395   -3.1487853721