17

 O   -0.0906367300    1.4296280417   -0.0274150047
 C    0.0038548106    0.0153643730   -0.0132747303
 C    0.6276544334   -0.5598737138   -1.2951229436
 C   -0.1674617006   -0.1523853836   -2.5290051217
 O    0.4860425876   -0.7216706774   -3.6596988606
 C    0.0955147143   -0.2698837616   -4.8694774499
 N    0.5689913985   -0.7886301403   -5.9165050018
 C    0.7388932667   -0.4570378531    1.1774574180
 N    1.3405722913   -0.8036930708    2.1008153121
 H    0.8016599993    1.7942783550    0.0110136728
 H   -1.0310666872   -0.3359752114    0.0762778292
 H    1.6612402048   -0.2089855412   -1.3921753613
 H    0.6663328081   -1.6515676306   -1.2243925904
 H   -1.1988288906   -0.5275428811   -2.4621211456
 H   -0.2093496780    0.9398596223   -2.6117365976
 H   -0.6287968900    0.5551810901   -4.8163310550
 H    0.1873933320   -0.3255342670   -6.7385694597