15

 O    0.4445106948    0.8107929048    0.7331550541
 C    0.1605548837   -0.3314565597   -0.0118629159
 C   -1.3487653269   -0.5829887199   -0.2339735812
 C   -1.3191312949   -1.4079727967   -1.5425580021
 O   -0.1916621771   -0.8997199290   -2.2795104170
 C    0.6462357337   -0.2312439756   -1.4475308256
 N    1.6665758646    0.4350175938   -1.7638538771
 C   -2.0362604812   -1.2603367692    0.8551558743
 N   -2.5868075593   -1.8178049084    1.7042191096
 H    1.1852124978    1.2426774583    0.2802016447
 H    0.6035802540   -1.2310809300    0.4470892685
 H   -1.8231083261    0.3883501138   -0.4110635681
 H   -1.1729830906   -2.4738976581   -1.3401914411
 H   -2.2117858501   -1.2768054172   -2.1549423740
 H    1.8461332177    0.4351846530   -2.7672961990