17

 O   -0.0790002201    0.4420741655   -1.2347497695
 C   -0.0294472357    0.3106739793    0.1641923226
 C   -1.2507865880   -0.4188456673    0.7343393088
 N   -1.2571706658   -1.8257379446    0.3579908952
 N   -1.0429237082   -2.1990231904   -0.9379278487
 C   -1.1110646767   -3.5241029850   -0.9278863452
 C   -1.3776974979   -4.0359837464    0.3571291128
 C   -1.4626792651   -2.9033357607    1.1466907950
 O   -1.6980225820   -2.7091796738    2.4625721027
 H   -0.2588037548   -0.4488664623   -1.5781769267
 H    0.8823580840   -0.2097850881    0.5029157982
 H   -0.0065034823    1.3223576587    0.5851972851
 H   -1.2537825775   -0.3791785982    1.8259427951
 H   -2.1635569874    0.0603746034    0.3623459990
 H   -0.9694131522   -4.0726166224   -1.8478016286
 H   -1.4930551664   -5.0621845285    0.6648881925
 H   -1.7910750338   -3.5661911993    2.8896601216