17

 C   -0.0295380890    1.5624438906    0.0251801887
 C    0.0229199184    0.0605450407    0.0670511733
 C   -1.2595725333   -0.8138068516    0.1867178914
 C   -0.3483718971   -1.8825461685    0.7803627129
 C    0.6844581847   -0.8912112947    1.1507281930
 N    0.9830945099   -1.8748280191    0.0671845800
 C    0.8756550044   -0.7619904658   -0.9363558381
 C    0.3235402201   -1.0920988559   -2.2493043475
 N   -0.1320296714   -1.3325132433   -3.2843256478
 H    0.9748808376    1.9991263366    0.0286724879
 H   -0.5418256166    1.9037116344   -0.8815243706
 H   -0.5739252895    1.9623391525    0.8866440665
 H   -1.9317144942   -0.4148850027    0.9508772966
 H   -1.8175648756   -1.0304423866   -0.7289200418
 H   -0.6079141651   -2.8155204474    1.2613899038
 H    1.3117331384   -0.7371074647    2.0182767377
 H    1.8754773684   -0.3366575645   -1.0636240561