19

 C   -0.0744394947    1.4295705140   -0.0404048867
 C    0.0054613008   -0.0726635042    0.1298867003
 O    0.9802750036   -0.6571242474   -0.7951622375
 C    1.8024313692   -1.0563606011    0.3013781346
 C    0.8056809093   -0.5694705467    1.3364106758
 C    1.0916972823   -2.0370985308    1.1652831891
 C    0.2140213826   -3.2213242877    0.7797259982
 O    0.9101919743   -4.0607984257    1.7331329987
 C    1.7285874502   -2.9659383294    2.1951108326
 H    0.9063369739    1.8896145182    0.1117266416
 H   -0.4218357130    1.6763058866   -1.0480039766
 H   -0.7788963616    1.8576134516    0.6815116122
 H   -0.9811740432   -0.5340413177   -0.0082521787
 H    2.8788505638   -0.9655580829    0.1985417666
 H    0.9428160479   -0.0394524896    2.2710717376
 H   -0.8529950771   -3.1286483072    1.0226825224
 H    0.3225763518   -3.5809446849   -0.2498901880
 H    2.8009183654   -3.1689520888    2.0741112798
 H    1.5276557445   -2.7188605062    3.2466564481