20

 C   -0.0769785946    1.5427922336    0.1606151245
 C   -0.1714064089    0.0163931403    0.0373313985
 C    0.5149529300   -0.4967964047   -1.2183531140
 C    2.0747343413   -0.6116109116   -1.3457392712
 C    2.0333263551   -1.8673157704   -0.4200084807
 C    0.8623144315   -2.0062929932   -1.4385014811
 N    1.8039451778   -1.5202776585   -2.5164545076
 C    2.7509853151   -2.2609644293   -3.1763256766
 O    3.8916415743   -1.9084740545   -3.3835947725
 H    0.9642284984    1.8703436649    0.2494858443
 H   -0.5056713254    2.0386493185   -0.7167940928
 H   -0.6156671982    1.9004441281    1.0429597168
 H    0.2345077388   -0.4467503126    0.9419986702
 H   -1.2275578345   -0.2795548499   -0.0062900724
 H    0.0708788092   -0.0503762448   -2.1130379015
 H    2.8260587028    0.1732522092   -1.4026749942
 H    2.8607910776   -2.5675487860   -0.5432718093
 H    1.7834239801   -1.7225831718    0.6316887981
 H    0.1867527526   -2.8462802113   -1.6049411764
 H    2.3208323070   -3.1957141363   -3.5930006522