20

 C    0.0614515801    1.5276393045   -0.1185073835
 C   -0.0786302961    0.0148719425    0.0989206154
 C    0.6753111669   -0.5043114766    1.3031647023
 C    0.3187171446   -0.0161093379    2.7056337202
 O    1.2423950473   -0.7536366968    3.5294833430
 C    1.9466437280   -1.5073529945    2.5740945567
 C    1.0045359317   -2.0331481209    1.4530842765
 N    2.0800033604   -1.8896126124    0.4067678606
 C    2.2385182596   -0.6775877253    1.2888165630
 H    1.1122455856    1.8145312376   -0.2320196431
 H   -0.4664958945    1.8386549321   -1.0248783914
 H   -0.3521975546    2.1026181330    0.7166031254
 H   -1.1409915281   -0.2426845823    0.2057865938
 H    0.2903870905   -0.5223520183   -0.7802569883
 H    0.4766943592    1.0594541119    2.8469116545
 H   -0.7133436045   -0.2581585566    2.9904663479
 H    2.7054371336   -2.1419876121    3.0328406116
 H    0.3054479164   -2.8713415261    1.4681515080
 H    2.8354850009   -2.5541290043    0.6022275879
 H    3.0015817929    0.0825276525    1.1127336994