21

 C    0.0973387405    1.5572091782    0.2273151295
 C    1.3812827308    0.7801706053    0.0707151463
 C    0.0491481696    0.0773801786   -0.0585609359
 C   -0.3821702196   -0.8097313618    1.0914272081
 O   -1.7490259518   -0.6446040864    1.4233873417
 C   -2.6606009976   -1.3988677508    0.6589220741
 C   -2.7508618819   -1.1162031763   -0.8212746275
 C   -1.8201933003   -0.6948268712   -1.6777431612
 C   -0.3628910396   -0.3775790899   -1.4475623735
 H   -0.1873563006    1.8908688432    1.2190710102
 H   -0.1893167012    2.2374912153   -0.5674995819
 H    1.9653667219    0.9291218627   -0.8316533698
 H    1.9797783252    0.5909596236    0.9560373821
 H   -0.1647310302   -1.8685910698    0.8710603134
 H    0.1749280485   -0.5386248268    1.9949036775
 H   -2.4632222009   -2.4804723497    0.7942855268
 H   -3.6392222618   -1.2073526481    1.1132048848
 H   -3.7316903630   -1.3524978837   -1.2328729527
 H   -2.1230683215   -0.6150812683   -2.7208425572
 H   -0.0535270955    0.3847219291   -2.1733279334
 H    0.2192758591   -1.2751752632   -1.7165952215