20

 C   -0.0244692460    1.5120588359   -0.0053439400
 N    1.2505861369    0.7788294295    0.0504243062
 C   -0.0239318761    0.0224671623    0.0038349451
 C   -0.3703941192   -0.7434969863    1.2340627117
 C   -0.9642045755   -1.9307483697    1.0940333452
 C   -1.2392527327   -2.4320353269   -0.3092987177
 C    0.0485098637   -2.2114660589   -1.1656325576
 C   -0.4108136546   -0.7253865190   -1.2658481950
 C   -1.8676401354   -1.2635291204   -1.1334447565
 H   -0.2739275337    2.0640270079    0.8971760841
 H   -0.3076241445    2.0091693687   -0.9306509892
 H    1.6820315943    0.7675484254   -0.8719638968
 H   -0.1158184021   -0.3123933454    2.1965720057
 H   -1.2449667132   -2.5383170667    1.9482179424
 H   -1.7234398074   -3.4091685780   -0.3281134858
 H    1.0113409370   -2.4258813429   -0.6966440536
 H   -0.0182251370   -2.7108165800   -2.1359589789
 H   -0.1440931663   -0.1520603558   -2.1591431144
 H   -2.2524258190   -1.6037925634   -2.0987763779
 H   -2.6080939594   -0.6337781863   -0.6350776670