19

 C   -0.2406488410    1.5155899813    0.0762806083
 C    0.0049976615    0.0141327203   -0.0912553178
 O    0.6480871418   -0.2649905616   -1.3370723050
 C    0.7748080394   -0.5643033982    1.0787121412
 C    0.0590378974   -1.1482101247    2.2766414916
 C    0.8389413543   -2.0492969028    1.3501467885
 C    0.1467576255   -3.0690653977    0.4711302273
 H    0.7109009386    2.0557957090    0.1585007490
 H   -0.7829803665    1.9109280681   -0.7867929859
 H   -0.8191492739    1.7212952937    0.9825433935
 H   -0.9635313026   -0.4911395597   -0.1734156341
 H    1.5363465697    0.1059651727   -1.2942506807
 H    1.6860221522   -0.0093056951    1.3020608146
 H    0.4428858947   -0.9412217956    3.2696684246
 H   -1.0248064327   -1.2043870450    2.2257867002
 H    1.7957171757   -2.3905567899    1.7383668455
 H   -0.8531315796   -2.7408880681    0.1737848565
 H    0.7156947019   -3.2538676130   -0.4454583868
 H    0.0331515036   -4.0210294235    1.0013508196