17

 C   -0.0569318610    1.5331713505   -0.0365059569
 C    0.0744380361    0.0150932065    0.0243732831
 N    0.6251023413   -0.5077446398   -1.2248456821
 C    0.7276474504   -1.9614641391   -1.2459756811
 C    1.4053416460   -2.4110506830   -2.4976104041
 N    0.8042766881   -2.9429639012   -3.5227657598
 O    1.7845711996   -3.1686626681   -4.4242035618
 N    3.0012582280   -2.7438816366   -3.8762939309
 N    2.7676970779   -2.2919536097   -2.7307570899
 H    0.9107596711    1.9949375215   -0.2507056805
 H   -0.7592543896    1.8371675948   -0.8212148861
 H   -0.4313758366    1.9266668765    0.9127575590
 H    0.7620926747   -0.2665309429    0.8322651098
 H   -0.9035808943   -0.4358033541    0.2766116913
 H    0.0485407224   -0.2026688149   -2.0039940858
 H    1.3424375642   -2.2725755650   -0.3936312933
 H   -0.2377112184   -2.4887466153   -1.1651301708