15

 C    0.0956043790    1.4100371876   -0.3796474268
 C    0.0411853406    0.0005606654    0.2375508218
 O    0.4809228340    0.0242123082    1.5700213325
 C   -1.3540370270   -0.5768058314    0.1245101399
 C   -1.9755423580   -0.9295959990   -1.0769923814
 N   -3.2020447338   -1.4165171280   -1.0832304114
 N   -3.8396453479   -1.5523349913    0.0864846980
 N   -3.2675418368   -1.2303737937    1.2164341986
 N   -2.0246678434   -0.7488030671    1.2531904854
 H    1.1100040498    1.7997530966   -0.2698619166
 H   -0.1606736418    1.3995255022   -1.4440338252
 H   -0.5925151681    2.0795628258    0.1443993105
 H    0.7124471702   -0.6551070985   -0.3398802401
 H   -0.2900919599   -0.1490430587    2.1308711852
 H   -1.4842855371   -0.8311209282   -2.0415849905