13

 C   -0.0562380689   -1.2022346508    0.0145100674
 C   -0.0479604232   -0.0020823549    0.0234955397
 C   -0.0298226736    1.4340077080    0.0377891784
 C    0.4846907443    2.1607883141    1.2765525975
 C    1.3366376417    2.1795108585    0.0383852144
 C    2.5475409996    1.4120626521   -0.0279307244
 N    3.5311599507    0.8074216653   -0.0824810520
 C   -1.0760678428    2.0887748179   -0.7163249537
 N   -1.9045337034    2.6317415425   -1.3116920334
 H   -0.0588810054   -2.2648502229    0.0014548215
 H   -0.0123297083    3.0823437057    1.5527534117
 H    0.7986489556    1.5247827807    2.0940938019
 H    1.3502958437    3.0977576238   -0.5381747991