18

 O   -0.0110728853    1.4191331122    0.0154022404
 C    0.0239350962    0.0127651076    0.0982380755
 C   -1.3526525277   -0.6060291863   -0.1249398915
 C   -1.3839568310   -2.1278131571   -0.0564914268
 N   -2.7472038991   -2.6483295023   -0.0336070037
 C   -3.4760718802   -2.1094039869    1.1080451291
 C   -3.2652723765   -0.6325389414    1.4442943766
 O   -3.9631410103   -0.0373764276    2.2177302831
 O   -2.2059469843    0.0012107076    0.8814920570
 H   -0.6894345076    1.7134046407    0.6351229399
 H    0.7096420932   -0.3376760379   -0.6807095881
 H    0.4129012566   -0.3313621204    1.0706712296
 H   -1.7364523009   -0.2694706601   -1.0979937273
 H   -0.8467184450   -2.5403771691   -0.9163983115
 H   -0.8690010924   -2.4756272576    0.8489226506
 H   -3.2206885083   -2.3907921406   -0.8944034104
 H   -4.5499941603   -2.2640552594    0.9832678584
 H   -3.1900656269   -2.6629876914    2.0136129590