20

 C    0.1593887802    1.6305802430    0.2863145721
 C    0.1261678940    0.1230636537    0.1683654120
 C    1.2976955506   -0.7483047730   -0.2402481047
 C    2.6122738571   -0.2532503916    0.3821799767
 N    1.9695344612   -0.3295432198    1.7027596733
 C    2.2491281699    0.3877374496    2.8185748505
 O    3.2626671830    1.0353708060    2.9866545496
 C    0.7058421646   -0.8484621544    1.1705912919
 C   -0.0434109892   -1.9412781113    1.8737272280
 H    1.0763215652    1.9896740768    0.7600029823
 H    0.0890009251    2.0990758814   -0.7011214269
 H   -0.6831997558    1.9907965748    0.8862717677
 H   -0.8034152831   -0.2617436320   -0.2492598835
 H    1.2360734976   -1.4688042632   -1.0447537560
 H    3.4384302302   -0.9638222221    0.2852667449
 H    2.9638385676    0.7465086472    0.1099542653
 H    1.4549627526    0.2861579778    3.5868410488
 H   -0.5360875550   -1.5727551365    2.7806560347
 H   -0.8215713700   -2.3457580957    1.2199230180
 H    0.6277198241   -2.7572630608    2.1603162253