18

 C    0.1237004211    1.5505980345   -0.3560914408
 C    0.0212602167    0.0839281080   -0.0185712875
 N    1.2606932374   -0.7024903435   -0.0183694792
 C    0.5303401820   -0.5274667439    1.2531149091
 C    1.1838712427    0.1851281391    2.3613054128
 C    1.0438265203    0.0590370671    3.7121715661
 C    1.9222752195    1.0221515945    4.3059817810
 C    2.5302033315    1.6582066125    3.2727782535
 O    2.0925359416    1.1615933393    2.0838012122
 H    1.0344842109    1.9827035465    0.0591367412
 H    0.1391919780    1.6886929536   -1.4426765092
 H   -0.7381089443    2.0979053855    0.0409498467
 H   -0.8671910703   -0.4063684289   -0.4186602106
 H    1.1054409976   -1.6371734268   -0.3859046827
 H   -0.0474674147   -1.3733259451    1.6211750268
 H    0.3958368120   -0.6371944550    4.2216437606
 H    2.0804961541    1.2067641312    5.3568711556
 H    3.2664790138    2.4418493614    3.2066777242