11

 O   -0.0674687817   -0.0025533631    0.0033097257
 N   -0.0292813261    1.2086585129    0.0071913787
 O    0.9752690280    1.9099796546    0.0026885796
 C   -1.3218479168    1.9533580658    0.0174537601
 C   -1.3193685719    3.3477393783    0.0207206204
 N   -2.4810906276    3.9862069469    0.0299261791
 C   -3.5608430260    3.1962215767    0.0352692529
 N   -3.5837670746    1.8605005492    0.0323969457
 N   -2.4166316420    1.2249531102    0.0230746626
 H   -0.3975668183    3.9173428554    0.0159612297
 H   -4.5331539630    3.6789196732    0.0429281555