14

 O   -0.2040841686    1.3975427582    0.1516881520
 C   -0.0581324010    0.0640219313    0.0474223720
 C    0.0627264197   -0.6682306613   -1.0924120037
 C    0.1010691959   -0.3614781790   -2.5418951907
 C    1.4706555795   -0.6153728621   -3.1681670385
 O    1.6417042127   -1.1829789143   -4.2126374251
 O    0.1908440775   -1.9863543998   -0.6833335426
 C    0.1298176443   -1.9432525559    0.6553330403
 N   -0.0177554181   -0.7557357187    1.1558407736
 H   -0.2787102224    1.6008092268    1.0919108447
 H   -0.6464832193   -0.9200681267   -3.1147801810
 H   -0.1163255845    0.7089144563   -2.6546045900
 H    2.3215415113   -0.2196825473   -2.5686232325
 H    0.2059669032   -2.8809267075    1.1827640916