16

 C   -0.0476292987    1.4324426550   -0.0169230192
 N    0.0249617038   -0.0156034306   -0.0073488554
 C   -1.0538826852   -0.6737534753    0.0247539540
 O   -2.2874965215    0.0072816496    0.0574579743
 C   -3.4528410263   -0.6794976894    0.0390374683
 C   -3.4935468268   -2.0267087935    0.0477708515
 N   -4.6570459997   -2.8101163495    0.1391333572
 C   -2.1988656700   -2.6744466708    0.0565835455
 N   -1.0689813647   -2.0580269735    0.0369480416
 H    0.9650102373    1.8394114480   -0.0662591981
 H   -0.6174808413    1.8145782860   -0.8756862209
 H   -0.5346808783    1.8269650750    0.8860781151
 H   -4.3164753668   -0.0234666969    0.0391547235
 H   -5.5081009596   -2.2795358966    0.0015618823
 H   -4.6508893261   -3.5990957902   -0.4965817568
 H   -2.1707767062   -3.7657837073    0.0826255971