19

 C    0.1832209127    1.5442174030   -0.0329937930
 C    0.1065099809    0.0129672492    0.0489264676
 C    0.9106413978   -0.5362099560    1.2355492530
 C   -1.3488929962   -0.5396282313    0.0546032003
 O   -1.3526824854   -1.9706314129    0.0324084656
 C   -2.1627485957   -0.2113845290    1.3315139594
 O   -1.9626616792    0.7079736091    2.0750077615
 C   -2.1405494233   -0.0256641893   -1.0690687204
 C   -2.8119122015    0.3526296330   -1.9928289613
 H    1.2285768111    1.8539131659   -0.1312640035
 H   -0.3633244946    1.9279890345   -0.8986316383
 H   -0.2285898158    2.0048740516    0.8667577367
 H    0.5424791111   -0.3957741773   -0.8739921907
 H    0.5674379248   -0.1017877962    2.1784879003
 H    0.8229446918   -1.6232454030    1.3006821704
 H    1.9684942323   -0.2830627019    1.1163672208
 H   -1.1961401487   -2.2514961161   -0.8755051612
 H   -2.9832349718   -0.9431275973    1.4862253831
 H   -3.3984875603    0.6961180941   -2.8096016202