20

 C   -0.0175749276    1.4946548334    0.4921943873
 C   -0.0331965861    0.0679158298   -0.0625356512
 C   -1.4160971416   -0.5856957832    0.0134399860
 C   -1.4227753288   -2.0223626165   -0.5473057270
 C   -2.7316449137   -2.6614504157   -0.4785645486
 C   -3.8215477576   -3.1650081700   -0.4065142739
 C   -5.1407911628   -3.7872644329   -0.3281083490
 C   -5.4360831089   -4.3501394849    0.9971125296
 N   -5.6803004488   -4.7959313621    2.0337987285
 H    0.9812973667    1.9365216139    0.4260700801
 H   -0.7060168617    2.1423267971   -0.0617218092
 H   -0.3214917186    1.5132748259    1.5445032731
 H    0.3078635190    0.0754350517   -1.1064490392
 H    0.6896956419   -0.5485204108    0.4881991234
 H   -1.7624638748   -0.6081987212    1.0534977573
 H   -2.1452596006    0.0170717360   -0.5412529166
 H   -1.0791643864   -2.0100306950   -1.5902735369
 H   -0.6942833839   -2.6328933615    0.0024901199
 H   -5.9273316610   -3.0608480107   -0.5708847693
 H   -5.2332385348   -4.5934542030   -1.0675793442