17

 N    0.0171654880    1.3753880650   -0.3407230859
 C   -0.0605798854    0.0068763761   -0.1225580535
 C   -1.0698440337   -0.9023065537   -0.2323335140
 C   -0.4640112653   -2.1824705053    0.0346710394
 C    0.8530685445   -1.9508586626    0.2817423099
 O    1.1066279073   -0.5933236436    0.1922089453
 N   -1.1586541267   -3.3998068135    0.1053628333
 C   -1.6487027012   -4.0036158928   -1.1338460460
 C   -0.5084902153   -4.6064909399   -0.3863164762
 H    0.7402328205    1.8131674140    0.2162611995
 H   -0.8686433283    1.8434071073   -0.2084694245
 H   -2.1043559015   -0.7090839929   -0.4644319855
 H    1.6860352897   -2.5678930184    0.5660819673
 H   -2.6392864301   -4.4450162588   -1.0772928270
 H   -1.4168096387   -3.4966461932   -2.0674918930
 H    0.4797968168   -4.5008436369   -0.8285765720
 H   -0.6544198707   -5.4981612407    0.2160750229