23

 C   -0.1383534972    1.5392591913   -0.0930124993
 C    0.0740755946    0.0269036491   -0.0339594600
 C    0.9645362310   -0.5431233357   -1.1658516667
 C    1.1926304259   -2.0048543943   -0.6908329933
 C    1.9903328396   -1.2790789118    0.4349447622
 O    2.8940161485   -1.9188084486    1.2806981452
 C    2.4049874869   -0.2476163381   -0.6605025077
 C    0.8710815526   -0.5452079720    1.2051916885
 C    1.3763814127    0.4454001270    2.2532029639
 H    0.8039513915    2.0949028850   -0.1021608433
 H   -0.6863421141    1.8077400794   -1.0031090285
 H   -0.7241251944    1.8960567404    0.7601477058
 H   -0.9121932428   -0.4497404902   -0.0795877082
 H    0.6683675062   -0.3201938783   -2.1908633373
 H    0.3215196212   -2.6023832006   -0.4049262762
 H    1.8408698305   -2.5720466901   -1.3654708757
 H    3.5724153647   -2.3372041210    0.7414605633
 H    3.1691536728   -0.6473360970   -1.3337164749
 H    2.6691659595    0.7690552179   -0.3614452727
 H    0.2604278200   -1.2940160075    1.7228224346
 H    2.0201958018    1.2202204177    1.8263957565
 H    0.5450179962    0.9467884331    2.7588212592
 H    1.9600911924   -0.0863397759    3.0099496947