22

 C   -0.3500014481    1.3337344469    0.0592291315
 N    0.0471924310   -0.0632493321    0.1261508903
 C    1.4215399037   -0.3959171566   -0.2266187851
 C    0.9479516288   -0.5384363821    1.1803349659
 C    1.4963067310    0.3424882409    2.2861857614
 C    0.5831172754    0.4071066976    3.5143186758
 O    0.3763935186   -0.8859769779    4.0989374383
 C    1.0982116007    1.3600853876    4.5958707379
 O    0.2670593301    1.3297772549    5.7341777288
 H    0.4501966179    2.0574498579    0.2825697761
 H   -0.7074335425    1.5429746858   -0.9542136663
 H   -1.1798757262    1.5126295991    0.7509466610
 H    1.5612830132   -1.2648516785   -0.8651191511
 H    2.1055888892    0.4288441786   -0.4310838468
 H    0.6814165985   -1.5343366318    1.5291773562
 H    2.4749068452   -0.0531174595    2.5984344437
 H    1.6880106036    1.3584475238    1.9253671384
 H   -0.4218611058    0.7296379526    3.2190497768
 H    1.2448518569   -1.2667927997    4.2794553265
 H    2.1405870956    1.0854703188    4.8474247085
 H    1.1147897701    2.3903777079    4.2228902380
 H    0.0202331833    0.4016252059    5.8424497142