12

 C   -0.0137660288    1.3846062097    0.1115880709
 N    0.2722007034   -0.0414166017    0.0833700171
 C    0.6688808180   -0.5695625601   -0.9698801952
 O    0.9071754136   -0.0261589159   -2.2017058804
 N    1.3368267833   -1.0688812596   -3.0894299701
 C    1.3296858625   -2.1052658280   -2.3341505758
 O    1.6511606130   -3.3416840577   -2.6658221470
 O    0.9552542229   -1.9274767006   -1.0616808215
 H    0.7550719987    1.8976587131    0.7002798809
 H   -0.0616703489    1.8523937008   -0.8784053821
 H   -0.9689165035    1.5416587377    0.6215340845
 H    1.9052750358   -3.3466244676   -3.5993282513