19

 C    0.7589365605    1.4019243540    0.1567355583
 C    0.1480187339    0.0238744361    0.0257574127
 C    0.7668157153   -0.9254994291   -0.9366974706
 N    0.8947947851   -1.1494676092    0.5177030746
 C   -1.3632911334   -0.1389840550    0.2866850349
 O   -1.7015222598   -1.5130380784    0.3308652791
 C   -1.8392683119    0.6136491211    1.5512402277
 N   -2.4022474483   -0.1889363287    2.4878963549
 O   -1.7172919950    1.8207212586    1.6656471190
 H    1.8147406433    1.3710544168   -0.1332508951
 H    0.2462521987    2.1157702425   -0.4945701204
 H    0.6739328818    1.7865766968    1.1739853672
 H    0.1590565972   -1.6624659137   -1.4517685359
 H    1.6411241084   -0.5831928079   -1.4831221949
 H    1.8136825100   -0.8908164604    0.8633055608
 H   -1.9095618908    0.3185405967   -0.5478799988
 H   -0.8967205015   -1.9440713844    0.6763311010
 H   -2.6102860777   -1.1416249989    2.2372144317
 H   -2.8456422557    0.2407567931    3.2827076838