19

 C    0.0246095957    1.3551410651   -0.1425454229
 C    0.0416415325   -0.1310790973    0.1400383355
 O    0.9932335178   -0.8237276026   -0.7445044655
 C    1.8200982797   -1.1536389098    0.3791354465
 C    0.8211528834   -0.5756720702    1.3756117545
 C    1.0671678241   -2.0713638610    1.2820688946
 O    0.1183537999   -2.9483523987    0.7363278364
 C    1.7968481939   -2.7351706188    2.4251280182
 O    2.4182172034   -3.9348161652    2.0107786782
 H    1.0246717999    1.7842763068   -0.0324370238
 H   -0.3250142283    1.5423007061   -1.1621375259
 H   -0.6532724989    1.8632847703    0.5521681395
 H   -0.9594879659   -0.5665608970    0.0378641952
 H    2.8962262891   -1.0909283200    0.2598689347
 H    0.9647630269    0.0101161797    2.2752781681
 H    0.0989607607   -2.7612208922   -0.2131122193
 H    2.5822517965   -2.0745167760    2.8072646857
 H    1.0837038704   -2.9145084604    3.2461447545
 H    1.7429092991   -4.4159068988    1.5168908155