17

 O    0.5542592134   -0.0213849735    0.9292032265
 C   -0.1372143682    0.2927728301   -0.2777056922
 C   -1.4688599398   -0.3776246847   -0.2504035705
 C   -1.8044393079   -1.6626333188    0.1466048411
 C   -1.6867482503   -3.0560336190    0.7507653491
 C   -3.2559500728   -3.1347770459    0.5479443717
 N   -3.1274044111   -1.7866919416   -0.0238742975
 N   -3.7612694874   -0.7070559229   -0.4937460790
 C   -2.7345053347    0.1505848315   -0.6368187612
 H    1.4498923658    0.3220489342    0.8516117450
 H   -0.2787823929    1.3791754005   -0.3903655737
 H    0.4493269163   -0.0434761274   -1.1488675109
 H   -1.1161447609   -3.7853836557    0.1715861025
 H   -1.3645472762   -3.0893970734    1.7932655177
 H   -3.6140321937   -3.8875175642   -0.1588432634
 H   -3.8457228152   -3.1701041051    1.4673023434
 H   -2.9289405744    1.1418480158   -1.0230121886