21

 C    0.6032163144    1.4108900787   -0.4304321749
 C    0.0596876804    0.0911735381    0.1164988169
 O    0.0458010635   -0.9003711210   -0.9231699835
 C    0.9414992995   -1.9339232052   -0.6187212040
 C    2.3967127389   -1.5783623346   -0.4536921646
 C    1.4979619866   -1.7573831251    0.7565328138
 C    0.7943823718   -0.5475236256    1.3502797249
 C    1.7084734505    0.3995302661    2.1292300519
 O   -0.1751026598   -1.1168389644    2.2403836914
 H    1.6577624143    1.3476607332   -0.7111274275
 H    0.0357703639    1.6848546612   -1.3240600377
 H    0.4903002963    2.2159836816    0.3027182872
 H   -0.9857413076    0.2484017032    0.4122269848
 H    0.6358084398   -2.8856532946   -1.0370983577
 H    3.1286233251   -2.3610911757   -0.6242704922
 H    2.7285499650   -0.5886429008   -0.7460254596
 H    1.6678615469   -2.5847715438    1.4343825913
 H    2.5206153434    0.7877836167    1.5099893236
 H    1.1504325377    1.2567088687    2.5251881370
 H    2.1456520485   -0.1381000664    2.9749359170
 H   -0.6223273091   -0.3919452202    2.6899177120