13

 O    0.0986031890    1.3103896570   -0.1327878843
 C    0.0581634239   -0.0329873888   -0.0136465281
 N    0.0151601570   -0.7821208207   -1.0998735390
 N    0.0350376957   -2.1013162744   -0.6607074918
 C    0.0010442363   -2.1247575185    0.6905024112
 C    0.0530611551   -0.8300978996    1.1668374207
 N    0.1054253388   -0.8120358619    2.5487026800
 C    0.0828487527   -2.0765102163    2.8802356557
 N    0.0292733705   -2.9449446812    1.7862319764
 H    0.1243740292    1.6841099156    0.7542315814
 H   -0.2320195204   -2.8090552209   -1.3210464597
 H    0.0973328708   -2.4661999064    3.8875580854
 H   -0.0169378188   -3.9481651040    1.8259047119