22

 C   -0.1784857922    1.6189604334   -0.0392226156
 C    0.0490782231    0.1102284753   -0.0126986156
 C    0.6327437083   -0.6958465091   -1.1761123531
 N    2.1290495501   -0.9244640727   -1.0114064971
 C    2.5072739706   -0.2473016274    0.2746513722
 C    3.1058812315    1.1495781169    0.1963227620
 C    1.1223462175   -0.6108824023    0.8567553556
 C    1.1397303519   -1.7434354579   -0.2610249957
 C    1.0794711568   -3.2323888201   -0.2353471608
 H    0.6722789088    2.1859171415   -0.4160210471
 H   -1.0367894243    1.8532964884   -0.6790260714
 H   -0.4111307259    1.9910291905    0.9651410785
 H   -0.9086297231   -0.3664230256    0.2337647034
 H    0.2605187696   -0.7996174693   -2.1878966581
 H    3.2463960893   -0.9099433049    0.7418055822
 H    2.5720035757    1.7970047784   -0.4995029358
 H    3.1103255289    1.6292922063    1.1813236734
 H    4.1426856489    1.0856903751   -0.1495279474
 H    0.9648445636   -0.7348823021    1.9285001365
 H    0.1174729528   -3.5855495113    0.1523606205
 H    1.2080661228   -3.6286764569   -1.2473511851
 H    1.8704359153   -3.6548757964    0.3947706185