19

 C    0.2402412953    1.3528330670   -0.2899036654
 C    0.0531142230   -0.0877653257    0.2010057712
 O    0.5185058629   -0.2228163544    1.5413880873
 C   -1.3665468298   -0.5869335100    0.0732486412
 C   -2.2040861165   -0.5996977841   -1.0349167135
 C   -2.0301106910   -0.1458089705   -2.4495321894
 N   -3.3632172149   -1.1677486409   -0.6080581564
 N   -3.3514566820   -1.5313295795    0.6869868685
 C   -2.1363614159   -1.1830211215    1.0994778296
 H    1.2761927918    1.6648256169   -0.1306295585
 H    0.0087519518    1.4515285094   -1.3544123507
 H   -0.4204603234    2.0336439743    0.2595129526
 H    0.7240021644   -0.7388086914   -0.3756561861
 H   -0.0075713062    0.3721801020    2.0880755092
 H   -1.0329622652   -0.3950188722   -2.8239350654
 H   -2.7575652256   -0.6307921139   -3.1083199352
 H   -2.1601061310    0.9372474406   -2.5560973576
 H   -4.1899354409   -1.3396255438   -1.1562263301
 H   -1.8336184569   -1.3814403524    2.1162570086