16

 C   -0.1455570821    1.4511772919   -0.0563114847
 C    1.2592441866    0.9622948516    0.1525766520
 C    0.1236159583   -0.0383341420    0.0484521527
 C   -0.3173555644   -0.8051059713    1.2184391107
 C   -0.7856126148   -2.0751442818    1.3742853589
 C   -1.0509338248   -2.2446927123    2.7739482961
 C   -0.7264946529   -1.0676774755    3.3634812238
 O   -0.2767736063   -0.1789605282    2.4310585403
 H   -0.6461287897    1.9183748529    0.7837824820
 H   -0.4215682106    1.8454661227   -1.0279026959
 H    1.9588535094    1.0171128842   -0.6739714400
 H    1.7003468405    1.1018793687    1.1326473245
 H    0.0623701586   -0.6076369450   -0.8725672288
 H   -0.9244897251   -2.8017588343    0.5892383406
 H   -1.4318656305   -3.1255062957    3.2666039306
 H   -0.7499595321   -0.7065033759    4.3779273971