16

 N   -0.0680353139    1.2589001424    0.1605291111
 C   -0.0166962077    0.0149138989   -0.0197337989
 O    1.1509782661   -0.7211799309   -0.1791616739
 C    0.7614811491   -2.0290257806   -0.5635796156
 C   -0.0186218720   -2.9232371142    0.4677968651
 C   -0.9107779308   -1.9039040865    1.1917006678
 C   -1.1517649931   -0.9754757825   -0.0519025524
 C   -0.6612416957   -1.9989590797   -1.1383817319
 O   -0.8892636494   -3.3288077351   -0.6312562809
 H    0.8707776708    1.6622121262    0.1707726933
 H    1.5482929159   -2.5212031557   -1.1291322995
 H    0.4229651016   -3.7530103363    1.0168555412
 H   -1.8292841326   -2.3828099756    1.5346085568
 H   -0.4332066668   -1.3845930174    2.0248395927
 H   -2.1367313197   -0.5305781206   -0.1507255339
 H   -0.9232869717   -1.8462013026   -2.1833848908