16

 O    0.0041602550   -0.0537955968   -0.1002101104
 C   -0.0295603038    1.1459281700   -0.0060470018
 N   -1.1991128931    1.8656526076    0.1435862152
 C   -1.2267611718    3.3313181503    0.0192053787
 C   -0.0310340784    3.8277653657    0.8491728700
 C    1.0728937999    3.3214884659   -0.0832276847
 O    1.1325086303    1.8659340128    0.0043531802
 C    0.5365752533    3.7135393650   -1.4498201166
 C   -0.7969778642    3.7324416627   -1.3920553904
 H   -2.0235318429    1.3292195181   -0.0771971289
 H   -2.2036515086    3.6947713847    0.3396184878
 H   -0.0151532135    4.9174113768    0.9121489901
 H    0.0117160489    3.3910280710    1.8485506841
 H    2.0853127411    3.6506934372    0.1470726147
 H    1.1580870623    3.8374098670   -2.3271864277
 H   -1.4845927444    3.8802856223   -2.2160034201