22

 C   -0.1253498398    1.5423987269   -0.0257652892
 C    0.0588240496    0.0216700026   -0.0264537944
 C    0.7069235930   -0.4995768453   -1.3140769661
 C    0.7883502558   -2.0289940265   -1.2681017634
 C    1.3627584012   -2.5585846026    0.0249382277
 N    2.0606905563   -3.6155875269    0.0501709903
 O    0.9941293227   -1.9195934033    1.1774483617
 C    0.8443980383   -0.4797778697    1.1978108049
 C    2.2201761055    0.1543415827    1.4104377323
 H    0.8212577469    2.0666621250   -0.1910759674
 H   -0.8102874498    1.8423108647   -0.8250695376
 H   -0.5454139607    1.8971265833    0.9218121987
 H   -0.9367444139   -0.4385523119    0.0473243723
 H    0.1250495117   -0.1818407033   -2.1859855538
 H    1.7075030400   -0.0670085604   -1.4364634006
 H   -0.2278748873   -2.4379540984   -1.3540732438
 H    1.3705119921   -2.4448936558   -2.0917798153
 H    2.3179398153   -3.8330845074    1.0159187654
 H    0.2402465888   -0.3011854062    2.0938513868
 H    2.8726200231    0.0165784408    0.5428605464
 H    2.1324668459    1.2261308365    1.6082256943
 H    2.7040678054   -0.3138996847    2.2713641508