17

 C   -0.2093027983    1.4851878990    0.0660308647
 C    0.0515352996    0.0103517834    0.0747311114
 N    0.1418171328   -0.6620263846   -1.0926279970
 N    0.4298925793   -1.8995804944   -0.6808619778
 C    0.5008259016   -3.3159032954   -1.0609188471
 C    0.5977348761   -3.5889956908    0.5100602188
 O    1.7349015196   -4.2398049318    0.9973328077
 C    0.4782025952   -2.0688785354    0.6508968812
 C    0.2393970883   -0.8285542395    1.2136843952
 H    0.6600754154    2.0508229277    0.4201919006
 H   -0.4388201100    1.8151679873   -0.9492553548
 H   -1.0519188481    1.7447077108    0.7154866615
 H   -0.3991490771   -3.6929458408   -1.5544448676
 H    1.3923131125   -3.5896335293   -1.6319959022
 H   -0.2603683288   -4.1498332047    0.8879403636
 H    2.4977670766   -3.6722035392    0.8391799021
 H    0.2019918352   -0.5377045722    2.2504412599