18

 C   -0.0502633257    1.5042000686    0.4761985861
 N   -0.2586018373    0.0628815778    0.4470557729
 C    0.6098513546   -0.6905874029    0.9341932203
 C    0.7582343575   -2.1865266132    1.0858388586
 C    2.1264991994   -1.8253749040    1.7293540139
 O    1.8266233982   -0.3945102217    1.5367129647
 C    2.3454655907   -2.1834586099    3.1131241358
 C    2.5273882991   -2.4960858984    4.2616781562
 C    2.7484428866   -2.8648694741    5.6512504636
 H    0.8970829745    1.8121433995    0.9336389654
 H   -0.0890201747    1.8916290957   -0.5478675898
 H   -0.8740361455    1.9732081801    1.0255433070
 H    0.0426886913   -2.6519496830    1.7641391672
 H    0.8081888827   -2.7491948224    0.1526778558
 H    2.9887882594   -2.0918701130    1.1103595819
 H    2.6561943087   -1.9908206705    6.3049974399
 H    2.0179454904   -3.6090279978    5.9864569852
 H    3.7487656999   -3.2862566809    5.7973101851