16

 C   -0.2917205752   -1.0459806343   -0.6119532659
 C   -0.1263204618    0.0845152878   -0.2397769919
 C    0.0742098702    1.4449775196    0.2268672490
 C   -0.4598259462    1.7060840847    1.6549851288
 O    0.3354503568    2.7656755118    2.1997658663
 C    1.4219068856    3.0664224433    1.3361568893
 C    1.5522956169    1.8703117245    0.3776339875
 C    1.1630171252    4.3276032315    0.6056406237
 N    0.9614167317    5.3070347370    0.0266257106
 H   -0.4415571478   -2.0423488382   -0.9478833979
 H   -0.4155961695    2.1420391309   -0.4641152156
 H   -1.5100785961    2.0098930879    1.6581756871
 H   -0.3471695239    0.8126264841    2.2802309407
 H    2.3204992216    3.2090350352    1.9454282924
 H    2.1256466146    1.0768072185    0.8634749649
 H    2.0284454879    2.1236763958   -0.5699069990