19

 O   -0.0208220076    1.4290696971    0.1310954955
 C   -0.0090186306    0.0206324461   -0.0077566492
 C   -1.4440911368   -0.5423216271   -0.1372884655
 C   -2.2820384159    0.2673105113   -1.1563605359
 C   -1.5415860822   -0.4935937863   -2.2843577763
 C   -0.1258116395    0.0855266113   -2.5215428725
 C    0.6297173005   -0.5159425743   -1.3204615299
 O    0.1954070464   -1.8796070479   -1.3103325370
 C   -1.1977937178   -1.6242916626   -1.2447539083
 H    0.8830240931    1.7233680082    0.2802423906
 H    0.4960313405   -0.4546174457    0.8441324593
 H   -1.8913666368   -0.8167606415    0.8180019792
 H   -3.3394682805   -0.0070983028   -1.1053681277
 H   -2.1876770255    1.3539494280   -1.1281049632
 H   -2.0821567085   -0.7377513122   -3.1990133574
 H    0.3083717845   -0.2857357450   -3.4536365056
 H   -0.1082182074    1.1777260530   -2.5288582737
 H    1.7196311472   -0.4756028479   -1.3645216021
 H   -1.7694930430   -2.5497032216   -1.2369402102