18

 C   -0.1207048590    1.4379842304    0.0364366283
 N    0.0328580508    0.0100658776    0.2369374236
 C   -1.1338228165   -0.8615799535    0.0689284607
 C   -0.4805340890   -2.2654800665    0.0600934740
 N    0.9548553240   -2.0281447507   -0.1581012128
 C    1.1384507232   -0.7590227287   -0.0380824171
 C    2.5399524436   -0.1856080684   -0.1311415782
 N    3.4482457478   -1.1330850878   -0.4559228937
 O    2.8090671457    0.9879960586    0.0629538163
 H    0.8433431937    1.9247384691    0.1608362712
 H   -0.5166270724    1.6632734371   -0.9667094555
 H   -0.8288457515    1.8342363731    0.7724948544
 H   -1.8556772717   -0.7175077772    0.8790694106
 H   -1.6433754023   -0.6303812651   -0.8801958369
 H   -0.6142162811   -2.7780543340    1.0215966400
 H   -0.8883886225   -2.9219170118   -0.7137036005
 H    3.1407612325   -2.0908363770   -0.5267971679
 H    4.4216023349   -0.8834109452   -0.4879055865