20

 C   -0.1674985122    1.5689897926    0.0485445096
 C    0.0409216443    0.0538770250   -0.0394931909
 O    0.7161978706   -0.3223004691   -1.2370632344
 C    2.1256839735   -0.2936919370   -1.1108531415
 C    2.5827995915   -0.8095045446    0.2362622021
 C    1.6535590217   -1.7581130719    1.0372432268
 C    2.3863100361   -1.1985873750    2.2696031898
 N    2.1754533259    0.0745707468    1.4390532605
 C    0.7594686160   -0.4995359399    1.1805184317
 H    0.7858244112    2.0885097092    0.1752909856
 H   -0.6543387419    1.9306301151   -0.8608186129
 H   -0.8015132739    1.8210118746    0.9052091822
 H   -0.9375497087   -0.4392515437   -0.1062321079
 H    2.5190981053   -0.9282100826   -1.9125663768
 H    2.5277499535    0.7220942648   -1.2606220875
 H    3.6542935639   -1.0354833146    0.2396655700
 H    1.3598830433   -2.7884936479    0.8100969897
 H    1.8528306937   -1.1858359848    3.2245525280
 H    3.4409729971   -1.4567007548    2.4030851774
 H    0.1279855893   -0.4383334723    2.0730802586