21

 C    0.0309261758    1.5385195425    0.0356886196
 C   -0.0962112433    0.0561003815    0.1713869482
 C   -1.3329554231   -0.8221685285   -0.0869714924
 C   -0.7508344047   -1.8682633845    0.9251908904
 C    0.4528623352   -0.9287666694    1.1328461989
 O    1.0407854847   -0.7568021616   -0.1744126303
 C    1.3456691651   -0.7981917785    2.3046854646
 C    0.8520560398   -1.1016082458    3.7004444236
 C    1.8323891936   -2.0304990483    3.0357322722
 H    0.9812773934    1.8857614084    0.4498639680
 H   -0.0059741298    1.8349024627   -1.0191951099
 H   -0.7864705172    2.0485170078    0.5559405366
 H   -2.2656010985   -0.3731068365    0.2644777938
 H   -1.4543166078   -1.1541315521   -1.1211282016
 H   -1.3801409433   -1.9878541927    1.8102644602
 H   -0.4973269262   -2.8513781643    0.5213884054
 H    2.0602159444    0.0133607753    2.2094196984
 H    1.2027666742   -0.4670281715    4.5064704134
 H   -0.1699811324   -1.4442350850    3.8188916734
 H    1.4651350485   -2.9929999892    2.6965804788
 H    2.8586592416   -2.0421007602    3.3845613987