15

 C   -0.0473072644    1.4729396774   -0.0802271075
 O    1.2170352167    2.1058147507    0.0467101904
 C    2.0067316801    2.1429801382   -1.1166021540
 C    2.4706671685    0.8234787526   -1.6649655452
 C    2.0386715438   -0.4102820356   -1.3664251546
 C    0.9352233280   -0.8131290019   -0.4992578885
 C    0.0018726439   -0.0259860779    0.0510290194
 H   -0.6669807992    1.8908605238    0.7202718422
 H   -0.5225715295    1.7576124313   -1.0345353863
 H    1.5038323897    2.7134587441   -1.9202827967
 H    2.8896708947    2.7330115465   -0.8369044916
 H    3.2832300527    0.9182927678   -2.3839766507
 H    2.5533397178   -1.2362417174   -1.8526757514
 H    0.8585330686   -1.8837405338   -0.3242700281
 H   -0.7832088213   -0.4810481457    0.6496087825