19

 C    0.1282925400    1.5831962215   -0.1176192292
 C    0.0102692128    0.0793440510    0.1075379330
 O    0.3786309215   -0.2683669486    1.4507916125
 C   -1.4198612769   -0.4824783417   -0.0083414832
 O   -2.2267358992   -0.0179638189    1.0640652817
 C   -2.1565245684   -0.0888708905   -1.2944985150
 O   -3.4517449345   -0.6566711660   -1.3126203600
 C   -1.3370696412   -2.0230839370    0.0361602702
 O   -0.6212954945   -2.6684096598   -0.6818529941
 H    1.1415446004    1.9207950476    0.1291430040
 H   -0.0536389487    1.8478632574   -1.1630459481
 H   -0.5816555970    2.1256429451    0.5126980724
 H    0.6378896933   -0.4694709049   -0.6066968552
 H    1.2477558632    0.0982362652    1.6387838780
 H   -1.6659047442   -0.0385352975    1.8511117940
 H   -2.1989296068    1.0065225986   -1.3702845841
 H   -1.6186732832   -0.4837485751   -2.1611381121
 H   -3.8812647065   -0.3728801488   -0.4967844702
 H   -2.0085477900   -2.4867780376    0.7907155252