18

 O    0.0069459381    0.0763628642    0.7333814333
 C   -0.0204253443    1.1273565601    0.1540978465
 C   -1.3199061661    1.8995538065   -0.0672147201
 C   -1.6450374718    2.4991403241   -1.4601586119
 N   -0.5664761764    3.2126576176   -2.1456256062
 C    0.5511560187    2.2855009924   -2.5191657833
 C    1.3126371352    2.6653097043   -1.2352449597
 C    0.3734202981    3.8914106762   -1.1924113119
 O    1.1709725083    1.7018776085   -0.1899964172
 H   -2.1199763038    1.2186942501    0.2301603934
 H   -1.3104430981    2.7057313139    0.6768239826
 H   -1.9864479310    1.7053517638   -2.1329962167
 H   -2.4915234285    3.1827971267   -1.3291356188
 H    0.2781171388    1.2314602483   -2.6298277454
 H    1.0466773642    2.6258534114   -3.4338327920
 H    2.3873824474    2.8447940196   -1.2924592340
 H    0.8299222141    4.7647549668   -1.6687467132
 H   -0.0378177928    4.1947870756   -0.2279635656