19

 N    0.0235525284   -1.1590510966   -0.2750955674
 C   -0.0100535377   -0.0150175325   -0.1197472163
 C   -0.0524697978    1.4360360989    0.1048633974
 N    1.2733037710    2.0084874621    0.0991278852
 C    2.1675333438    1.7497278896    1.2536314043
 C    2.5958082623    3.2292998060    1.2322125388
 C    3.5639500139    3.6441981069    0.0820871156
 C    2.3480681744    4.1083956688   -0.7824581282
 C    1.3994225400    3.4820249665    0.2607282218
 H   -0.6412468639    1.8900781644   -0.7012373692
 H   -0.6092640792    1.6115745005    1.0472145348
 H    1.6161749984    1.4947647226    2.1727268421
 H    2.9299363447    0.9837058007    1.0753696401
 H    2.7157577392    3.7360480241    2.1878531345
 H    4.2678492976    4.4373284109    0.3422655868
 H    4.1285012914    2.8081491467   -0.3379454236
 H    2.2588350416    5.1981761366   -0.8200153400
 H    2.2700943767    3.7062610158   -1.7947455670
 H    0.4752319551    4.0004840678    0.5388948404