22

 C   -0.0186961980    1.5719975043    0.1806108015
 C    0.0514304988    0.0781781663    0.0512690066
 C   -0.8276223288   -0.8623785111    0.8304336452
 C    0.6667630139   -0.9718566615    0.9818990071
 C    1.2485842373   -1.7314782450   -0.2141543679
 C    0.6149530950   -0.6687555188   -1.1689758003
 N    2.7005777080   -1.6893971782   -0.2491490253
 C    3.3903334697   -2.8357946745    0.3354408108
 C    3.3478459832   -2.6470750726   -1.1408549788
 H    0.9382382858    2.0381644156   -0.0800261924
 H   -0.7854608340    1.9944538769   -0.4809249833
 H   -0.2686299055    1.8690342312    1.2047661844
 H   -1.3457023769   -0.4211816354    1.6768146475
 H   -1.3903532368   -1.6488167935    0.3296226784
 H    1.1683013310   -0.8431393225    1.9341237899
 H    0.8679793709   -2.7626000346   -0.3348171206
 H   -0.1139117575   -1.0247517447   -1.9053032420
 H    1.4027534906   -0.1099387805   -1.6791086111
 H    4.2930612020   -2.6104851159    0.8960245499
 H    2.7841022991   -3.6400470128    0.7499441223
 H    2.7127690556   -3.3251394290   -1.7092389793
 H    4.2187026067   -2.2816581338   -1.6773067425