20

 C    0.0394072631    1.2637523168   -0.2424926506
 O   -0.0287139353   -0.0320285398    0.3128062306
 C   -1.2808318774   -0.6406332225    0.1585203019
 C   -1.7151201838   -1.1792784002   -1.2403869822
 C   -0.6074945580   -2.0161274677   -1.9049895595
 N   -0.8835197557   -3.2003030444   -1.0201162639
 C   -0.2630200933   -2.9825906077    0.3333869211
 C   -1.4023532831   -2.0484606024    0.7788663495
 C   -2.1441270938   -2.4986002198   -0.5222165350
 H    1.0433962590    1.6487071638   -0.0494449746
 H   -0.1344235919    1.2568449078   -1.3286456454
 H   -0.6964641680    1.9401268759    0.2197361224
 H   -2.0780298033    0.0103410316    0.5532493085
 H   -2.3591496292   -0.5514275261   -1.8572444496
 H   -0.8359930825   -2.2719541907   -2.9446485966
 H    0.4161952827   -1.6316076532   -1.8497016366
 H   -0.2578327608   -3.9266566889    0.8874696337
 H    0.7502486542   -2.5709291029    0.3188550048
 H   -1.7834574659   -2.1195694522    1.7979154053
 H   -3.1077568271   -3.0010257675   -0.5897560839