15

 O   -0.0219534356    1.4861689572   -0.1270158997
 C    0.0019118993    0.0940640396    0.0084317134
 C    0.9179038558   -0.5710988183   -1.0400048962
 C    2.2901389180   -0.0873730706   -0.9085288475
 N    3.3496601413    0.3509935585   -0.7607564707
 C    0.1434206631   -0.5072297982    1.4326643572
 O   -1.0519631209   -1.2920610176    1.2372022870
 C   -1.4018393224   -0.5368901289    0.0600132418
 H    0.8807567020    1.8235840861   -0.0663078520
 H    0.8968745725   -1.6592054360   -0.9211611513
 H    0.5513387477   -0.3326595526   -2.0443406348
 H    1.0192317164   -1.1283264043    1.6493536021
 H    0.0193164020    0.2523209604    2.2146721200
 H   -2.1786070309    0.2124239577    0.2554682240
 H   -1.7051742382   -1.1799053028   -0.7735983933