17

 C   -0.0768100397    1.7760765915   -0.0697889159
 C    0.0586001005    0.2669551100    0.0426748675
 N    1.2440069506   -0.2996357613   -0.6823765961
 C    1.5820571254   -1.1606989382    0.4811361478
 C    0.5977583290   -0.3457698443    1.3632026970
 O    1.1834810354    0.6414947285    2.1809070887
 C   -1.1899048626   -0.4468451798   -0.4467561036
 O   -1.8052500257   -1.2927409861    0.1526390322
 H    0.8612375912    2.2495897437    0.2222410237
 H   -0.3059315965    2.0607198206   -1.1028810018
 H   -0.8766231000    2.1502451866    0.5777100116
 H    1.0349382799   -0.7900150061   -1.5484955928
 H    1.2973715150   -2.2149707692    0.3799916479
 H    2.6349154505   -1.0918278835    0.7731623294
 H   -0.1453615289   -0.9391397351    1.9035864610
 H    1.4656164759    0.2232397330    2.9997291238
 H   -1.4794197101   -0.1573029902   -1.4860795504