18

 C   -0.2388642495    1.6257236940   -0.0985184054
 C   -0.0069913720    0.1204540097    0.0472432960
 C    0.7925827832   -0.4958696099   -1.1148283044
 C    2.2827239334   -0.2336409359   -1.1285323839
 N    2.8432515311    0.8781288545   -0.9307846258
 O    2.9756500091   -1.3921974475   -1.3952315518
 C    2.1181254201   -2.5278877490   -1.4721818321
 C    0.7098199046   -2.0168852201   -1.1750117527
 O   -0.2630076038   -2.7024332079   -1.0133890498
 H    0.7112820109    2.1601845707   -0.1589892679
 H   -0.8135791169    1.8466245963   -1.0053156471
 H   -0.8050146254    2.0091947718    0.7557796141
 H    0.5192094615   -0.0889898376    0.9854905353
 H   -0.9618763139   -0.4144737026    0.0934957041
 H    0.3734882577   -0.1275168338   -2.0637818787
 H    3.8593191023    0.7845031086   -0.9837266456
 H    2.1687161993   -2.9732838071   -2.4729764269
 H    2.4247629383   -3.2823003843   -0.7399383174