22

 C    0.0408257433    1.5910583284    0.1325103539
 C   -0.0437857429    0.0731320579   -0.0532891450
 C    0.6603058973   -0.4808016847   -1.3244449917
 C   -0.0075426989    0.0355331408   -2.6192819467
 C    2.0656924051   -0.0321149066   -1.3080048743
 N    3.1557960915    0.3494529630   -1.2609258737
 C    0.6917496637   -2.0405019450   -1.2873206900
 C   -0.6827799781   -2.7090004225   -1.2236412886
 O    1.3955321981   -2.4432982378   -2.4547241229
 H    1.0796955493    1.9289303514    0.1816831252
 H   -0.4529209669    2.1293198567   -0.6817617183
 H   -0.4528997037    1.8812198207    1.0645272963
 H    0.3875916347   -0.4224589358    0.8247865081
 H   -1.0956560581   -0.2269463076   -0.1010325215
 H    0.1265584549    1.1138639222   -2.7232741675
 H    0.4299853774   -0.4538778280   -3.4901030516
 H   -1.0808961300   -0.1730725601   -2.5984127655
 H    1.2621775370   -2.3218669909   -0.3884717040
 H   -0.5534605665   -3.7969826741   -1.2288583492
 H   -1.2251433097   -2.4520451434   -0.3099856279
 H   -1.2955298296   -2.4432970994   -2.0888010100
 H    1.5565494620   -3.3900253750   -2.4014070750