22

 C   -0.0233152409    1.3862446253    0.0775512466
 O   -0.0479568899   -0.0176957292    0.0080973577
 C    0.6637368391   -0.5254459671   -1.1000468970
 C    0.5713833783   -2.0452053374   -1.0856355005
 C    1.3196601500   -2.6889368607   -2.2554685971
 C    1.2281714450   -4.2156839193   -2.2479342805
 C    1.8610314845   -4.8455827968   -3.4883855543
 N    2.2224933888   -6.1561205302   -3.3424707458
 O    2.0296027571   -4.2398328673   -4.5287378368
 H    1.0035326868    1.7747645951    0.1744673067
 H   -0.4787428103    1.8495561871   -0.8126861745
 H   -0.5960577880    1.6823684483    0.9600887817
 H    0.2468144313   -0.1248880503   -2.0408995676
 H    1.7196459137   -0.2040711344   -1.0575937860
 H    0.9683916521   -2.4079222138   -0.1291997817
 H   -0.4881093758   -2.3294037429   -1.1102841619
 H    0.9286942433   -2.3260350327   -3.2114046598
 H    2.3758299203   -2.3929791026   -2.2330438681
 H    1.6862404207   -4.6318630978   -1.3419491397
 H    0.1739642297   -4.5265124896   -2.2252405826
 H    1.9989607797   -6.6827958957   -2.5164825716
 H    2.5418963145   -6.6524255379   -4.1583496172