20

 C   -0.2357763046    1.5267021194   -0.3572296398
 C   -0.0946962413    0.0149812033   -0.2990088783
 C    0.6816586485   -0.8042804565   -1.3836271852
 C    1.9342903264   -0.6171408537   -0.4651583541
 C    2.8905038081    0.5534062379   -0.6255080206
 N    0.9248971734   -0.5632569081    0.6840584442
 C    0.4792567714   -1.9872570031    0.6540880787
 C    0.2889558051   -2.1950828273   -0.8803331539
 O   -0.0642183176   -3.1722234356   -1.4791200769
 H    0.6695311391    2.0651587328   -0.6277544237
 H   -1.0097350342    1.7871290327   -1.0871344163
 H   -0.5627399625    1.8899308313    0.6226753154
 H   -1.0977472940   -0.3772063887   -0.0908101706
 H    0.6482549406   -0.6323393224   -2.4584194077
 H    2.5591777562   -1.5148788453   -0.3842638650
 H    3.4557704847    0.6833872785    0.3031976701
 H    3.6039048306    0.3240214227   -1.4241874559
 H    2.4196116994    1.5027644429   -0.8705640258
 H    1.2374536933   -2.6557345077    1.0705536718
 H   -0.4519264025   -2.1294045731    1.2089188835