18

 C    0.1470564059    1.2951422084   -0.4649740532
 C    0.0621259235   -0.1612045348   -0.0512699776
 O    1.0388045864   -0.8686770019    0.0308228437
 C   -1.3358691148   -0.6932664526    0.2273496513
 C   -2.0498815820   -1.2828526055   -1.0451687457
 N   -2.1272129453   -2.5601155369   -0.3420654451
 C   -1.4202059716   -2.1099571837    0.8574156919
 C   -2.5091295259   -3.8003949482   -0.7175621420
 O   -2.4102396933   -4.7893413209   -0.0213879857
 H    1.1618981580    1.5365888614   -0.7820879620
 H   -0.5611231598    1.5151349277   -1.2719027475
 H   -0.1317586432    1.9337285404    0.3817793595
 H   -1.9436205698    0.0645590042    0.7250701676
 H   -3.0183506239   -0.8304117269   -1.2831252950
 H   -1.4299414315   -1.3030423467   -1.9496547422
 H   -0.4449887927   -2.5842696891    0.9945838102
 H   -2.0079754246   -2.1900993682    1.7760253998
 H   -2.9393208753   -3.8080686267   -1.7412052478