15

 O    0.1126324886   -0.0434019049   -0.0733132017
 C    0.0360136530    1.1619046897   -0.0081377133
 C   -1.2045027126    1.9757935381    0.0837013808
 C   -0.9098504462    3.2938946449    0.0247927721
 C   -1.8208201840    4.3715851680    0.0637618877
 C   -2.5682598645    5.3168320697    0.0813869596
 C    0.5786151710    3.5161252613   -0.0422195669
 C    1.3284437220    3.0419475263    1.1818177987
 C    1.1908195644    2.1426028993   -0.0372307518
 H   -2.1885812813    1.5413795524    0.1926229750
 H   -3.2395373508    6.1398983210    0.1013130952
 H    0.9679860905    4.3365665807   -0.6313626641
 H    2.3134600358    3.4582576290    1.3650678618
 H    0.7563142490    2.8068227711    2.0728337806
 H    2.0780223650    1.8845960933   -0.6002209237