21

 O    0.0617031855    1.4431576528    0.0440115198
 C    0.0887648654    0.0246009196    0.0561595600
 C   -1.3479575745   -0.4700085298   -0.0600286406
 C   -1.4356563869   -1.9996054963   -0.0812863641
 C   -2.8808210479   -2.5486590271   -0.0495844622
 C   -3.6943332975   -2.1778133860   -1.3138460566
 O   -5.0080993070   -2.6884014527   -1.2812956979
 C   -2.8854686559   -4.0030093276    0.1067475439
 C   -2.9081328319   -5.2037773424    0.1849975025
 H    0.9652651128    1.7630026687    0.1199152467
 H    0.6866393539   -0.3710685845   -0.7816274444
 H    0.5395994888   -0.3595806683    0.9859993617
 H   -1.9219868223   -0.0692139120    0.7846474437
 H   -1.7806024309   -0.0351931892   -0.9675166322
 H   -0.9268532743   -2.3962032811   -0.9691630534
 H   -0.8997253759   -2.4073563030    0.7837479766
 H   -3.4053090984   -2.1116342128    0.8112939326
 H   -3.7916699658   -1.0911993040   -1.3804892031
 H   -3.1414512292   -2.5232657292   -2.2027702611
 H   -4.9373594772   -3.6419797056   -1.1504093461
 H   -2.9152751708   -6.2613876396    0.2827628140