16

 C    0.2618683994    0.9151603045    0.4333122391
 O   -0.1461623929   -0.0365329016   -0.5394280993
 C   -1.3695977175   -0.6050048699   -0.2696762203
 C   -1.6446583475   -1.9226367531   -0.8884505571
 C   -1.4482815725   -1.8558616487    0.6325055844
 C   -0.2675806854   -2.3918754282    1.2143500019
 C    0.7292943792   -2.8455714464    1.7310215546
 C    1.8541030649   -3.3558746194    2.3073496586
 N    2.8133846721   -3.7899418839    2.8006118968
 H    1.2231159588    1.3112735871    0.1019373384
 H   -0.4610917573    1.7400513474    0.5088430672
 H    0.3805321594    0.4521354820    1.4206880345
 H   -2.1945239270    0.0989240744   -0.1465133267
 H   -2.6422026619   -2.1428663624   -1.2492981822
 H   -0.8328332142   -2.3646257510   -1.4534433201
 H   -2.3437219576   -1.9501386606    1.2400016003