19

 C    0.2061476713    1.3366346474   -0.4658291352
 C    1.4720825922    1.8703969850    0.2024149641
 C    2.0967089034    0.5762632798    0.7741094381
 C    0.8351065988   -0.3032124066    1.0241683468
 O   -0.2818788507    0.3566228551    0.4434307692
 O    2.9266224531   -0.0496547187   -0.2221558837
 C    4.2646994134   -0.1818043260    0.2468362420
 C    4.2354493894    0.3264975176    1.6601901519
 C    3.0131118816    0.7539204911    1.9513649207
 H   -0.5798803536    2.0833019696   -0.6059588536
 H    0.4450233749    0.8873410253   -1.4424227604
 H    2.1651354205    2.3738580547   -0.4736961962
 H    1.2049246748    2.5519147952    1.0169942871
 H    1.0087579438   -1.2830612232    0.5609996635
 H    0.6281967952   -0.4472711573    2.0903757729
 H    4.5789346384   -1.2345512942    0.1800649563
 H    4.9510884085    0.4000136854   -0.3894226995
 H    5.1025096016    0.3355102332    2.3081215552
 H    2.6749401635    1.1835591467    2.8858849207