25

 C    0.0526879657    1.5255594966   -0.2111906377
 C    0.0069433198    0.0217312015   -0.0103468171
 C   -1.1952421570   -0.6375035431   -0.6624894673
 C    1.3083542590   -0.7509232835   -0.0065150525
 C    0.5156713995   -0.6001468440    1.2748826493
 C    1.0597788978    0.1871923267    2.4503359353
 C    1.9633680877   -0.6637291269    3.3521433116
 C    2.5158081321    0.1111469781    4.5405657053
 O    3.3259888819   -0.7709363086    5.3040103456
 H    0.9494612207    1.9782350346    0.2188370440
 H    0.0446499228    1.7685133701   -1.2804266070
 H   -0.8186262993    2.0137036088    0.2422565212
 H   -1.2036067890   -0.4604022805   -1.7449223720
 H   -1.1942033092   -1.7203426518   -0.5029149205
 H   -2.1338225239   -0.2411886008   -0.2561158832
 H    1.3432708855   -1.7207488905   -0.4925213496
 H    2.2308040517   -0.1830619045   -0.0901716051
 H   -0.0296107696   -1.4914709146    1.5818810934
 H    1.6242743867    1.0569171372    2.0938464334
 H    0.2258868972    0.5875739471    3.0443779616
 H    1.4085843572   -1.5308173569    3.7312488700
 H    2.8032445408   -1.0617815970    2.7706545591
 H    3.0980789576    0.9764665365    4.1819528784
 H    1.6835567563    0.5099675128    5.1444462244
 H    3.6759294880   -0.2831161873    6.0550192294