16

 C    0.1972930917    0.5904053134    0.5376071875
 O   -0.4529425465    0.2472093347   -0.6721870792
 C   -1.6400900265   -0.5031481584   -0.4961434665
 C   -1.3406905867   -1.9620775973   -0.2249391453
 N   -1.1646509190   -2.7671740819   -1.2862389458
 C   -0.8624783382   -4.0218627463   -0.9945921766
 C   -0.7369859108   -4.4344677258    0.3330867732
 N   -0.9255833715   -3.5905953558    1.3420474280
 N   -1.2410657822   -2.3291716951    1.0580328206
 H    1.0685535355    1.1899680556    0.2637915866
 H   -0.4597625912    1.1858637207    1.1892249064
 H    0.5287574452   -0.2906286558    1.1021112851
 H   -2.2463309216   -0.1005905082    0.3267729653
 H   -2.1924338280   -0.4282400982   -1.4358046492
 H   -0.7184923460   -4.7136370524   -1.8217115360
 H   -0.4855086939   -5.4559854791    0.5999215059