16

 N    0.0766469971   -1.1589097638   -0.0547902210
 C    0.0200111570   -0.0058080371   -0.0101551588
 C   -0.0209976749    1.4470045010    0.0774782100
 C   -0.8996867823    2.1407641301    1.1499091390
 C   -1.0998576143    3.1433777948   -0.0045091290
 C    0.0707180313    4.1159378406   -0.0706466798
 O    1.2588024663    3.4730867770    0.3899333634
 C    1.3692968183    2.1056563078    0.0300090086
 O   -0.8123659276    2.0793317945   -0.9698098652
 H   -1.8003181174    1.5671063649    1.3632982465
 H   -0.4091282125    2.4806671445    2.0614072201
 H   -2.0737042275    3.6066629587   -0.1721655089
 H    0.1833010571    4.4657496969   -1.1072200059
 H   -0.0786454708    4.9809917488    0.5835937628
 H    2.0593568764    1.6481058862    0.7452068633
 H    1.7656646638    1.9806306651   -0.9877982651