18

 C   -0.0203758958    1.5182146794    0.0574814162
 C   -0.0072943500    0.0221485450    0.0194957603
 C   -0.0249759284   -0.7833092079   -1.0676225753
 C   -0.0020013386   -2.2557059404   -0.6826732497
 C    0.0323531107   -2.1868744200    0.8191841631
 C    0.0281706940   -0.8555380786    1.1819117738
 N    0.0588858487   -0.7721516595    2.5465140741
 C    0.0833695573   -2.0565693454    3.0582520733
 C    0.0671014774   -2.9565015235    2.0073982776
 H    0.8707718080    1.9141557346    0.5608955855
 H   -0.0512186186    1.9394379258   -0.9505160019
 H   -0.8906682017    1.8975785079    0.6079150732
 H   -0.0522913385   -0.4425490813   -2.0951288150
 H   -0.8839280012   -2.7826389981   -1.0719174562
 H    0.8707166586   -2.7659212699   -1.1128078518
 H    0.0639892856    0.0668906335    3.0987943529
 H    0.1098837295   -2.2219485273    4.1235171713
 H    0.0795605732   -4.0311014245    2.1108041186