17

 C    0.0152830078    1.4651151673   -0.0395523650
 C    0.0374391019   -0.0297945507   -0.0523341586
 N    0.6603005750   -0.8719294015   -1.1249313000
 C    0.0964019283   -1.8776140982   -0.1758394492
 C    0.4886092647   -1.0224581707    1.0631067805
 N   -0.8635247884   -1.0221164016    1.7072905426
 C   -1.1716808377   -1.0243147626    0.2343483473
 C   -2.4819924277   -1.0338401744   -0.3325936289
 C   -3.5709581467   -1.0429181646   -0.8457611631
 H    1.0312648898    1.8641623506   -0.1181019678
 H   -0.5740444770    1.8568381130   -0.8753164546
 H   -0.4337340556    1.8168293206    0.8938601443
 H    0.0951521681   -0.8330812027   -1.9778432625
 H    0.1631949343   -2.9572370597   -0.3220289745
 H    1.4252881038   -1.0227415934    1.6179437718
 H   -1.0680579105   -1.9426843745    2.1057191750
 H   -4.5356819402   -1.0489324967   -1.2900183674