18

 C   -0.0454175162    1.5622890032   -0.0079742138
 C    0.0922219673    0.0636262306   -0.0185042559
 N   -0.7243197917   -0.7713029301    0.8996245368
 C    0.7600425641   -0.7466313073    1.0681699293
 C    1.4529045923   -1.9435737630    0.4086181836
 C    1.1103605371   -1.7745360534   -1.0553038846
 C    0.3949001582   -0.6742425861   -1.2873255288
 C    1.3135596443   -0.1530797228    2.2450346520
 C    1.7826954635    0.3305148890    3.2428956491
 H    0.7834874502    2.0337057552   -0.5458577677
 H   -0.9783586453    1.8702913382   -0.4936764263
 H   -0.0458184008    1.9484615398    1.0153541020
 H   -1.1182321540   -0.1676491177    1.6221468159
 H    2.5351335963   -1.9171093702    0.5840029907
 H    1.0803844609   -2.8903372189    0.8160885547
 H    1.4083250817   -2.4994663915   -1.8041262524
 H    0.0345471038   -0.3396110834   -2.2531627074
 H    2.1960720283    0.7572896584    4.1228991628