19

 C    0.0657402012    1.4676360331    0.1253351473
 C   -0.0231607174   -0.0369417456    0.0203037261
 C   -1.1746292030   -0.6707462323    0.3099767334
 C   -1.4980263133   -2.1103348406    0.1791429183
 O   -0.9625200179   -2.8728873757   -0.9240204005
 C   -0.5265968958   -3.2030461224    0.3855816909
 C    0.9182183446   -2.9013129280    0.7757380607
 C    1.6236482934   -1.9287487588   -0.1331550501
 C    1.2037473279   -0.6974988402   -0.4408925345
 H    0.8626477184    1.7700120353    0.8155449528
 H    0.3120113667    1.9096971937   -0.8485006425
 H   -0.8731166044    1.9075678998    0.4698707417
 H   -2.0091133681   -0.0652824721    0.6559403895
 H   -2.5445843917   -2.3425280415    0.3769197967
 H   -0.9082121473   -4.1583385874    0.7545939028
 H    0.9029949621   -2.5165029552    1.8065927918
 H    1.4799849999   -3.8402865183    0.8074976273
 H    2.5598208342   -2.2709452695   -0.5653416107
 H    1.8479134805   -0.0848646142   -1.0700023308