18

 C   -0.0582631562    1.5922065762   -0.0063325844
 C   -0.0291371551    0.0731098306    0.0385041829
 O   -1.3081551446   -0.4970180288   -0.1419389280
 C    1.0728186762   -0.6063547707   -0.8376307430
 O    1.2670201542   -0.7248238111   -2.0190725149
 N    1.7201791851   -1.0613253562    0.2837112231
 C    0.7182259598   -0.5797214171    1.2231904095
 C    0.9543619671   -0.0730495138    2.6066740827
 C    0.1271904445   -1.3316828310    2.3642558590
 H    0.9289945417    2.0150649232    0.2010673874
 H   -0.3716537705    1.9319361238   -0.9991171504
 H   -0.7708431931    1.9769796866    0.7298686503
 H   -1.5377195025   -0.4002595848   -1.0736886383
 H    2.4783988053   -1.7199285975    0.3918899832
 H    1.9448918901   -0.1943482926    3.0334391096
 H    0.4414102857    0.8302916484    2.9210901845
 H   -0.9486771481   -1.2811888684    2.4907938147
 H    0.5693671404   -2.2849639369    2.6354968020