21

 O    0.7411028620    0.4866692303   -0.8104036698
 C   -0.0012276515   -0.2885907347    0.0943886284
 C    0.1022856825   -0.0104761198    1.6225821822
 C   -1.4090203056   -0.2841957732    1.7026963623
 C   -1.5448002031   -0.1117870079    0.1826077161
 C   -2.1169317577   -1.3826852101    2.4397303583
 C   -1.5597638513   -1.5336701757    3.8600735042
 C   -1.8824119894   -0.0269845054    4.1334620165
 C   -2.4431809409    0.0975051101    2.7102726728
 H    0.5448243924    1.4136974090   -0.6375884880
 H    0.2576762169   -1.3272348166   -0.1285147644
 H    0.7825877935   -0.6372501411    2.2044113520
 H    0.3417084025    1.0426930809    1.8171211149
 H   -1.8394343606    0.9088833298   -0.0928125468
 H   -2.1720684325   -0.8170810192   -0.3692343158
 H   -2.7031436929   -2.1263682382    1.9106493835
 H   -2.1598623188   -2.2005065368    4.4830718605
 H   -0.5111175875   -1.8398440694    3.9386499406
 H   -2.6429162234    0.0972811841    4.9073504344
 H   -1.0355773950    0.6253214964    4.3721855644
 H   -3.3212416496    0.6676293675    2.4264391838