17

 C   -0.1154190109    1.5363186647   -0.0262840239
 C    0.0633902539    0.0210621227    0.0355477034
 C   -1.2149290140   -0.6001398767   -0.3228377834
 N   -2.2540548492   -1.0479228185   -0.5624515567
 N    1.2830163531   -0.6002893994   -0.7025194305
 C    2.1282102383   -0.1143274331    0.4952581580
 C    0.8861181901   -0.6984318421    1.1771972019
 O    0.6562870106   -0.7064671972    2.5320557455
 C    1.0500607104   -1.8560729336    0.1585140225
 H   -0.2756269122    1.8474600684   -1.0625090073
 H   -0.9977607065    1.8227246954    0.5521888317
 H    0.7378190000    2.0837176743    0.3723352915
 H    3.0578134079   -0.6751661119    0.6018124156
 H    2.3151230459    0.9566499825    0.5215171129
 H   -0.1409023967   -1.2181795756    2.7144221566
 H    0.1757375632   -2.4385647360   -0.1339528502
 H    1.9421022162   -2.4776690738    0.2472886324