17

 O    0.1058100825    1.2579670765   -0.3553785309
 C    0.0038344265   -0.0296056064    0.2304784744
 C   -1.4111485400   -0.5194412865    0.2369840119
 C   -2.5731138102   -0.1592618364    1.1633752648
 C   -3.3615223207   -1.2748222155    0.4241315857
 C   -3.4519601567   -0.7100377621   -1.0016844107
 N   -1.9633197756   -0.8483858988   -1.1387862960
 C   -1.9725287261   -1.8627487607   -0.0431010526
 H   -0.2906424904    1.1776190428   -1.2312397267
 H    0.6368233463   -0.7622784640   -0.2937519508
 H    0.3815200918    0.0651613004    1.2542104053
 H   -2.3367936233   -0.4382340778    2.1938026895
 H   -2.9823753570    0.8559499115    1.1361407236
 H   -4.1814574427   -1.8026766184    0.9066425590
 H   -3.9262474370   -1.3887844195   -1.7152642369
 H   -3.8450884573    0.3049957802   -1.1345451905
 H   -1.5398373301   -2.8516806353   -0.1223837090