16

 C   -0.2926676270    1.5087007120   -0.0501414971
 C    0.0185524575    0.0178656072   -0.0320617774
 C    1.2386481369   -0.3887686744   -0.9167247943
 C    2.0749521682   -0.5149515181    0.3623977351
 O    3.2421432168   -0.5369602477    0.6027420237
 C    0.7951413071   -0.4790534452    1.2535678012
 C    0.7920435098    0.2949009375    2.4708406374
 C    0.8015538014    0.9607656240    3.4721796822
 H    0.6082927035    2.1062110226    0.1267810827
 H   -0.7065635381    1.8013690997   -1.0203984216
 H   -1.0166971215    1.7698646668    0.7266449821
 H   -0.8856176163   -0.5627055197   -0.2246092570
 H    1.1231672338   -1.3557842928   -1.4170668144
 H    1.5973174036    0.3414324151   -1.6466565510
 H    0.5216631977   -1.5222141794    1.4622561758
 H    0.8151715465    1.5419546324    4.3607736828