21

 C   -0.8918963364    1.0462978944   -0.0749693312
 C    0.1108998651   -0.0889523050    0.0373878558
 N    1.4053780386    0.1495397812   -0.6474463249
 C    2.1615994227   -0.5036801364    0.4457494143
 C    2.5465489703   -1.9688821051    0.1966724085
 C    3.3593254307    0.2542932828    0.8423086085
 N    4.3042065038    0.8342209005    1.1696974949
 C    0.8967627597   -0.3321141980    1.3673398987
 C    0.9410076221    0.8118439217    2.3704680949
 H   -0.4544376083    1.9978889387    0.2354238831
 H   -1.2236216208    1.1534150541   -1.1134033566
 H   -1.7779905978    0.8467700491    0.5376522162
 H   -0.3741235662   -1.0232905017   -0.2827841103
 H    1.5246837183   -0.2729540400   -1.5629497697
 H    3.2720538964   -2.0452261750   -0.6193720781
 H    2.9957390425   -2.4139826312    1.0897641119
 H    1.6574908173   -2.5480315519   -0.0695513647
 H    0.6286211628   -1.2626958251    1.8736631356
 H    1.2513332929    1.7505962033    1.9046970191
 H   -0.0432680147    0.9630419756    2.8248416777
 H    1.6512313413    0.5923635579    3.1734307463