18

 O    0.1266226242    1.2678205179    0.2791967712
 C   -0.0695688307   -0.1227752962    0.1883181950
 C   -1.5460727826   -0.5096848913   -0.0956323296
 C   -1.7178829154   -2.0617610090   -0.0976330363
 C   -2.5277765191   -2.3315813711    1.1916097473
 O   -2.3778364036   -1.1682953810    1.9932206642
 C   -2.4433343950   -0.0767560592    1.1014794609
 C   -1.9578042902    0.1217710745   -1.3467281663
 N   -2.2438661907    0.6598415722   -2.3300236799
 H   -0.0209060716    1.6523155809   -0.5929852686
 H    0.5767208788   -0.5836869222   -0.5726319570
 H    0.1953327668   -0.5417538330    1.1638647543
 H   -2.2325530312   -2.4182896189   -0.9909461342
 H   -0.7358135724   -2.5420526789   -0.0661849336
 H   -3.5891859173   -2.4962238797    0.9512127405
 H   -2.1650536872   -3.1861618545    1.7664750627
 H   -2.0578312510    0.8156657376    1.5965441961
 H   -3.4746840118    0.1066995519    0.7644636933