16

 C   -0.0291333588    1.5130696665    0.0091371778
 C   -0.0229172117    0.0133529742    0.0020041809
 C   -0.9169737104   -0.8583390726    0.8434927697
 C    0.5801741781   -0.9921804008    0.9560452824
 N    1.3184029035   -1.7304770237   -0.1461080669
 C    0.3658021238   -2.2500924893   -1.1469671967
 C    0.6547450994   -0.8009614696   -1.1269187018
 H    0.9534040812    1.9161458209   -0.2627734107
 H   -0.7608797279    1.9136707072   -0.7034679810
 H   -0.2868348046    1.9003667615    0.9999020106
 H   -1.3476332201   -0.3377182245    1.6946657716
 H   -1.5731024555   -1.6213232592    0.4392481778
 H    1.1127097308   -0.8587444888    1.8897126508
 H    0.8702936666   -2.8338383690   -1.9123886277
 H   -0.5938083539   -2.6569456822   -0.8503866148
 H    1.2418974195   -0.3140831908   -1.9007417420