19

 C    1.2446783738    1.4021186807    0.4970972698
 C    0.8988768956   -0.0888300175    0.5139073063
 C    1.0820574136   -0.7415184640   -0.8563061817
 C    0.7520707615   -2.2098657151   -0.8830988902
 N    0.3602132355   -2.8725116609    0.1078673806
 O    0.9670110076   -2.6676846905   -2.1995087995
 C    0.7573176266   -3.9674780002   -2.5751642239
 N    1.0964829989   -4.0997753225   -3.8845503868
 O    0.3571652709   -4.8644481414   -1.8705801948
 H    2.2865696770    1.5685649868    0.2002563500
 H    0.6100702721    1.9528686775   -0.2067063503
 H    1.1069013911    1.8487389736    1.4863554071
 H    1.5201188357   -0.6149470314    1.2457269117
 H   -0.1344287015   -0.2357537762    0.8441076888
 H    0.4603966956   -0.2416491325   -1.6117102206
 H    2.1151209705   -0.6209378867   -1.2099840970
 H    0.1938861055   -3.8484302223   -0.1348714035
 H    1.2855354132   -3.2861089732   -4.4425760409
 H    0.8705639067   -4.9691073844   -4.3348242550