18

 C    0.0636925808    1.5712976025    0.0084071839
 C    0.0119949542    0.0282872701    0.0477928656
 C    0.8238464826   -0.5255768096    1.2411567369
 N   -1.3854403308   -0.4458291433    0.0531798481
 C   -2.2437172680   -0.1869355133    1.1050004391
 N   -3.4437674278   -0.8767205544    1.0158973601
 O   -1.9803942815    0.5537602458    2.0354623415
 C    0.5989786093   -0.4917841752   -1.2040165309
 N    1.0634082890   -0.9093940151   -2.1759753511
 H    1.1009108690    1.9071876644   -0.0645350129
 H   -0.4900136793    1.9475074078   -0.8546938119
 H   -0.3839460635    1.9615094821    0.9219084845
 H    0.3738231108   -0.1624658662    2.1655711648
 H    0.8136996354   -1.6186054550    1.2394300811
 H    1.8618576435   -0.1880094209    1.1831816962
 H   -1.5557328243   -1.2888385660   -0.4734885555
 H   -3.8043850571   -1.0879265795    0.0975290873
 H   -4.1363394124   -0.5314179041    1.6630158231