20

 C    0.0809091589    1.5897012762   -0.1554229316
 C    0.0243045188    0.0874989460    0.0224648984
 C    1.2533708686   -0.7703412238   -0.1343111050
 C    0.6146172948   -0.6105869905    1.2291596804
 C    1.3159567998    0.1415691856    2.3323324626
 O    0.4025302013    0.8907546078    3.1531745967
 C    2.1416501318   -0.7766173094    3.2397915782
 O    2.7127661653   -0.0502593364    4.3050241009
 H    1.0498338117    2.0001654181    0.1417375078
 H   -0.0798823004    1.8583891997   -1.2050386242
 H   -0.6849043756    2.0901078841    0.4456134700
 H   -0.8981858061   -0.3592810267   -0.3403775273
 H    1.1744517952   -1.7291633816   -0.6344720689
 H    2.1981615309   -0.2613277780   -0.3013304618
 H    0.0562215289   -1.4749043216    1.5881020306
 H    1.9878233900    0.8999125878    1.9175430079
 H   -0.3400558894    0.3122841313    3.3619643475
 H    1.4916308311   -1.5923349412    3.6088371281
 H    2.9567043422   -1.2397476379    2.6734179597
 H    2.0191391623    0.5599754304    4.5895971801