17

 C   -0.1172571073    1.4942479127   -0.0443991380
 N    0.1256998997    0.0626092349    0.0767483637
 C    1.4109836942   -0.5553457043   -0.1318250547
 C    0.7420160488   -0.5584330153    1.2256944483
 C    1.8864917647    0.2922956710    1.8291809912
 O    2.6518222933   -0.3573581663    2.8075018223
 C    2.5803942383    0.2857589604    0.4054444721
 O    3.7537023438   -0.5102121764    0.4055656465
 H    0.6812685383    2.1496497424    0.3303623523
 H   -0.2786192227    1.7295782875   -1.1008165719
 H   -1.0351780039    1.7368736348    0.4992755549
 H    1.5183580441   -1.3392620325   -0.8745942355
 H    0.2173765894   -1.3516215270    1.7492527341
 H    1.5964586021    1.2640611688    2.2395384783
 H    3.1810268539   -1.0148598826    2.3323893560
 H    2.7654683117    1.2530842679   -0.0783745879
 H    4.4786465516    0.0311077640    0.7367918184