17

 C   -0.0255929947    1.4971083991   -0.1062698261
 C    0.0153592389   -0.0163641171   -0.0303753490
 C    1.3597491252   -0.7202951068   -0.1459562576
 C    0.6638170226   -0.6726459263    1.1799910019
 C   -1.1530710347   -0.7083010908   -0.6187855204
 N   -1.2861245829   -2.0130704024   -0.6414253307
 O   -2.5168438900   -2.2124467126   -1.2804267152
 C   -2.9813409937   -0.9991695189   -1.5682149792
 N   -2.2111541136   -0.0278053456   -1.1989395386
 H    0.8745778725    1.9179668078    0.3508631386
 H   -0.0780500428    1.8427430676   -1.1428133590
 H   -0.8972089913    1.8988956506    0.4186130433
 H    1.3778861443   -1.6653249747   -0.6757443287
 H    2.2281778034   -0.0886365251   -0.2993872887
 H    1.0500555535   -0.0080597205    1.9453947360
 H    0.2105872035   -1.5854199082    1.5481181374
 H   -3.9356370403   -0.9429685362   -2.0713686140