13

 N    0.0645104988    1.3325151055    0.0101650711
 C    0.0492522926    0.0799396782    0.0036532971
 O    1.1415605892   -0.7472513748   -0.0080216081
 C    0.7485805748   -2.1152787117   -0.0128923238
 C   -0.7701357800   -2.0925278712   -0.0025946250
 O   -1.5300626073   -3.0224462453   -0.0028729289
 N   -1.1085205596   -0.7321785218    0.0069568432
 C   -2.4622110007   -0.3145234369    0.0186490104
 O   -2.8319265767    0.8210498862    0.0277165208
 H    1.0249417204    1.6737755369    0.0056188321
 H    1.1248736076   -2.6184534327   -0.9093819500
 H    1.1367205900   -2.6282147597    0.8729531190
 H   -3.1158778589   -1.2007534328    0.0181379623