23

 C   -0.1778196857    1.3259006470   -0.0476542289
 C    0.1518012548   -0.1456773166    0.0851110432
 C    1.5131988706   -0.7493503705   -0.1544545547
 C    2.6512518047    0.1635550122    0.3450200971
 C    2.0141911497    0.1498474408    1.7746615831
 C    0.8883400059   -0.7628006533    1.2478159873
 C    0.5900784839   -2.1991117166    1.6303712811
 C    0.6380621838   -2.9725732100    0.2746745882
 C    1.6084285935   -2.1771905504   -0.6549560304
 H    0.6243427149    1.9727915138    0.3160081140
 H   -0.3615331624    1.5885996670   -1.0953996612
 H   -1.0815569185    1.5730968732    0.5203992950
 H   -0.6527152439   -0.7800513494   -0.2794672955
 H    3.6222460994   -0.3374808298    0.3193355394
 H    2.7597357548    1.1353979845   -0.1475253106
 H    2.6479564539   -0.3584436768    2.5057620119
 H    1.7135890553    1.1128874967    2.2001512709
 H    1.3794655429   -2.5627500885    2.2999433518
 H   -0.3631385812   -2.3554967535    2.1484213671
 H    0.9523019930   -4.0123153235    0.4047272892
 H   -0.3612507213   -3.0094307362   -0.1709769425
 H    1.3573105078   -2.3184615186   -1.7125180482
 H    2.6367085143   -2.5356875114   -0.5214951974