17

 C    0.0039777571    1.0780401288   -0.5843154126
 O   -0.2055299892   -0.3185552587   -0.4382385443
 C   -1.3267517494   -0.6563480147    0.3344347398
 O   -2.5504855822   -0.3409590053   -0.3031733599
 C   -2.8277781181   -1.3354721362   -1.2918727460
 C   -1.9970350238   -2.5550946557   -0.8966524966
 O   -1.8662265144   -3.5713735798   -1.5195929087
 C   -1.3132306267   -2.1883903198    0.4383363845
 O   -0.0736377233   -2.7823644855    0.6661651852
 H    0.8922910765    1.2047046915   -1.2056569750
 H   -0.8538883744    1.5578794030   -1.0679027605
 H    0.1751585537    1.5534400020    0.3917276478
 H   -1.3257654862   -0.1149436877    1.2877255843
 H   -3.8995643839   -1.5574364843   -1.2835314615
 H   -2.5498870993   -1.0007674216   -2.2992255227
 H   -1.9874502501   -2.4876452242    1.2508484049
 H    0.5514474736   -2.3448979617    0.0745132915