14

 O    0.0478281313    0.0155331060   -0.8718335825
 C    0.0131760086    1.0980676232   -0.3170202794
 N   -1.2073858736    1.7722073840   -0.2611472781
 C   -1.5950893032    2.9739529355    0.2723377390
 C   -0.8936696236    3.9162437610    0.9329769911
 C    0.5202037742    3.9494324514    1.2902969131
 O    0.9879075766    4.9028682931    1.8990173916
 C    1.4380765767    2.8357782797    0.9317246589
 C    1.2270583280    1.6837189081    0.2806502466
 H   -1.9274301965    1.2284076111   -0.7178438374
 H   -2.6535936338    3.1546450347    0.1112575954
 H   -1.4420420190    4.7929289288    1.2580048306
 H    2.4472614342    3.0390799668    1.2810391883
 H    2.0680493902    1.0128542465    0.1341258829