18

 C   -0.0002270963    1.5447540875   -0.0075177819
 C    0.0663868283    0.0370330400    0.0367102081
 C   -0.8356573658   -0.7385269205    0.9895410915
 C    0.6521165056   -0.7836912512    1.1776003993
 C    1.3762822451   -1.9827975344    0.5689031069
 N    0.4835718300   -2.9272269788   -0.1228409035
 C    1.2515446025   -1.9221311759   -0.9101887852
 C    0.4870380866   -0.6531881226   -1.2444879250
 O    0.3890724868   -0.1793766916   -2.3506623823
 H    0.9577695988    1.9794598205   -0.3111377617
 H   -0.7523976663    1.8716786354   -0.7318830608
 H   -0.2663002449    1.9522077234    0.9723752247
 H   -1.4067601485   -0.1212786184    1.6754960717
 H   -1.3315888022   -1.6368629263    0.6477921258
 H    1.1066590832   -0.2990198509    2.0337965952
 H    2.2710480794   -2.3574409490    1.0527278403
 H    0.9495460062   -3.8262435012   -0.2259681891
 H    2.0058510515   -2.2582165961   -1.6123225340