20

 C   -0.0658194632    1.5687323517   -0.0779287749
 C    0.0395038847    0.0533900194   -0.0114099903
 C    1.0799779275   -0.6448599858   -0.9104535814
 N    2.4210070542   -0.1774765529   -0.4780847408
 C    1.7423643832   -1.2755881515    0.2635180292
 C    0.7624140383   -0.6068866888    1.1995930367
 C    0.9894550600   -0.0486415001    2.5788060550
 C    0.0637905714   -1.2263313233    2.3609146555
 O   -1.3223740408   -1.0429583505    2.4128038753
 H    0.9233357025    2.0254104694    0.0084880307
 H   -0.5125993984    1.8871374110   -1.0265308949
 H   -0.6995679546    1.9507918343    0.7293818324
 H   -0.9431446259   -0.4120935551   -0.1338228327
 H    0.9257957701   -1.0348660451   -1.9092798949
 H    3.0990682188   -0.6169229545   -1.1012233860
 H    2.2047512465   -2.2501586059    0.3674927411
 H    1.9456461716   -0.2174886241    3.0639069434
 H    0.5224248729    0.9054028385    2.8037306042
 H    0.4077805943   -2.2064536269    2.6963435348
 H   -1.5719499231   -0.9148880698    3.3338719775