18

 C   -0.2201919487    1.1620522955   -1.4483159166
 C    0.3170493904   -0.1329810771   -0.8638843528
 O    1.7107020781   -0.3876544916   -1.1659457554
 C    2.1156033967   -0.4987688856    0.2345228598
 C    2.5481416857   -1.9195660157    0.5818481354
 C    3.1564764435    0.5483863505    0.6099691153
 C    0.6656994622   -0.1603515249    0.6299414292
 O    0.0819572534    0.0311774200    1.6538327280
 H    0.3813115746    2.0178434392   -1.1299671383
 H   -0.2059717955    1.1166683610   -2.5411483482
 H   -1.2526863875    1.3179100066   -1.1205610822
 H   -0.3151490888   -0.9820433941   -1.1634374949
 H    3.4729592509   -2.1658437079    0.0504556403
 H    2.7280860191   -2.0123535791    1.6571215775
 H    1.7840088175   -2.6465043189    0.2935421417
 H    2.8238869064    1.5518096960    0.3325898618
 H    3.3419049190    0.5282655115    1.6880671731
 H    4.0977904429    0.3424773847    0.0904801964