18

 C   -0.0790617265    1.3982879144   -0.6792412613
 C   -0.0845737662    0.0083995978   -0.0813538766
 C    1.1249189196   -0.8237049627   -0.1388787981
 O    0.7419040061   -0.1641620537    1.0761496076
 C   -1.4380540841   -0.6581117815    0.0045475878
 O   -2.0507415600   -0.8409567168   -1.2481723140
 C   -1.6816255845   -1.7445230458    1.0025171104
 C   -2.3228086248   -0.3831160176    1.1945598349
 H    0.9294059335    1.8178847842   -0.6678706288
 H   -0.4307644989    1.3734122390   -1.7156805638
 H   -0.7348664850    2.0650633669   -0.1086664257
 H    1.0312333949   -1.9079349389   -0.1286867043
 H    2.0263363074   -0.4348513460   -0.6102285689
 H   -2.4643652545   -0.0091534507   -1.5022537306
 H   -2.3191288959   -2.5576409193    0.6764663691
 H   -0.8703316526   -2.0107225398    1.6687834223
 H   -1.9360672323    0.2490700476    1.9863537698
 H   -3.3880979863   -0.2985484473    1.0090110802