15

 O    0.0810025255    1.2819105726    0.4675441518
 C   -0.0070540812   -0.0284867623   -0.0600670999
 C   -1.4417205494   -0.4497462880   -0.0218087545
 C   -2.5965945705    0.3062992537   -0.1105673821
 C   -3.6942525352   -0.5796889090   -0.0628896243
 C   -3.1864010531   -1.8642030541    0.0521721318
 N   -1.8073780440   -1.7600354401    0.0779742580
 C   -3.8360895427   -3.1118054573    0.1409971486
 N   -4.3548681989   -4.1468854999    0.2138806784
 H    0.9417017026    1.6411012582    0.2327566020
 H    0.3663424395   -0.0610442833   -1.0973068306
 H    0.6031693455   -0.7439945745    0.5182959214
 H   -2.6261830042    1.3805956727   -0.1895244029
 H   -4.7424044688   -0.3288546250   -0.1023472296
 H   -1.1810817152   -2.5419575136    0.1743457018