21

 O    0.1694378445    1.3644730282    0.2703067518
 C    0.0195215907   -0.0161049885    0.0091296041
 C   -1.4472003748   -0.5343716898   -0.0979533836
 C   -2.2724518037    0.2964550055   -1.1078163759
 C   -1.5752595122   -0.5020314255   -2.2330000277
 C   -0.1434456374    0.0367881281   -2.4947013294
 C    0.6585637015   -0.5374121739   -1.3040167965
 C    0.1779098469   -2.0017196418   -1.2911261415
 C   -1.3085699512   -1.6550054003   -1.1926520665
 H   -0.2868384813    1.8573332498   -0.4185985578
 H    0.5105713730   -0.5056888895    0.8571538908
 H   -1.8938357859   -0.7592753938    0.8717480274
 H   -3.3378949667    0.0594294619   -1.0368465109
 H   -2.1717588039    1.3892288749   -1.1060153871
 H   -2.1390660925   -0.7111823168   -3.1436994716
 H    0.2575778366   -0.3474212287   -3.4383531510
 H   -0.1105210407    1.1309480978   -2.5585874881
 H    1.7362486514   -0.3733263958   -1.3573543008
 H    0.4338440345   -2.5484072794   -2.2047800343
 H    0.5501464799   -2.5690543117   -0.4315151206
 H   -2.0363232187   -2.4650860710   -1.1640370906