18

 N   -0.0857395448    1.2763319195   -0.2738173572
 C    0.0561840181   -0.0551387599   -0.1125530862
 O    1.1227152799   -0.6438903546   -0.0435596895
 C   -1.2872079856   -0.7772391324   -0.0217689041
 N   -2.3580471054   -0.0657073539   -0.1056488700
 N   -1.2114520835   -2.1160569827    0.1402489102
 C   -0.1322611834   -3.1093170523    0.2595196866
 C   -1.2264852204   -4.2068190470    0.3954385639
 C   -2.2954850823   -3.0848806924    0.2607817329
 H    0.7313395842    1.8567244227   -0.3460952887
 H   -1.0211930121    1.6517152453   -0.3170609192
 H   -3.2039691797   -0.6314246631   -0.0351359170
 H    0.5053367283   -3.1760263756   -0.6248815299
 H    0.5086254601   -2.9616106175    1.1316264918
 H   -1.2394263181   -4.9416694497   -0.4097890075
 H   -1.2359897919   -4.7269259000    1.3535374405
 H   -2.9337031637   -2.9285689063    1.1401643551
 H   -2.9374194896   -3.1443482302   -0.6277240118