19

 C   -0.0650735825    1.5217410690   -0.0763828584
 C   -0.0847149553    0.0197664827   -0.0904575224
 C    0.8294393138   -0.9530414403   -0.9036205880
 C    1.9514934104   -0.9298245492    0.2094177155
 C    0.6056142384   -0.9210831138    0.9430800615
 O   -0.0312215139   -0.8918579083    2.1888964831
 C   -1.4199407908   -0.9245149591    1.7170859003
 C   -1.2752177954   -0.9453402122    0.1615987659
 C   -0.0753425037   -1.8914903470   -0.0566986116
 H    0.9618799918    1.9038387266   -0.0947996983
 H   -0.5895753830    1.9398669321   -0.9427466969
 H   -0.5465900653    1.9119166635    0.8274040529
 H    0.9842101947   -0.9775132486   -1.9805503945
 H    2.5653835355   -1.8302404276    0.3024508651
 H    2.5680083826   -0.0284561061    0.2725704084
 H   -1.9061469531   -1.8242404850    2.1101756068
 H   -1.9439107174   -0.0393916834    2.0933872782
 H   -2.2022562284   -0.9627041862   -0.4157063740
 H   -0.0285388385   -2.9788301771    0.0017294565