15

 O    0.0465423962    0.0555933364   -0.0367207339
 C    0.0216870569    1.2506077021    0.0067443166
 C   -1.1957700064    2.2040893591    0.0292799182
 C   -0.3808296450    3.5170645751    0.0264114956
 C    0.7089365846    3.2651730280   -1.0614904133
 C    1.1795627739    2.2554435571    0.0234338033
 N    0.6424516594    3.1845865582    1.1033679606
 C   -1.0962952309    4.7706652473    0.1199350392
 N   -1.6536239259    5.7812567256    0.1802141492
 H   -1.8369143737    2.0768806132   -0.8455406429
 H   -1.7855768064    2.0842661317    0.9395930235
 H    0.3959199223    2.9051570589   -2.0461483617
 H    1.3935710539    4.1102479078   -1.1563437005
 H    2.1920987894    1.8711555787    0.1097147165
 H    1.2859977416    3.9759154508    1.1650541895