21

 C   -0.2231560261    1.5265314386    0.0718873783
 C   -0.0804711463    0.0399518049   -0.0060521085
 C   -0.0603024167   -0.7307839931   -1.0973166366
 C    0.0797918236   -2.1991070636   -0.7943447213
 C    1.4820229185   -2.8176236918   -1.0707820730
 C    1.8832900409   -2.4933036848    0.3956563658
 C    0.3880698952   -2.1982321483    0.7363614748
 C    0.0376173990   -0.7924671898    1.2672775030
 O    0.9406422235   -0.2589919405    2.2292274516
 H    0.5838303424    1.9630591663    0.6704862298
 H   -0.2186094445    1.9896156102   -0.9183105667
 H   -1.1587925064    1.8032739006    0.5755392523
 H   -0.1421524735   -0.3566744250   -2.1143407574
 H   -0.7746829838   -2.7827028009   -1.1524285323
 H    1.4278001233   -3.8934026228   -1.2582613968
 H    2.0789581334   -2.3565385721   -1.8623136108
 H    2.3559309323   -3.2972100748    0.9631569940
 H    2.5304457830   -1.6131444693    0.4626607406
 H   -0.0728726898   -2.9989294662    1.3162520177
 H   -0.9233663260   -0.8059783219    1.7997432870
 H    1.8206486180   -0.2630111357    1.8373709083