21

 C   -0.1832406995    1.6123741516   -0.1776983847
 C   -0.0528389595    0.1296298149    0.0143629082
 C    0.4826279172   -0.9570068418   -0.9019923293
 C    1.5959379739   -1.3285887907    0.1219345330
 C    0.7085904738   -0.6062649602    1.1225620651
 C    0.0605729367   -1.1799594894    2.1393394649
 C   -1.4444939458   -1.1189777385    2.0717224599
 C   -1.7534615325   -1.7338012482    0.6608188028
 C   -1.0015812098   -0.9437298970   -0.4249869197
 H    0.7924196113    2.1107142544   -0.1465071910
 H   -0.6448174173    1.8373166829   -1.1452917744
 H   -0.8080353141    2.0659576263    0.6007367409
 H    0.6703014132   -0.8729207693   -1.9691207987
 H    1.8238339475   -2.3811051041    0.3205650113
 H    2.5142839303   -0.8019055258   -0.1632164267
 H    0.5224069520   -1.9891427692    2.7017691646
 H   -1.9274709272   -1.6885179971    2.8698298930
 H   -1.8383332859   -0.0981236542    2.1083352385
 H   -1.4827779254   -2.7955365580    0.6682922744
 H   -2.8292049829   -1.6875713038    0.4508138137
 H   -1.6321876359   -0.6624608328   -1.2684179357