17

 N   -0.2611956084   -1.1631425177   -0.4214250569
 C   -0.1374114513   -0.0332376952   -0.2134320712
 C   -0.0012983831    1.4047635033    0.0526418770
 C   -0.7349980271    1.7964410155    1.3579658053
 O    0.0611098192    1.5286854245    2.4887762335
 C    1.1645549079    2.4162488480    2.5338695297
 C    2.0208684179    2.3067092392    1.2875682036
 C    2.3825754116    0.9715141936    0.7589083610
 N    1.4221347360    1.8137172049    0.0303619213
 H   -0.4954343174    1.9262707011   -0.7773653828
 H   -0.9835464076    2.8682519311    1.3098869880
 H   -1.6619812127    1.2286824053    1.4635340992
 H    0.8041481940    3.4519858501    2.6480639464
 H    1.7433547547    2.1588776008    3.4259984026
 H    2.7049157841    3.1403544685    1.1387033554
 H    3.3269050649    0.8128788511    0.2465141773
 H    1.9964298373    0.1063239059    1.2916257107