21

 C   -0.5341536872    1.7646845384   -0.0966661304
 C   -0.4680108474    0.2341512472   -0.1022160061
 C    0.5204244889   -0.3502781800   -1.1015009855
 C    0.5427895740   -1.8876547151   -1.3043521601
 C    0.6152260085   -1.5938379035   -2.8190897008
 N    0.1730418597   -0.2083497095   -2.5427184326
 C    0.8020089994    0.8577459568   -3.2958487582
 C    0.3625274788    0.8529116462   -4.6967797983
 N    0.0318099717    0.8396482234   -5.8033805365
 H    0.4512267924    2.2083298395    0.0868362070
 H   -0.9083449448    2.1489718910   -1.0509537647
 H   -1.2093228651    2.1252661044    0.6850658091
 H   -0.1837572343   -0.1260669830    0.8956117789
 H   -1.4604032456   -0.1787062006   -0.3177777702
 H    1.5362259961    0.0312544903   -0.8927802037
 H    1.3766829285   -2.4340802645   -0.8640435191
 H   -0.3974568667   -2.3565998226   -1.0060900079
 H    1.6463977618   -1.6442209974   -3.2037640278
 H   -0.0386517867   -2.1545564886   -3.4924322442
 H    0.5332148100    1.8237251467   -2.8557187638
 H    1.9087434980    0.7985261708   -3.2898181150