23

 C   -0.2133537077    1.4405083534   -0.2538392516
 C    0.0544085577   -0.0237285610    0.0328319438
 C    1.3499153555   -0.7473541576   -0.2056749673
 C    2.5612683960    0.1046547956    0.2021751582
 C    2.0241853456    0.1361256078    1.6774109479
 C    1.9043980770    1.4306187347    2.4411644542
 C    1.8260073032    1.4043513656    3.9490249595
 C    3.0681353053    1.9225045487    3.2685434190
 C    0.7706834929   -0.6283697864    1.2157478812
 H    0.6757844622    2.0650634269   -0.1458513626
 H   -0.5703695022    1.5638492310   -1.2827058785
 H   -0.9843937219    1.8408265447    0.4139141659
 H   -0.7944121402   -0.6511061839   -0.2384582200
 H    1.4063986842   -1.6243779328   -0.8398574541
 H    3.5133670844   -0.4228594514    0.1150147161
 H    2.6625069058    1.0713377725   -0.3018195402
 H    2.6396635316   -0.5483662409    2.2731556616
 H    1.3143390682    2.2037856867    1.9605672106
 H    1.1745417642    2.1151507873    4.4454020362
 H    1.8832846672    0.4391162864    4.4423424159
 H    3.9597454452    1.3042716292    3.3033962444
 H    3.2679678232    2.9879114908    3.3007146229
 H    0.2843701626   -1.3941601772    1.8108023467