17

 O   -0.0917624386    1.4550556562    0.1104755961
 C    0.0230152632    0.0416910153    0.0700784496
 C   -1.3862241490   -0.5344133857   -0.1034101451
 C   -1.4135699087   -2.0286665575   -0.1319929158
 C   -1.4645313719   -2.9179523647   -1.1845801688
 C   -1.4259824938   -4.2362502574   -0.6501035997
 C   -1.3520975322   -4.1201734261    0.7173239762
 N   -1.3415950300   -2.7808381170    1.0198926935
 H    0.7925963557    1.8283388010    0.1653080030
 H    0.6560073319   -0.2929064005   -0.7656602343
 H    0.4738506608   -0.3508061104    0.9964066243
 H   -2.0168170900   -0.1430244401    0.7053760685
 H   -1.8035991747   -0.1465993484   -1.0373811675
 H   -1.5265531785   -2.6442970778   -2.2273504129
 H   -1.4563561542   -5.1612164235   -1.2051979046
 H   -1.3141239900   -4.8659572001    1.4949721354
 H   -1.3130497499   -2.3997700933    1.9497138320