16

 C   -0.0915460658    1.4543268255    0.0395851886
 C   -0.0024671622    0.0043150467    0.0192234603
 C    0.0865398455   -1.1979502302    0.0031586431
 C    0.1639145689   -2.6080832943   -0.0171629418
 N    1.2522400189   -3.3685106074    0.0193879307
 C    0.7555066977   -4.6372763677   -0.0243714730
 C    1.6218286134   -5.8512697986   -0.0056392352
 N   -0.5703047989   -4.7088918837   -0.0855404899
 N   -0.9308625340   -3.4082746696   -0.0798466946
 H    0.9063301759    1.9050879622    0.0267251993
 H   -0.6406094085    1.8302322447   -0.8306898398
 H   -0.6073235510    1.8075440286    0.9393049009
 H    2.2310297790   -5.8767205121    0.9030799523
 H    1.0075256015   -6.7521499397   -0.0474234771
 H    2.3089642556   -5.8483167532   -0.8573477969
 H   -1.9018121859   -3.1450858512   -0.1191467971