18

 C   -0.0311651648    1.4874055482   -0.1185381310
 C    0.0373680607    0.0022140936    0.0063682104
 C    0.5921739386   -1.0937949278   -0.8656618841
 C   -0.6944558575   -1.8827083244   -0.5838155483
 C   -0.7638872439   -2.0369770518    0.8949680510
 C    0.6136236980   -1.8673228616    1.5115002192
 O    1.3512291624   -3.0708489602    1.6078532891
 C    1.1587348343   -0.8409105187    0.5358989301
 N   -1.2546260058   -0.7822205261    0.2661067999
 H    0.9385207104    1.8960850485   -0.4195059795
 H   -0.7765230099    1.7824104402   -0.8640249809
 H   -0.3126640772    1.9446786812    0.8370042837
 H    1.1615282897   -1.0476416783   -1.7831818741
 H   -1.3077640664   -2.4108545385   -1.3042462360
 H   -1.5211982027   -2.6505876674    1.3696065925
 H    0.5589740430   -1.4732521934    2.5312142494
 H    1.4296835812   -3.4269220084    0.7149619526
 H    2.1511046801   -0.4212454651    0.6421669061