14

 O    0.0588148651    1.3936367018    0.0991751774
 C    0.0269419494    0.0193771576    0.0703185220
 C   -0.4492980854   -0.7045409022    1.2944773654
 C   -1.3552414905   -0.7173654962    0.0837627373
 C   -2.5437213064    0.0722935784    0.0372246239
 C   -3.5501257367    0.7278287989   -0.0185693924
 C    1.0326356676   -0.5946921503   -0.8228415383
 O    1.7505438581    0.0803681777   -1.5253871807
 H    0.6201113640    1.6507252111   -0.6495622564
 H    0.0331702543   -1.6335832681    1.5791046467
 H   -0.7376982310   -0.0574550934    2.1141827537
 H   -1.3926266100   -1.6493145719   -0.4739934822
 H   -4.4359311317    1.3114433128   -0.0635073153
 H    1.0691446231   -1.7034106963   -0.8314104812