18

 C   -0.2993023659    1.5069133026    0.0656912487
 C   -0.0072968237    0.0121333316    0.0142990895
 C    0.8048239661   -0.5064603455   -1.2494174803
 N    1.7754571323   -1.0160086674   -0.2746803157
 N    3.0603436645   -1.4053134444   -0.1063537099
 C    3.2444014542   -1.1579292103    1.2011928695
 N    4.4763318868   -1.4304134078    1.7987515235
 C    2.1090936224   -0.5645617375    1.8431383105
 C    1.1914804603   -0.4984644294    0.8142676147
 H    0.6079992772    2.0926233398   -0.1114898284
 H   -1.0432951311    1.7854651131   -0.6877982593
 H   -0.6941533516    1.7886410819    1.0467852497
 H   -0.9243497606   -0.5621617405    0.1799385779
 H    0.3364994219   -1.2748004422   -1.8714024634
 H    1.1931972513    0.3008947162   -1.8783263833
 H    5.0431992368   -2.0309697913    1.2137242469
 H    4.3932720414   -1.8200206222    2.7278968613
 H    2.0266277879   -0.2582743866    2.8724192882