19

 O   -0.0966948010    1.4022421904   -0.0172460943
 C    0.0133922830   -0.0198221113    0.0804862342
 C    0.7440025848   -0.4159976950    1.3405931639
 C    0.9356473903   -1.6614335179    1.7955846026
 C    0.4090259770   -2.8955727850    1.2250449017
 C   -0.7003314734   -3.0429537833    0.4793517263
 C   -1.7067720295   -2.0306718822    0.0904844298
 C   -2.2472852231   -1.0059979317    1.0876288229
 C   -1.4069702719   -0.5505408310   -0.0615065873
 H    0.7908561208    1.7587955085   -0.1227340840
 H    0.5809875940   -0.4038242856   -0.7863942312
 H    1.1760272286    0.4189314525    1.8871391836
 H    1.5632673215   -1.7842305666    2.6762736858
 H    0.9688696399   -3.7965311978    1.4654333660
 H   -0.9322735479   -4.0502688533    0.1409175467
 H   -2.4420551093   -2.4114774909   -0.6111014934
 H   -3.3106345546   -0.7953901219    1.0691075298
 H   -1.8021387694   -1.0118551986    2.0749277597
 H   -1.9292500398   -0.0520757394   -0.8738924628