18

 O   -0.0802013187   -0.0190569672    0.0002682461
 C   -0.0478276303    1.1825723485    0.0086685890
 N   -1.0304681973    2.1449363430    0.0250449754
 C   -0.1228848865    3.2994694075    0.0386324591
 C   -0.1749909156    4.2107610574    1.2769947028
 C    1.2163020856    4.6175704425    1.7064128464
 C    2.2261133317    3.7488036444    1.6744919228
 C    2.0246051259    2.3266917238    1.2059370297
 C    1.0544758735    2.2728497165    0.0135304314
 H   -2.0365496875    2.0724855317   -0.0207206163
 H   -0.1846661691    3.9003461495   -0.8748603200
 H   -0.7988011199    5.0891612332    1.0842730345
 H   -0.6637663608    3.6570329071    2.0910052745
 H    1.3662672628    5.6298436043    2.0693594868
 H    3.2163502576    4.0397701028    2.0124729198
 H    2.9773330735    1.8628476459    0.9372399736
 H    1.6237332587    1.7242668693    2.0333412916
 H    1.6033594362    2.2986741000   -0.9306058672