17

 C   -0.0211726359    1.5337101351    0.0011097183
 C   -0.0074388227    0.0382384344    0.0065616722
 C   -0.0268195605   -0.7854762407   -1.0637213069
 C   -0.0032207762   -2.2572827033   -0.6618340712
 C    0.0332166950   -2.1197929577    0.8292642444
 C    0.0307477659   -0.7942135157    1.2169082518
 C    0.0664016998   -0.8312778559    2.6264898197
 N    0.0893135739   -2.0905713683    3.0722733743
 N    0.0684255316   -2.8615084205    1.9523753561
 H    0.8687608986    1.9381374030    0.4984400575
 H   -0.0527148303    1.9295858818   -1.0172224983
 H   -0.8895772618    1.9222129927    0.5468003228
 H   -0.0558801198   -0.4710001883   -2.0994764272
 H   -0.8881033344   -2.7966859830   -1.0243333636
 H    0.8720035515   -2.7804939228   -1.0687796745
 H    0.0768837135   -0.0233345350    3.3432516979
 H    0.0805331918   -3.8612826158    2.0599914368