17

 O   -0.6515752311    1.1373734082   -0.1137350027
 C   -0.1788920796   -0.1311550416   -0.1154851880
 C    0.2685524077   -0.9791887557   -1.0979960315
 N    0.6416378743   -2.1821242731   -0.5144045257
 C    0.4175984582   -2.0531685467    0.7660615084
 N   -0.0897422068   -0.8115527843    1.0692309650
 C    0.3792528527   -0.6951239295   -2.5453593370
 C   -0.4465692436   -1.4740883307   -3.5368366376
 C   -0.7752739879   -0.0271518614   -3.2780673726
 H   -0.6261991763    1.4506311626   -1.0251065723
 H    0.5908040311   -2.7996506756    1.5261369200
 H   -0.3517161999   -0.4507729667    1.9712752687
 H    1.3702569810   -0.4148386732   -2.8972414102
 H    0.0097808220   -1.7329240542   -4.4854578790
 H   -1.1177369746   -2.2253201105   -3.1380887270
 H   -1.6844881902    0.1813551130   -2.7227784040
 H   -0.5435650070    0.7008016093   -4.0479575044