19

 C   -0.0019526925    1.5887485659    0.1423974240
 C    0.0190578278    0.1003486580    0.0052953094
 C   -0.0746670946   -0.6075559273   -1.1233233140
 C   -0.0783756325   -2.0883095967   -0.8724933546
 C    0.3162844356   -2.2127874919    0.6152150099
 C    0.1250900260   -0.8014728817    1.2168023116
 O   -1.4187814606   -2.6153597863   -1.0801176038
 C   -1.6002605551   -3.5540731882   -2.0206424484
 O   -2.6661650511   -4.0398618466   -2.2607337881
 H    0.9143180325    1.9529442829    0.6235281186
 H   -0.1028265924    2.0859295927   -0.8255309994
 H   -0.8352869378    1.9085140200    0.7805785028
 H   -0.1945021478   -0.1916759249   -2.1174970002
 H    0.5973093816   -2.6471546311   -1.5317796564
 H   -0.2802199318   -2.9820584421    1.1093933501
 H    1.3658738515   -2.5127190308    0.6837110935
 H    0.9563122658   -0.5149729766    1.8716232821
 H   -0.7843977499   -0.7247849931    1.8272579314
 H   -0.6619879047   -3.8276031222   -2.5445904186