21

 C   -0.1519180427    1.3072814900    0.7001311593
 C   -0.0621068041    0.0700477613   -0.2118425149
 C   -1.3546153512   -0.5681404619   -0.4418396372
 C   -2.4347106415   -1.0711380307   -0.6207912175
 C   -3.7326276718   -1.7065943677   -0.8356072247
 C   -3.8586446513   -3.0520904944   -0.1341538057
 C   -4.2174988666   -3.1099466200    1.3360765003
 C   -5.2081992337   -3.5562089169    0.2884330662
 O   -6.3084925949   -2.7447881906   -0.0129455679
 H    0.8381694027    1.7507672046    0.8438616334
 H   -0.8088407360    2.0643701741    0.2631769361
 H   -0.5550082039    1.0381293483    1.6803245664
 H    0.3805211885    0.3583728254   -1.1743074216
 H    0.6315517071   -0.6577371231    0.2293251460
 H   -4.5396138596   -1.0503139779   -0.4929225025
 H   -3.9011670754   -1.8444933807   -1.9121410681
 H   -3.1589751763   -3.8034828809   -0.4875642724
 H   -3.7461305781   -3.8535574418    1.9693579797
 H   -4.4213926890   -2.1612581833    1.8227395697
 H   -5.3963330856   -4.6254031988    0.1893835836
 H   -6.9101645265   -2.7694952152    0.7379697118