17

 C   -0.0818585956    1.5154019691   -0.1710665339
 C   -0.0712763229    0.0355492691    0.1153873349
 O    1.1762776059   -0.6565567712   -0.0218416668
 C    0.5771907581   -0.5923281346    1.2798921690
 C    1.3118632551    0.1398090014    2.3498823026
 C    0.8288346250    0.0248383574    3.7778518035
 C    2.1104368302   -0.6464217542    3.3636899222
 H    0.7713440298    2.0245586559    0.2813551919
 H   -0.0444410953    1.6904795864   -1.2514433225
 H   -1.0028222247    1.9703752992    0.2097043611
 H   -0.9151840649   -0.5065610972   -0.3188710903
 H    0.1614369865   -1.5471591223    1.6152872942
 H    1.7282376167    1.0954313046    2.0522641508
 H    0.8819072511    0.9073631013    4.4050861885
 H   -0.0346302440   -0.6036587120    3.9706926399
 H    2.1125335101   -1.7276352452    3.2733543015
 H    3.0495300089   -0.2271414676    3.7063496834