21

 C   -0.0361015022    1.5589978834   -0.0562174157
 C    0.0649166587    0.0430952033   -0.0114288716
 C    1.0878907466   -0.6894996412   -0.9252991581
 C    1.3797277457   -1.6730727641    0.2394212232
 C    0.7452139316   -0.6377589993    1.2159197462
 O    1.7094539752    0.2518099963    1.7469216228
 C   -0.1746838408   -1.1613824708    2.3348431670
 C    0.5885290500   -1.8299224358    3.3830309861
 C    1.2836808702   -2.3505271386    4.2159011457
 H    0.9373196776    2.0173302579    0.1328060848
 H   -0.3916189064    1.8904186630   -1.0381265806
 H   -0.7366012004    1.9389878058    0.6956673672
 H   -0.9265867095   -0.4057944600   -0.1469444330
 H    0.7130795070   -1.1111256315   -1.8606157371
 H    1.9505298395   -0.0548113912   -1.1436202099
 H    0.7894652839   -2.5914331238    0.1685047632
 H    2.4217864310   -1.9343071773    0.4359144495
 H    2.1781488978   -0.2226754162    2.4452302691
 H   -0.7236237582   -0.3128150584    2.7627305055
 H   -0.9182248003   -1.8478272030    1.9132654448
 H    1.8657017530   -2.8271731787    4.9654792109