18

 C    0.4186664617    1.3531924255   -0.0218742919
 C   -0.0284425540   -0.1141746466   -0.0352912072
 C    0.8054950974   -1.0224383578   -1.0061000069
 C    1.6245228312   -1.5639537541    0.1830731983
 O    2.8626998662   -0.8695086294    0.2925478906
 C    0.5675078715   -0.9704339406    1.1673315811
 O    1.0653771601   -0.3021833675    2.2790359451
 C   -1.4733061395   -0.2187858210   -0.1835537878
 N   -2.6200025934   -0.3265669655   -0.2936768262
 H    1.5090107838    1.4139016615    0.0163644548
 H    0.0800165314    1.8629648537   -0.9280032979
 H    0.0077364788    1.8734610247    0.8464850591
 H    0.2061543690   -1.7939692839   -1.4913284747
 H    1.3882691290   -0.4871129681   -1.7577384797
 H    1.7797734522   -2.6463010640    0.2220829318
 H    3.4373603592   -1.3709505160    0.8794169261
 H   -0.1572843072   -1.7126097487    1.5094773111
 H    1.9087104727    0.0817597879    2.0002238540