21

 C   -0.2020683287    1.3031903632   -0.2264822686
 O    0.3573607413   -0.0009898932   -0.2405033902
 C    0.8652369780   -0.4891724019    0.9746864148
 C    2.1632400803    0.1858043928    1.4089963036
 O    1.8754515737    1.4909218984    1.8952918595
 C   -0.1299598385   -0.7148961428    2.1401179631
 O    0.2234476169   -2.1120160490    2.2087857192
 C    0.9843208290   -2.0395702823    0.9762330759
 C    0.3261550312   -2.7915901438   -0.1636282340
 H    0.5541312842    2.0760064022   -0.0604228235
 H   -0.6683716749    1.4461339737   -1.2045621222
 H   -0.9737748462    1.4052501408    0.5492464126
 H    2.6289993076   -0.4285600795    2.1938913847
 H    2.8450274819    0.2159083516    0.5450903872
 H    2.6975120752    1.8901363073    2.1945111994
 H    0.0777560336   -0.1835605670    3.0736005453
 H   -1.1805578536   -0.5694176405    1.8586916673
 H    2.0054666498   -2.4121990989    1.1358326040
 H   -0.6774656524   -2.4102522028   -0.3619962100
 H    0.9160213171   -2.6917463874   -1.0800749898
 H    0.2588554745   -3.8529615308    0.0943938417