15

 N   -0.4238229313    1.3327550319    0.4002868215
 C    0.0081397546    0.0303406322    0.1463011719
 N   -0.6784648081   -0.7677545470   -0.6671563982
 N   -0.0224310299   -1.9538964740   -0.5942525960
 C    1.0655156851   -1.9159368246    0.2086398415
 C    1.9095834489   -3.1348353546    0.4213383625
 O    1.9957765910   -3.9397112713   -0.7496840791
 C    1.1239519314   -0.6332750814    0.7184049969
 H    0.3336491553    1.9989880384    0.4674388038
 H   -1.1016214832    1.6366590784   -0.2873339326
 H   -0.3228292378   -2.7317316092   -1.1556756614
 H    2.8992554340   -2.8355805072    0.7940128223
 H    1.4654758946   -3.7884589937    1.1812713922
 H    2.4221150727   -3.4112146441   -1.4332667480
 H    1.8493123729   -0.2388065936    1.4119218328