18

 C   -0.1077008461    1.5130225142   -0.0298457844
 C   -0.0523920286    0.0260542633   -0.0161714813
 C   -0.0195869126   -1.0507640262   -1.0787351956
 C    1.1230582843   -1.7810246875   -0.3723048226
 C    0.5448402199   -2.9507801946    0.4485937345
 C   -0.2445786593   -1.8228276309    1.1360231475
 N    0.8984205411   -0.8276138832    0.8254676593
 C   -1.0622559662   -1.0692737376    0.0747128038
 O   -2.4222351973   -0.9781655401   -0.1094975546
 H    0.8349680388    1.9420757734   -0.3860164899
 H   -0.9122547513    1.8555055736   -0.6884920827
 H   -0.3016447924    1.9042943099    0.9748022723
 H   -0.3188028088   -1.0077707153   -2.1192405175
 H    2.1140124198   -1.8208065754   -0.8265045345
 H   -0.0029450828   -3.7434754038   -0.0687245884
 H    1.2977203537   -3.3793878071    1.1151708059
 H   -0.6169029585   -1.8867631429    2.1587641049
 H   -2.7229918039   -1.7457788799   -0.6090923769