16

 O    0.1243541214    1.3201940409   -0.3981341621
 C   -0.0396517002    0.0327549023    0.1834918227
 C   -1.4501402805   -0.4686828373    0.1284039720
 C   -2.6579709048   -0.0449110075    0.9758232015
 C   -3.3627047066   -1.2734369768    0.3488273745
 O   -3.5010529023   -0.9084861500   -1.0543362842
 C   -2.0857692093   -1.0647347745   -1.1429141393
 C   -1.9511904870   -1.9160481185    0.0723382262
 H   -0.4551142812    1.9295231202    0.0702605838
 H    0.6135464561   -0.6350913575   -0.3903090666
 H    0.3250553007    0.0191736821    1.2236762297
 H   -2.4621227289   -0.1869742955    2.0425922259
 H   -3.1331051695    0.9252448111    0.7944438441
 H   -4.2518462409   -1.7371683140    0.7698963228
 H   -1.6114887019   -1.0835383307   -2.1150469599
 H   -1.4859949950   -2.8685691543    0.2855359389