16

 C   -0.0423417335    1.5697357896    0.0514336985
 C    0.0064021123    0.0318526345   -0.0063155489
 C    0.6836881866   -0.4748146652   -1.1960315619
 C    1.2479459237   -0.8613486230   -2.1880571505
 C    1.9252325738   -1.3680160482   -3.3777729285
 C    1.9739948002   -2.9058989898   -3.4355118827
 H    0.9670702958    1.9900567940    0.0541088677
 H   -0.5722747521    1.9739168488   -0.8153990842
 H   -0.5576051797    1.9030346651    0.9574510847
 H    0.5086700599   -0.3504757691    0.8919780571
 H   -1.0160231417   -0.3664591536    0.0307821427
 H    1.4229551205   -0.9857001479   -4.2760667686
 H    2.9476525699   -0.9696917095   -3.4148786960
 H    2.5039369494   -3.3100677844   -2.5686788846
 H    0.9645878212   -3.3262322365   -3.4381792683
 H    2.4892579135   -3.2391978048   -4.3415295265