15

 O   -0.1531617756    1.3084945633    0.0062080285
 N    0.0016193972   -0.0859858341    0.0021067813
 C   -1.1269789284   -0.6686442739    0.0090535069
 C   -2.5020123955   -0.0279169355    0.0203268777
 C   -3.4196761614   -1.2171942772    0.0249045897
 C   -2.7490451453   -2.3787173174    0.0174994886
 C   -1.2433783310   -2.1825571102    0.0067775063
 C   -3.3410185278   -3.6707946726    0.0192922037
 N   -3.7940465084   -4.7369001240    0.0204570029
 H    0.7593227305    1.6174468876    0.0003249777
 H   -2.6365582617    0.6206985116    0.8962243213
 H   -2.6494405395    0.6239141441   -0.8511101795
 H   -4.4994333910   -1.1340366108    0.0331026163
 H   -0.7767735294   -2.6333450697   -0.8765895236
 H   -0.7636766026   -2.6370240012    0.8811966822