19

 C    0.0576074810    1.5394375426   -0.1454140112
 C    1.3365333571    0.7522034065   -0.0411442186
 C    0.0054564858    0.0393946481    0.0278930127
 C   -0.4795235547   -0.5631707875    1.2984937998
 O   -0.3597557040   -2.0123106327    1.3920841782
 C   -1.6669086651   -1.4332551860    1.4259645717
 C   -2.2453405308   -1.2697493105    2.8262279698
 C   -1.2692918994   -0.3131620579    3.4814183800
 C   -0.3174122767    0.0935154478    2.6388328301
 H   -0.2313317305    2.1540354943    0.7005323602
 H   -0.2246440650    1.9498192618   -1.1084033146
 H    1.9348806380    0.6149537555   -0.9346481789
 H    1.9182623043    0.8392485758    0.8699938420
 H   -0.2671052661   -0.5429378545   -0.8463789142
 H   -2.3103613188   -1.6837864742    0.5857510609
 H   -3.2630355820   -0.8598079858    2.7929997783
 H   -2.3038429476   -2.2282849346    3.3562438568
 H   -1.3365395587   -0.0414747180    4.5289678878
 H    0.4927177633    0.7700689493    2.8815168590