16

 C    1.1060801161    1.4376339156    0.0478614756
 C    0.2388157360    0.1992097582   -0.0018231279
 C    0.7837447528   -1.1609156031    0.2771463031
 N   -0.1760870504   -0.5476772155    1.1893288503
 C    0.2255311365   -0.1323914349    2.5400924232
 C    1.6534302817   -0.1088438330    2.8740691831
 C    2.8215456562   -0.1295804598    3.1618210657
 H    1.9513279530    1.3257249739    0.7289603501
 H    1.4986489346    1.6546159843   -0.9515094744
 H    0.5239669376    2.3108481130    0.3650292068
 H   -0.5699990305    0.2683358878   -0.7295649934
 H    0.4263249881   -2.0331562748   -0.2649008579
 H    1.8226013542   -1.2143900065    0.5964236895
 H   -0.2102639923    0.8559711885    2.7304200086
 H   -0.2677787363   -0.8202134519    3.2388376885
 H    3.8514837829   -0.1353616418    3.4212562791