18

 C    0.0406533485    1.4945436343    0.1022203408
 C    1.3740480080    0.8082220553    0.1032982254
 C    0.0711606753   -0.0190528817    0.1337462594
 N    0.4660427774   -0.7603688565   -1.0836041527
 C    0.0306014373   -0.4585608692   -2.4916632186
 C   -0.8090161196    0.7813273724   -2.8124235521
 O    0.3696470264    1.6318109330   -2.8122649437
 C    1.2482500125    0.4963484548   -2.6632832068
 C    1.6856208035    0.0872686018   -1.2185560119
 H   -0.2247774672    1.9038322088    1.0738252601
 H   -0.2761922650    2.0949039353   -0.7342237109
 H    2.1046161390    0.9502076897    0.8890196938
 H   -0.3835108168   -0.5643688350    0.9536546072
 H   -0.1569754243   -1.3631323110   -3.0709155343
 H   -1.2605375686    0.7480344810   -3.8120486480
 H   -1.5647399663    1.0905951017   -2.0845303894
 H    1.9985163025    0.4515183067   -3.4571813878
 H    2.6317007774   -0.4671817113   -1.2058553406