16

 C   -0.0592994350    1.5162988246    0.0659015005
 C    0.0646355129    0.0270021556   -0.1826215828
 O    1.1234562548   -0.4952179989   -0.4603990591
 C   -1.2090221471   -0.7597510131   -0.0759757007
 C   -1.3067767356   -2.0815649299   -0.7801700084
 C   -1.2555041901   -2.0818822225    0.7251148757
 C   -0.0616175151   -2.6230132262    1.4305074470
 O   -0.1361656026   -3.1708437531    2.5044632628
 H    0.9178840357    1.9914463524   -0.0216675946
 H   -0.7544070290    1.9626055292   -0.6548577582
 H   -0.4760358374    1.6994406684    1.0630314387
 H   -2.1139790836   -0.1687801252    0.0151203601
 H   -2.2425898561   -2.3475700333   -1.2566489937
 H   -0.4054914315   -2.3947894940   -1.2970605127
 H   -2.1808004111   -2.2525016810    1.2650851733
 H    0.9004642808   -2.5075031131    0.8966139120