15

 C    0.0096131136    1.4966736861    0.0892247641
 C    1.3019441695    0.7387035152    0.0255669467
 O    1.9893244656    0.4262117408    1.2524273727
 C    1.1365713551   -0.4024986910    1.8920058484
 C   -0.0183990367   -0.7559235215    1.2430382321
 C   -0.6535827645   -1.6281026725    2.1509118541
 N    0.0621265779   -1.7849021522    3.2670585697
 N    1.1745096522   -1.0001406829    3.0919400476
 C   -0.0263533840   -0.0232822368   -0.0489430018
 H   -0.3033746664    1.9263791657    1.0341964196
 H   -0.2292166598    2.0885883927   -0.7882880007
 H    1.9984203709    0.8647828458   -0.7926668515
 H   -1.5912560366   -2.1559689376    2.0566128737
 H    1.8748823147   -0.9635563799    3.8113351183
 H   -0.3790632915   -0.4730888520   -0.9696479729