14

 N    0.3549374342    1.4173100958   -0.1419632169
 C    0.1066367577   -0.0223668752   -0.0127575775
 C    0.7702090999   -0.5572044583    1.2136475312
 N    0.2044557580   -0.9712708627    2.3108905119
 C    1.2492535437   -1.3371875482    3.1304818450
 C    2.4243490496   -1.1220339971    2.4741601522
 O    2.1207476639   -0.6193761831    1.2352786545
 C    3.7760484268   -1.3165829776    2.8201423798
 N    4.8792594968   -1.4875623376    3.1292705509
 H    0.0338687903    1.7355764907   -1.0504587329
 H   -0.1872385717    1.9224860376    0.5525823851
 H   -0.9506090477   -0.3153863321    0.0517410075
 H    0.5395716748   -0.5192036247   -0.8877928234
 H    1.0996271038   -1.7262077176    4.1247717226