11

 O   -0.0716081069   -0.0367915034    0.2171449384
 C    0.0047155135    1.1632043815    0.0869808506
 C    1.2426343488    1.8979507548    0.0344255477
 C    2.2597813232    2.5484049517   -0.0164100108
 C    3.4899147773    3.2845182294   -0.0584593244
 C    3.8215078897    4.1474678539   -1.2146586098
 O    3.4068360403    4.7156880813    0.0162057135
 H   -0.8996630566    1.7980007971   -0.0031723788
 H    4.3139488098    2.8542542215    0.5081986168
 H    4.8698493136    4.2845576107   -1.4751951949
 H    3.1109978274    4.2257425614   -2.0347987385