21

 C   -0.0161851243    1.5039819973    0.0672806760
 C   -0.0685185837    0.0147087079   -0.0230441164
 C   -0.0732436972   -0.7749559996   -1.1030864451
 C    0.0094591714   -2.2224207850   -0.6288688984
 O   -0.4484733582   -3.2235819854   -1.5033535515
 C    1.4596849008   -2.4231832461   -0.0675434385
 C    1.4671309129   -1.5063777362    1.1913765166
 C    0.0162932473   -0.9097360351    1.1908271872
 C   -0.7903721136   -2.1255826365    0.6841170074
 H    0.8977961148    1.8399399510    0.5749616199
 H   -0.0425996392    1.9695893500   -0.9220496644
 H   -0.8570366007    1.8971711105    0.6528987302
 H   -0.0272367006   -0.4726449097   -2.1437838333
 H    0.1453435291   -3.2564452452   -2.2603084418
 H    1.6041896110   -3.4763809993    0.1925247873
 H    2.2222130849   -2.1480384496   -0.8020408630
 H    1.6425082571   -2.0855372248    2.1029272887
 H    2.2301496904   -0.7247740638    1.1469783377
 H   -0.2855542601   -0.4687135462    2.1423525918
 H   -1.8452034202   -1.9044247616    0.5088370569
 H   -0.6917537419   -3.0171990127    1.3122129026