15

 C    0.1441712538    1.5323076800    0.0531547349
 C   -0.0805148071    0.0175644124   -0.0783127254
 C    0.6234795781   -0.5609633330   -1.2608368540
 N   -0.0115528519   -1.1384462356   -2.2537554440
 O    0.9996741997   -1.5217343637   -3.1297346454
 C    2.1462086673   -1.1298082444   -2.5666995957
 C    3.4408075884   -1.3870817709   -3.2448336333
 O    3.5449055190   -1.9417724545   -4.3068354235
 N    1.9920727993   -0.5337646354   -1.4209943396
 H    1.2103603662    1.7613301815    0.1285429067
 H   -0.2594146597    2.0649759476   -0.8128888167
 H   -0.3540332865    1.9116584861    0.9491752168
 H    0.2908831622   -0.4886188511    0.8200725181
 H   -1.1452966776   -0.2127987795   -0.1678658443
 H    4.3020287089   -1.0097178794   -2.6612227446