18

 C    0.0017252927    1.5582704133   -0.0590035236
 C   -0.0447250686    0.0157500150    0.0176974777
 N    0.4558651067   -0.7008427218   -1.1488451633
 C   -0.0951460103   -0.2945924487   -2.4294684747
 C    0.3320052691   -1.2117332889   -3.4928912745
 N    0.6752169533   -1.9142601813   -4.3427571278
 C    0.8411656343   -0.4279602642    1.1917369178
 N    0.1995236608   -0.6302541570    2.3736979799
 O    2.0471127578   -0.5244050282    1.0644519655
 H    1.0308708825    1.8956065468   -0.2149490605
 H   -0.6212180065    1.9367158879   -0.8742957877
 H   -0.3664032758    2.0007607822    0.8719103337
 H   -1.0840007906   -0.2968711566    0.1920634268
 H    1.4710129325   -0.6669002754   -1.1390553940
 H   -1.1910280105   -0.3336265750   -2.3737350497
 H    0.1621160772    0.7288849512   -2.7525625752
 H   -0.8015003696   -0.7001174280    2.4285996335
 H    0.7457006849   -0.9479184913    3.1588198364