18

 C   -0.1653081859    1.4055061647    0.0386591115
 N    0.1265024709   -0.0181487102    0.0545560527
 C    0.9534950157   -0.5405389672   -1.0519985921
 C    2.3576388136    0.1084694642   -0.8746159415
 C    2.3752455844   -0.7333680341    0.4078246027
 C    1.5148425161   -1.8466022003   -0.3539436802
 C    0.7483062201   -2.0175002660    0.9449415173
 O    0.3577108563   -2.9383002505    1.5988881594
 C    0.9827888510   -0.5122585954    1.1623731861
 H    0.7129981151    2.0669490385    0.1142334277
 H   -0.6933803775    1.6467174748   -0.8900364868
 H   -0.8343240312    1.6413243911    0.8720765978
 H    0.4395536000   -0.5766082555   -2.0122799807
 H    3.0707241268   -0.2830727197   -1.6041765257
 H    2.4458160117    1.1960371223   -0.8212748495
 H    3.2579848226   -0.9621746593    1.0008437767
 H    1.9311021885   -2.6456729742   -0.9615679492
 H    0.8679511420   -0.0032131132    2.1159562739