17

 N   -0.0020408870   -1.1756723990   -0.0441414391
 C    0.0043042473   -0.0201876073   -0.0312854403
 C   -0.0209343079    1.4481083395   -0.0183508329
 C   -0.7291673494    2.0337794453    1.2029307524
 C    0.0076996043    3.0004218501    1.7421207226
 C    1.2929776266    3.1920322380    0.9821040105
 C    2.6015690311    2.6757114870    1.6335195000
 C    2.3688689880    1.3699942636    0.8359703545
 N    1.3272927349    2.0530605189    0.0067516824
 H   -0.5451783353    1.7522933183   -0.9377720595
 H   -1.7094793025    1.7022462681    1.5209261957
 H   -0.2765408578    3.6113503859    2.5910506335
 H    1.3473686850    4.1870329513    0.5225171804
 H    3.4834324033    3.2338665204    1.3152171435
 H    2.6019769282    2.5882308662    2.7208004127
 H    3.2059302484    0.9894263499    0.2453636931
 H    1.9762127029    0.5542876640    1.4526170703