19

 C    0.0078453895    1.6126613920   -0.0840133638
 C    0.0944627297    0.0960501417   -0.0019706488
 O   -1.2107065161   -0.4776237366   -0.1031953791
 C    1.1256835781   -0.7117948342   -0.8645051160
 C    2.5220891344   -0.1542803647   -0.4748954362
 C    2.2405713417   -0.7420410772    0.9079708958
 C    1.2428056541   -1.7370326865    0.3344104397
 C    0.7483584771   -0.5913877311    1.1891001106
 O    0.2792251809   -0.5914124505    2.4822947207
 H    0.9774079014    2.0910286695    0.0690022394
 H   -0.3737139881    1.9318419899   -1.0626149153
 H   -0.6784784655    1.9824901609    0.6836657724
 H   -1.6250667323   -0.1338445696   -0.9014314911
 H    0.8688080573   -0.9604867535   -1.8930409830
 H    3.3234692201   -0.7066108871   -0.9745865899
 H    2.7033309673    0.9203890067   -0.5842668689
 H    2.9232780839   -0.8994089474    1.7334595990
 H    1.1559160916   -2.8090681826    0.4193323700
 H   -0.6340545052   -0.9014031195    2.4432732745