23

 C   -0.0053295622    1.6086535555   -0.0131559434
 C    0.0555073803    0.0781784871   -0.0299933467
 C    0.7042270826   -0.5251723355    1.2214107534
 C   -0.1295680130   -0.3764473720    2.5333249987
 C   -0.2695392356   -1.8448990667    2.9305070034
 C    1.0739254875   -2.5881356292    2.6314272109
 C    0.2747265993   -3.8650757930    2.2835092177
 C   -0.5214995672   -2.7018976147    1.6471810975
 C    0.8262726570   -2.0524118734    1.1851469800
 H    0.9988348903    2.0417853308    0.0580756322
 H   -0.4722157867    1.9989530710   -0.9229863313
 H   -0.5836124892    1.9773718740    0.8407545398
 H   -0.9581795868   -0.3294597039   -0.1428817972
 H    0.6149238534   -0.2509903750   -0.9157610314
 H    1.6982249843   -0.0746152151    1.3455231030
 H    0.3814578523    0.2154206010    3.2995379523
 H   -1.1035934849    0.0937562193    2.3544516335
 H   -0.8169618704   -2.0934921555    3.8426746528
 H    2.0018039866   -2.5102485532    3.2028991109
 H    0.7494830277   -4.5720923936    1.5965977475
 H   -0.2020944784   -4.3899161735    3.1168805591
 H   -1.4503697839   -2.7629621083    1.0761368407
 H    1.3721044869   -2.5075261062    0.3546941965