20

 C   -0.0253745582    1.5104971834   -0.0489267418
 C   -0.0168625611   -0.0031072594    0.0632019094
 C   -1.1758982108   -0.6661493182   -0.6573313686
 N    1.3109021152   -0.6305855048   -0.0115531077
 C    0.5759648353   -0.6797800855    1.2801578362
 C    1.2468813245    0.0521943752    2.4343936741
 N    2.4117952140   -0.7177778952    2.8633707264
 C    0.0080314220   -1.9554736867    1.6678150590
 N   -0.4591658342   -2.9690280669    1.9729056035
 H    0.9021422269    1.9529558475    0.3138859252
 H   -0.1384210520    1.7959403725   -1.1005146622
 H   -0.8666104829    1.9394266250    0.5053161383
 H   -1.1101699559   -0.4557509622   -1.7305450667
 H   -1.1887006102   -1.7487815955   -0.5149924026
 H   -2.1320744812   -0.2697274109   -0.3002863282
 H    1.2591265534   -1.5334130454   -0.4788523462
 H    1.4733640991    1.0786521275    2.1170828048
 H    0.5430038791    0.1160340542    3.2718066107
 H    3.1078349573   -0.7021853128    2.1235769606
 H    2.8348590497   -0.2901103517    3.6801828157