25

 C   -0.1723679780    1.5875389049   -0.0818573038
 C   -0.0389150700    0.0660306953    0.0618178707
 C    0.8114123464   -0.4534877506    1.2529711906
 C    2.2423272128    0.1166716304    1.1859709277
 C    0.1552590245   -0.0259294291    2.5820845920
 C    0.8079859196   -2.0234309210    1.1873201187
 C    1.6199596803   -2.6366407059    0.0286514286
 C    1.3182016495   -2.6558574360    2.4696199904
 O    0.6736696495   -3.3784957269    3.1865028475
 H    0.7947917087    2.0728920426   -0.2435387907
 H   -0.8020470030    1.8251152774   -0.9450786242
 H   -0.6367886692    2.0493986037    0.7942860005
 H   -1.0432392558   -0.3686850516    0.1487855192
 H    0.3798070321   -0.3249520292   -0.8724485200
 H    2.2334452156    1.1988781055    1.3435802349
 H    2.8879242042   -0.3116410754    1.9591512197
 H    2.7125283421   -0.0710304087    0.2157019715
 H   -0.8504187230   -0.4482921877    2.6817203994
 H    0.7382888020   -0.3612903544    3.4459956624
 H    0.0748236147    1.0621096961    2.6523081084
 H   -0.2361863155   -2.3446442046    1.0985835923
 H    1.4527085295   -3.7170181976   -0.0186527517
 H    1.3306380689   -2.2155233218   -0.9369251619
 H    2.6947729683   -2.4733598652    0.1571038738
 H    2.3860923258   -2.4343939102    2.7063327138