15

 C    0.0397675090    1.4939252300    0.1117421181
 O    1.3477951846    2.0782315173   -0.0387707356
 C    2.1572237132    1.4227079262   -0.8923173128
 N    3.2093255128    1.9914392497   -1.4465444632
 N    3.7740442494    0.9657579944   -2.1459893101
 C    3.0983502855   -0.2036847666   -2.0393712162
 C    2.0203330760    0.0457458728   -1.2130249143
 C    0.9404768142   -0.7066690518   -0.6156518433
 C    0.0100286466   -0.0155704076    0.0551061666
 H   -0.3232320303    1.8568383721    1.0774538986
 H   -0.6227673749    1.9165706154   -0.6634672380
 H    4.5918344017    1.1569540342   -2.6966190301
 H    3.4281416860   -1.0989348410   -2.5430500776
 H    0.9105055732   -1.7890615425   -0.6833105080
 H   -0.8230888772   -0.5050234024    0.5481918559