13

 C    0.7425939596    0.8907886872    0.2935453213
 C   -0.4732280511    0.0763274716   -0.0554775390
 O   -1.5073996889    0.0602908773    0.5644441848
 C   -0.3995172468   -0.7918515335   -1.3291171062
 O   -0.8568159729   -0.4335401799   -2.3869659876
 C    0.2639200617   -2.1665772315   -1.1369779190
 N    0.1527419970   -2.9594735727   -2.2205698204
 O    0.8270741276   -2.4284507660   -0.0899202278
 H    1.0450833514    1.5082451306   -0.5598108600
 H    0.5333468284    1.5205176857    1.1597726346
 H    1.5673357371    0.2045752852    0.5153262406
 H   -0.3245438779   -2.6076200824   -3.0353950723
 H    0.5572096747   -3.8808408117   -2.2201929990