20

 C   -0.1884199964    1.6065446572   -0.0330375178
 C    0.0279531598    0.1005397084    0.0060577290
 C    1.1758276595   -0.5625877886   -0.8080946819
 C    2.4873394681    0.0904220198   -0.3444599108
 C    3.4785249773   -1.0883779323   -0.2529937114
 N    2.6439048465   -1.6187725997    0.8763281869
 C    2.2089813073   -0.1820599735    1.1822523386
 C    0.7059413543   -0.5703584539    1.2170971148
 C    1.2529913340   -1.7015838233    0.3050165447
 H    0.7264396538    2.1523519861    0.2192579141
 H   -0.5095073536    1.9356505301   -1.0276921423
 H   -0.9617540453    1.9098758151    0.6813386997
 H   -0.9120523451   -0.4231598578   -0.2067734728
 H    1.0689902132   -0.7827499117   -1.8703824123
 H    2.7556334721    1.0648584463   -0.7538839636
 H    3.5874983765   -1.7545571745   -1.1161532828
 H    4.4662333278   -0.8063938014    0.1238205069
 H    2.7381989312    0.3658852881    1.9607347858
 H    0.2224554092   -0.7270297796    2.1799273313
 H    0.8033265493   -2.6788852150    0.1403810739