19

 C   -0.5757730129    1.6127028140   -0.2068364284
 C    0.1093010844    0.2738956225    0.1231047762
 C    0.8762517336   -0.2686917188   -0.9930027667
 C    1.4995706514   -0.6932122563   -1.9333279982
 C    2.2458491988   -1.2547389254   -3.0344195030
 C    3.7329231726   -1.7211818845   -2.8336995323
 C    3.4420426840   -3.0377497451   -3.6098225659
 C    1.9438255595   -2.7163439725   -3.4968167506
 O    0.9413325193   -3.3505219856   -3.6142890923
 H    0.1633195615    2.3701855285   -0.4816032871
 H   -1.2682302441    1.4975476820   -1.0449730639
 H   -1.1381220946    1.9767089429    0.6582022601
 H    0.7711782271    0.4041154593    0.9891890372
 H   -0.6473760471   -0.4589224064    0.4317713913
 H    2.1769493388   -0.6120718141   -3.9232480690
 H    4.4920781263   -1.0622766659   -3.2549438463
 H    3.9526702755   -1.8989175492   -1.7802520904
 H    3.7782544007   -3.0181560505   -4.6518127939
 H    3.7585029252   -3.9821543750   -3.1616100667