25

 C    0.0488203545    1.5410071788    0.0738069676
 C   -0.0122236876    0.0123808727   -0.0103865678
 C   -1.4374112213   -0.5744081030   -0.0400658713
 C   -2.2166270236   -0.1625642973   -1.2985753696
 C   -1.4050477313   -2.0839139833    0.1031277045
 C   -0.7931180789   -2.9129854473    1.2808032818
 C   -1.3783974953   -3.9615164730    0.2970491942
 C   -2.6310200903   -3.0523180999    0.1779678386
 C   -0.7489671149   -3.1342578816   -0.8571379941
 H    1.0844687969    1.8859705122    0.1557172829
 H   -0.3855612729    2.0196827789   -0.8091221464
 H   -0.4934738001    1.9099148082    0.9520010041
 H    0.5319295058   -0.3283426405   -0.9016032751
 H    0.5211969987   -0.4092992450    0.8500442777
 H   -1.9772250028   -0.1828530510    0.8363418048
 H   -3.2234953486   -0.5911801978   -1.2970289835
 H   -2.3219340059    0.9233958625   -1.3714692069
 H   -1.7069790603   -0.5109692357   -2.2044723334
 H    0.2956464942   -2.8944682930    1.3853715458
 H   -1.2882560245   -2.8185199501    2.2523803934
 H   -1.3629694704   -5.0461259210    0.4092508847
 H   -3.2650785811   -2.9680745653    1.0661699225
 H   -3.2309297178   -3.1608619507   -0.7303732747
 H   -1.2026230936   -3.2492431384   -1.8460031582
 H    0.3433752311   -3.1305847195   -0.9183760618