20

 C   -0.0510304342    1.5146395990   -0.3700901582
 C    0.0067442816    0.0200716392   -0.0215522884
 N    0.6905505185   -0.2032166269    1.2485788136
 C    2.0298627220   -0.3797885154    1.3465929403
 O    2.8046482580   -0.3665168201    0.4103991948
 C   -1.3699315421   -0.6163509692    0.0653170360
 O   -2.1406111936   -0.1422419838    1.1471596937
 C   -2.0914052171   -1.0384343902   -1.1855060384
 C   -1.5435732392   -2.0743278351   -0.2195813491
 H    0.9617257979    1.9184030908   -0.4369166767
 H   -0.5518438740    1.6704930192   -1.3309713651
 H   -0.5889992095    2.0784186483    0.4000751328
 H    0.5937988897   -0.4938531733   -0.7880099830
 H    0.1170790109   -0.2124464412    2.0783834214
 H    2.3510167440   -0.5454273733    2.3945622784
 H   -2.4723197910    0.7329106582    0.9171215352
 H   -3.1666279877   -0.8988184358   -1.2036992353
 H   -1.5976292206   -0.9082606697   -2.1427138679
 H   -0.6720419859   -2.6483475818   -0.5133188289
 H   -2.2604691476   -2.6056560189    0.3950671348