15

 C    0.0113547881    1.4407471554    0.0331699539
 N    0.0248319438   -0.0116223196    0.0205317007
 C    0.1206281156   -0.7838109684   -1.0907329817
 O    0.1956247323   -0.1493184218   -2.2807281017
 C    0.1213441210   -2.1233293566   -0.7407570555
 C    0.0219585122   -2.1645621128    0.6671241358
 C   -0.0356938106   -0.8613217245    1.1288676274
 C   -0.1413824859   -0.3635869971    2.4395743382
 N   -0.2291093510    0.0647304405    3.5155237542
 H    0.9728894364    1.8423827560   -0.2997509792
 H   -0.7736846764    1.8181494032   -0.6265748180
 H   -0.1820642124    1.7767524555    1.0520439830
 H    0.2453695424   -0.8081509087   -2.9803206199
 H    0.1845505133   -2.9595696836   -1.4190284384
 H   -0.0078632188   -3.0436202572    1.2909362512