12

 C   -0.0214300806    1.4109468474    0.0379590789
 N    0.0079022849   -0.0326430904   -0.0023071431
 C   -0.1685655656   -0.8656821001   -1.0393160981
 N   -0.0617754804   -2.1269087895   -0.6496946360
 C    0.1881024997   -1.9894268385    0.6787226917
 O    0.3698980372   -3.0391170367    1.4901525565
 N    0.2435006935   -0.7500868307    1.1357525525
 H    0.9401464312    1.7982482417    0.3847532231
 H   -0.2224316481    1.7856573226   -0.9674379239
 H   -0.8062711110    1.7534994866    0.7173164304
 H   -0.3689560069   -0.5215709320   -2.0430859255
 H    0.2851331161   -3.8273055402    0.9402954735