16

 C    0.0327422700    1.5671536203    0.0808192901
 O    1.4323359938    1.9876824772    0.1565172102
 C    2.0592548233    0.8501163153    0.5576029227
 N    2.6942802146    0.6701374763    1.6373816314
 C    2.5649430061   -0.7773381042    1.9358007601
 C    1.4035495031   -1.2640628580    1.0379679678
 O    0.0964397643   -0.6589273890    1.3498107330
 C    0.0303561324    0.0168042352    0.0518476438
 C    1.4845884190   -0.3553419310   -0.1763553388
 H   -0.4961658776    1.9511798180    0.9584845344
 H   -0.3952307128    1.9905626754   -0.8319183806
 H    3.4812353960   -1.3463961904    1.7279377187
 H    2.3419525792   -0.8826398470    3.0023205985
 H    1.3154797923   -2.3470544569    0.9236422099
 H   -0.7667378717   -0.3995069627   -0.5696440721
 H    1.9221006879   -0.6072427485   -1.1404965290