21

 C    0.0286132322    1.5918022497   -0.1105228164
 C   -0.0710303196    0.0860097404    0.0426471867
 C   -1.3805790351   -0.4893078478   -0.4528134125
 O   -1.4845403491   -0.2369502410   -1.8485825177
 C    1.1626714464   -0.7625658872   -0.1535855846
 C    0.5534543808   -0.6277262029    1.2261486458
 C    1.2723968148    0.0971488238    2.3501337869
 C    2.2892566318   -0.8039845939    3.0211802323
 O    2.3497680327   -1.0143559108    4.2050600763
 H    1.0194667409    1.9724292026    0.1489573897
 H   -0.1739928526    1.8668268462   -1.1490795891
 H   -0.7057344064    2.1052387766    0.5221304796
 H   -1.4132391379   -1.5705867809   -0.2448951745
 H   -2.2167864066   -0.0227618632    0.0935509294
 H   -2.3750775651   -0.4658415169   -2.1298801351
 H    1.0679230966   -1.7088876540   -0.6747759227
 H    2.0970034843   -0.2441532036   -0.3457466820
 H    0.0008373376   -1.4984802808    1.5735416295
 H    1.8211231739    0.9608685194    1.9525292109
 H    0.5794463599    0.4629005427    3.1144143603
 H    3.0043173104   -1.2858672485    2.3146596973