20

 C   -0.0814937773    1.5275757630    0.0282938187
 C   -0.0104589158    0.0110176669    0.0062733942
 C   -0.8407647143   -0.7486603021    1.0239691432
 C    0.6678800273   -0.7121847301    1.1487281794
 C    1.4938014660   -1.9605562124    0.8361375198
 C    2.1491739125   -1.9045058446   -0.5572948240
 C    1.1727437228   -1.4421414797   -1.6127489848
 C    0.1849256215   -0.5881129787   -1.3432774339
 H    0.8350444975    1.9739258099   -0.3735415625
 H   -0.9207578711    1.8921687598   -0.5763595273
 H   -0.2201325231    1.9010945848    1.0480983541
 H   -1.4346368619   -0.1717560557    1.7263915385
 H   -1.2920077969   -1.6862397340    0.7149230190
 H    1.0614682328   -0.0783508725    1.9381987675
 H    2.2619111071   -2.0997026767    1.6042866955
 H    0.8526902177   -2.8485286960    0.8798111416
 H    3.0156423812   -1.2269111975   -0.5380166603
 H    2.5503669042   -2.8902229709   -0.8186179361
 H    1.2960447738   -1.8287925188   -2.6212127727
 H   -0.5016771140   -0.2736746347   -2.1275543299