21

 C   -1.6064731290   -0.5634366056    2.4245123669
 C   -0.7598063687   -0.8253148954    1.2068409303
 O   -0.4740154761    0.2867404526    0.3506359053
 C    0.6256799182   -0.3601560381    1.0031540968
 C    1.4393405960    0.4755386248    1.9588889367
 C    1.8355973908    1.8287973880    1.4088640439
 O    1.0609994373    0.4726419041    3.3460015025
 C    2.2793317592   -0.1853898333    2.9761607008
 C    2.3517163851   -1.6766761553    3.1877224389
 H   -1.2940679855    0.3415731389    2.9430182907
 H   -2.6553951742   -0.4655938380    2.1243558338
 H   -1.5349533056   -1.4021792637    3.1249112695
 H   -1.0369627770   -1.7265192498    0.6532918365
 H    1.2461062849   -0.9401214962    0.3140342743
 H    0.9404034877    2.4056311980    1.1615602000
 H    2.4258797483    2.3817833004    2.1432813175
 H    2.4250002091    1.7181712671    0.4920757064
 H    3.1736856974    0.3585902181    3.2889257547
 H    1.4563365633   -2.1798622968    2.8169475194
 H    3.2247468755   -2.0924557306    2.6727414009
 H    2.4551548333   -1.9028554892    4.2540808542