17

 N    0.0182881560    1.3435848729   -0.0893635539
 C   -0.0613696562   -0.0296439905   -0.0315962591
 N   -1.1858707124   -0.6331601683   -0.0242264251
 C   -1.1541347399   -2.0940427945   -0.0538559273
 C    0.2456579513   -2.6804150452    0.1488438069
 C    0.8461931454   -2.3529720217    1.5407887425
 O    1.5889614598   -1.1436154164    1.3211607988
 C    1.2827213372   -0.7720145755   -0.0141943147
 O    1.1450248472   -1.9723474473   -0.7229677863
 H    0.8328859122    1.7676869119    0.3283905090
 H   -0.8488559901    1.8197831962    0.1176199195
 H   -1.8306288081   -2.4763961915    0.7217851092
 H   -1.5594832885   -2.4371093449   -1.0156883100
 H    0.2924136102   -3.7421242303   -0.1009882278
 H    0.0724142469   -2.1946298572    2.2995955722
 H    1.5393150463   -3.1258029585    1.8863849344
 H    2.1078416626   -0.1877107193   -0.4290224383