18

 O   -0.0131695163   -0.0285472041   -0.1837046443
 C   -0.0425380507    1.1627887717   -0.0189189632
 C   -1.2824971649    2.0658923537    0.0857562187
 C   -0.6531800059    3.3764294473    0.5812545581
 C    0.0815096210    3.0432779766    1.9212910199
 N    1.4625495708    2.7358407072    1.4413252962
 C    1.7217484302    4.0139210746    0.6597615063
 C    0.6297139942    3.5294067331   -0.2992830950
 C    1.1494920021    2.1089454434    0.0555300972
 H   -1.7245113515    2.1712928324   -0.9139105738
 H   -2.0426550861    1.6370435748    0.7436791864
 H   -1.3219424178    4.2369719379    0.6050129936
 H    0.1239797220    3.8775041305    2.6249306875
 H   -0.3462013428    2.1791810937    2.4375506482
 H    1.5802173179    4.9374886368    1.2292769216
 H    2.7247855716    3.9899469542    0.2276246532
 H    0.5008661945    3.8842257417   -1.3235953328
 H    2.0639938216    1.7410725845   -0.4060649877