20

 C    0.0043433296    1.6070139161   -0.0539086559
 C    0.0347094797    0.0757106304    0.0217721847
 C    0.6697639734   -0.5329730058   -1.2411749179
 C    0.9375486450   -2.0278063634   -1.1416710133
 O    0.8923807272   -2.7947192061   -2.0813650133
 N    1.3060477895   -2.4475813510    0.1196795842
 C    1.3392629378   -1.6322796697    1.2652182453
 C    2.0379324357   -2.2376132773    2.4460843981
 C    0.7631297165   -0.4260046213    1.2455409897
 H    1.0193277735    2.0150277628   -0.1166307792
 H   -0.5527686562    1.9473734662   -0.9326198352
 H   -0.4742468654    2.0337604016    0.8336509695
 H   -1.0100041916   -0.2737433263    0.0754162156
 H    0.0620930547   -0.3635517529   -2.1325304210
 H    1.6447371259   -0.0549174662   -1.4171086495
 H    1.5758167138   -3.4179531333    0.1884454911
 H    3.0859545383   -2.4643482401    2.2151834261
 H    2.0108247790   -1.5585678632    3.2998364491
 H    1.5619589333   -3.1798745054    2.7466911648
 H    0.7943196502    0.1929711950    2.1350321271