14

 N    0.0413293078    1.3427812782   -0.1261266933
 C    0.0103049960   -0.0295575542   -0.0663968652
 N   -1.1858117718   -0.6144199758    0.0221125940
 C   -1.1919506287   -1.9532262902    0.0182232179
 C   -0.0405700452   -2.7151015031   -0.0667802104
 O   -0.0736527904   -4.0784299448   -0.0678586842
 C    1.1505010311   -1.9816962941   -0.1418508489
 O    2.3064074934   -2.6794735236   -0.2140343517
 N    1.1957559679   -0.6647869269   -0.1413599112
 H    0.9167289968    1.7748661679    0.1198016052
 H   -0.7921865645    1.8026758752    0.2025916232
 H   -2.1573709767   -2.4480333414    0.0893726369
 H    0.8349227858   -4.3953116347   -0.1305268854
 H    3.0219172285   -2.0309655926   -0.2646275969