15

 N    0.0509076107    1.3870450718   -0.0392743491
 C   -0.0432098815    0.0095174308   -0.0061384762
 N   -1.1811215150   -0.5649570278   -0.0067451168
 C   -1.2582015102   -2.0076110145    0.1737108993
 C   -0.0904216825   -2.6694760742    0.8993228294
 O   -0.2185729252   -3.5553196127    1.7117875236
 C    1.2578599251   -2.1104032063    0.5518197045
 O    1.4437070266   -1.7790945187   -0.8294165389
 C    1.2761083185   -0.7031715120    0.0873772910
 H    0.8526184572    1.7816302277   -0.5073999002
 H   -0.8221462696    1.8494710894   -0.2520619105
 H   -2.1705096640   -2.2570441840    0.7231839062
 H   -1.3451233167   -2.4920333229   -0.8112356087
 H    2.1168769255   -2.5345395593    1.0656054110
 H    2.1687669010   -0.1039766673    0.2627302856