21

 C   -0.0030064932    1.5235000988    0.0210242266
 C    0.0372238655    0.0226032139   -0.0047301743
 C   -0.8461860343   -0.8534955113    0.8397987053
 C    0.6453672523   -0.9575164965    1.0094290067
 C    1.2417186033   -1.7903761829   -0.1121771846
 O    0.8238585606   -3.1386676745   -0.1126758750
 C    0.6316151626   -0.8018290653   -1.1740304114
 C   -0.3068491185   -1.3671798389   -2.2288479690
 O    1.7355835073   -0.1385269871   -1.7833415209
 H    0.9508191008    1.9431956027   -0.3150449114
 H   -0.7969672518    1.9194166272   -0.6251244806
 H   -0.1942593738    1.8940575562    1.0333020968
 H   -1.3622822114   -0.3377873655    1.6442690596
 H   -1.4060012021   -1.6836665204    0.4212177196
 H    1.1318447362   -0.7497460240    1.9549000002
 H    2.3336539014   -1.7015991849   -0.1576594430
 H    1.2847454485   -3.5946890198   -0.8240836961
 H   -1.1015474103   -1.9718017550   -1.7881743067
 H   -0.7759893268   -0.5588169775   -2.8039485737
 H    0.2531363595   -1.9954332357   -2.9296050128
 H    1.3859698441    0.5406273404   -2.3707735353