20

 C   -0.2653472460    1.5736946329    0.1694674052
 C   -0.0681496821    0.0573454636    0.0674499299
 C   -1.3785120446   -0.7221342488   -0.0668010079
 C   -2.1702729296   -0.4316325799   -1.3551028333
 O   -2.8730161484   -1.6352290783   -1.7063153782
 C   -2.5319433571   -2.6774135139   -0.8069128081
 C   -1.2100566444   -2.2488567030   -0.1484845631
 C   -3.6047995211   -2.8728740531    0.1958349599
 N   -4.4364033215   -3.0245641256    0.9838360586
 H    0.6930210167    2.0868021714    0.2916454425
 H   -0.7444894404    1.9792822186   -0.7279368102
 H   -0.8944406610    1.8336948738    1.0277437974
 H    0.5745845025   -0.1757241231   -0.7923515689
 H    0.4666698932   -0.3000730537    0.9558516424
 H   -2.0176211032   -0.4931716464    0.7956700104
 H   -2.8971352039    0.3777080455   -1.2375519452
 H   -1.4976441149   -0.1731085497   -2.1849376074
 H   -2.4377697623   -3.6066524872   -1.3786393549
 H   -0.3834441577   -2.5105132980   -0.8177706829
 H   -1.0392023444   -2.7243093549    0.8189965840