14

 C   -0.0560941203    1.5101306552   -0.0018152946
 C    1.4383162501    1.8886633684   -0.0252659376
 O    2.1958147380    1.4667217822    1.1101456357
 C    2.2925570085    0.6724098571   -0.0891608215
 C    1.3208171755   -0.4412940856   -0.0814204454
 C    0.0271106498    0.0072030704    0.0015437718
 N   -0.8141175710   -1.0480322272    0.0988650695
 N   -0.0986325805   -2.1439416228    0.0616406643
 N    1.2101652326   -1.7816825102   -0.0364860941
 H   -0.5507571021    1.9184836705    0.8852200426
 H   -0.5704189057    1.9108190034   -0.8823425311
 H    1.7491133228    2.8360658850   -0.4573714432
 H    3.2694322085    0.6330365414   -0.5584892396
 H    1.9104223038   -2.5048550874   -0.0683276569