14

 O   -0.1154877729    1.4744373669    0.0457153696
 C   -0.0112804003    0.0814954927    0.0026598968
 C    0.7613962989   -0.3802239328   -1.2574608832
 C    0.0815765686    0.1121242430   -2.5262465295
 O   -0.1946218406   -0.6041696385   -3.4515978590
 C    0.6834246174   -0.4200508771    1.2605237930
 O    1.1275377287    0.3410066350    2.0866567589
 C    0.7885846668   -1.8746161109    1.4237637158
 N    0.8505029919   -3.0236889499    1.5364558771
 H    0.3378771150    1.7663087952    0.8519804715
 H   -1.0148157864   -0.3761421517   -0.0151067309
 H    1.7668338806    0.0597410906   -1.2177248986
 H    0.8459032769   -1.4689227787   -1.3059219006
 H   -0.1386676346    1.1988605861   -2.5386422209