25

 C   -0.0031663139    1.5505091513    0.1111644141
 C   -0.0024299259    0.0137850245    0.0785260648
 C    0.7007336490   -0.5270522441    1.3325329781
 C   -1.4343776704   -0.5580590196   -0.1048751923
 C   -2.0726736369   -0.1106032934   -1.4319953916
 C   -1.4713679233   -2.0789761524   -0.0167243949
 O   -0.5674929652   -2.6306769013   -0.9468205627
 C   -1.6921135060   -2.7832695174    1.2957308518
 C   -2.7813769597   -2.7774052991    0.2342050038
 H    1.0125377640    1.9300965270    0.2639553471
 H   -0.3796969051    1.9911290554   -0.8152853153
 H   -0.6210921047    1.9259925870    0.9366858094
 H    0.5826213968   -0.3089665783   -0.7919134612
 H    0.1376296420   -0.2843130291    2.2422822458
 H    0.8279291521   -1.6104413287    1.2907582774
 H    1.6937860000   -0.0763287307    1.4340399436
 H   -2.0544052845   -0.1827833485    0.7220766423
 H   -3.0726423837   -0.5409163117   -1.5430877612
 H   -2.1722599918    0.9754385115   -1.4934078685
 H   -1.4688353896   -0.4503558497   -2.2787860597
 H   -0.6924568683   -3.5837285719   -0.9754795699
 H   -1.1558568797   -3.7129237317    1.4627270460
 H   -1.8429987219   -2.1944528804    2.1939605637
 H   -3.6704822738   -2.1797810115    0.4081566742
 H   -2.9734563595   -3.7039271172   -0.2995315248