19

 O   -0.0015850454    1.4149887439    0.0384705560
 C   -0.0220160564    0.0147827197   -0.0256926323
 C   -1.4659042506   -0.4811271453   -0.0340346656
 O   -2.4020482536    0.2874419123   -0.0279588876
 C   -1.6432796817   -1.9579038094   -0.0537273073
 C   -2.8492789268   -2.5414081995   -0.0278835454
 C   -2.7660244370   -4.0417759406   -0.0075169068
 C   -1.2809699942   -4.3181634160   -0.3572256678
 C   -0.5318369645   -2.9958160545   -0.0464394510
 H    0.9170628610    1.6986468929    0.0328663436
 H    0.4695427913   -0.3768047036   -0.9344799284
 H    0.4926223885   -0.4599183662    0.8289601455
 H   -3.7783077074   -1.9845861461    0.0103293029
 H   -3.0336455869   -4.4197341615    0.9902081635
 H   -3.4643087916   -4.5163432657   -0.7058756402
 H   -0.8684622994   -5.1737528299    0.1824828247
 H   -1.1969239951   -4.5390692716   -1.4257618065
 H    0.2601601459   -2.7926755375   -0.7752718277
 H   -0.0423373161   -3.0311445216    0.9370292504