21

 C    0.1648658236    1.4007578811    0.1253822993
 C   -0.0752783330   -0.1052977850   -0.0569222983
 C   -1.5634636980   -0.4348519624   -0.0516973019
 C    0.6788274834   -0.6565036682   -1.2857097904
 C    2.0720023950   -0.8774468929   -0.7284821260
 C    3.2376678844   -1.3146143304   -1.4958550278
 O    3.0968609475    0.0542384847   -1.0999140909
 C    1.8743877326   -1.1289969079    0.7656143974
 O    0.5139745059   -0.8313891463    1.0449385365
 H    1.2314554859    1.6402346295    0.0889891854
 H   -0.3342947393    1.9734958116   -0.6632558324
 H   -0.2304459568    1.7257194634    1.0920142491
 H   -2.0715018307    0.0560325938   -0.8876217962
 H   -1.7153979430   -1.5147082129   -0.1336839779
 H   -2.0267754512   -0.0937377335    0.8787618520
 H    0.2368928021   -1.6100294100   -1.5956526755
 H    0.6908985357    0.0224083518   -2.1405668083
 H    4.0385623780   -1.8638444210   -1.0006524541
 H    3.1432935518   -1.5070924995   -2.5644506264
 H    2.0604035776   -2.1734291506    1.0440605143
 H    2.5613413585   -0.4900391252    1.3371761022