16

 O    0.7605242833    0.9912285917   -1.4407545469
 C    0.3579836600    1.4197772987   -0.3764108899
 N    1.0804483929    1.4452604514    0.7703967662
 C    2.4829125301    1.0206824344    0.8020438520
 C    3.4515712380    2.0458035291    0.2879200527
 C    3.6334304946    2.4417427445   -1.0254942291
 N    4.6004101051    3.3867159330   -1.0060658140
 N    5.0776761697    3.6420790137    0.2276044946
 C    4.3782559051    2.8286635371    1.0138651032
 H   -0.6649481050    1.8216756742   -0.2365791795
 H    0.7047138652    1.9452116243    1.5603955896
 H    2.7254626950    0.7594277222    1.8355779178
 H    2.5431731237    0.1065343985    0.2057214720
 H    3.1365745535    2.1261594482   -1.9286257441
 H    4.9832317129    3.8901404448   -1.7884257396
 H    4.5656268561    2.8233887342    2.0787994249