20

 C   -0.1890548015    1.4053006180   -1.0050899645
 C   -0.0446422085    0.1893018651   -0.0838002879
 C   -1.3716310800   -0.4678980426    0.2316353443
 C   -2.0365577410   -1.3675071021   -0.7777313529
 C   -1.4780168110   -1.9436705021    0.5070296244
 O   -0.2971202379   -2.6882814548    0.4968593489
 O   -2.2866102973    0.3643665894    0.9257477635
 C   -2.0667976931    0.5212281293    2.2507222824
 N   -2.7731250449    1.3319048089    2.9115487342
 H    0.7829250139    1.8742663658   -1.1837031508
 H   -0.6084047638    1.1167433784   -1.9744750814
 H   -0.8537470673    2.1531497671   -0.5640045187
 H    0.6109290295   -0.5642418773   -0.5285691354
 H    0.4334827574    0.4906782116    0.8573000213
 H   -3.1135424304   -1.3011653944   -0.8787310582
 H   -1.4880450647   -1.5606669053   -1.6934733806
 H   -2.2077525021   -2.2384773698    1.2611152369
 H   -0.4773578266   -3.5277667929    0.0606373929
 H   -1.2633690540   -0.1177198620    2.6386388855
 H   -2.4931062268    1.3135387996    3.8902042963