23

 O   -0.0994235564    1.4587969089    0.0418690882
 C    0.0026095589    0.0425170950    0.0767571941
 C   -1.3941846708   -0.5363139463   -0.1108303777
 C   -1.4200702748   -2.0578360576   -0.0821460408
 C   -1.1618671552   -2.7904681758    1.2736506891
 C   -2.3341841862   -3.7212190949    0.9390880131
 C   -2.2505513552   -5.2159343349    0.8229366540
 C   -3.1511634842   -4.5752238013    1.8578600215
 C   -2.8047539626   -2.7696643816   -0.1684756917
 H    0.7787785077    1.8266356984    0.1756296117
 H    0.6674726027   -0.3285925179   -0.7211070438
 H    0.4238226944   -0.3019595866    1.0353756187
 H   -2.0458983032   -0.1365357243    0.6766782345
 H   -1.7960153660   -0.1710405977   -1.0645174881
 H   -0.7499010405   -2.4568254571   -0.8522602928
 H   -0.1807819394   -3.2519290978    1.4188744170
 H   -1.3732944411   -2.1422757074    2.1325284717
 H   -2.7167244833   -5.6916446894   -0.0346085067
 H   -1.3466441053   -5.7085582596    1.1683995942
 H   -2.8548586342   -4.6364670669    2.9006238481
 H   -4.2242340493   -4.6192821459    1.6983256320
 H   -3.6198062272   -2.1141129790    0.1594062718
 H   -3.0793420790   -3.2127066203   -1.1301228483