17

 O    0.1131269919    1.2756413190   -0.3734199231
 C    0.0422022452    0.0365247835    0.3131485843
 C   -1.3595502143   -0.5029282235    0.3183650349
 C   -2.5211466203   -0.1155235324    1.2483748224
 C   -3.0382377252   -1.5901815013    1.1890691506
 C   -1.8694691036   -1.9336939828    0.2458417099
 N   -1.8593462416   -1.0632966235   -0.9310915233
 C   -1.1634286429   -3.1779048031    0.2009723120
 N   -0.6023768917   -4.1896485163    0.2063350358
 H   -0.1040438980    1.0951592043   -1.2950690489
 H    0.7137637094   -0.7146872039   -0.1257847581
 H    0.3759053271    0.2333811888    1.3366836710
 H   -2.1909485587    0.1672387083    2.2498773251
 H   -3.1842413141    0.6642523813    0.8635470563
 H   -2.9675920136   -2.0974619084    2.1523650237
 H   -4.0326726481   -1.7640419451    0.7678970370
 H   -2.7983855214   -0.7498893848   -1.1731406195