20

 C    0.0392248314    1.3779599959    0.1201904534
 O   -0.0684102982   -0.0136614463   -0.0665129794
 C    0.6564151433   -0.5276724407   -1.1761685088
 C    2.1491185511   -0.6439587512   -0.8651531083
 C    0.0041265985   -1.8942980345   -1.5047694263
 C   -1.5031230215   -1.7518455745   -1.7962801123
 C    0.6836861475   -2.5527053575   -2.6185388766
 C    1.2142677046   -3.0865240810   -3.5565158864
 H    1.0571418245    1.6924689091    0.3921225587
 H   -0.2632551351    1.9332684532   -0.7814443901
 H   -0.6337932065    1.6444509803    0.9391594611
 H    0.5117526540    0.1367513134   -2.0448823376
 H    2.3031466654   -1.2929439154    0.0031049040
 H    2.6868650000   -1.0658842428   -1.7171425724
 H    2.5832553441    0.3345147207   -0.6415947601
 H    0.1237253910   -2.5165952072   -0.6066504361
 H   -1.9528858964   -2.7319954506   -1.9730095081
 H   -1.9993852345   -1.2751931138   -0.9499607964
 H   -1.6646273354   -1.1407918899   -2.6900054728
 H    1.6889565022   -3.5666069374   -4.3760157755