18

 O   -0.0185603410    1.3476317316   -0.0828653584
 C    0.0110205872   -0.0407798930   -0.0470314129
 C   -0.3898965506   -0.7702835800    1.2268125989
 C   -1.2724365369   -0.8229588450   -0.0034115632
 O   -2.4527411621   -0.0719775016   -0.0407616073
 C   -1.0929038916   -2.0049486610   -0.9097165990
 C   -0.8713201581   -1.6782518579   -2.3393641493
 N    0.2786795842   -1.9804443366   -1.4786282188
 C    0.9753580436   -0.7620153704   -0.9802439751
 H   -0.9529050219    1.5991121479   -0.1064963156
 H    0.1429763657   -1.6659697608    1.5321474327
 H   -0.7279817182   -0.1283194914    2.0337817695
 H   -3.0367508848   -0.3707479790    0.6638789777
 H   -1.4676189216   -2.9812742846   -0.6109658987
 H   -1.0752351882   -2.4216006404   -3.1042908679
 H   -1.0326962378   -0.6466060291   -2.6465290716
 H    1.2559997444   -0.1088065957   -1.8120182277
 H    1.8920284478   -1.0786177832   -0.4721458433