23

 C    0.0213990054    1.6072927297   -0.0541885784
 C    0.0022410016    0.0765419452   -0.1180572786
 C   -1.3838579220   -0.5410589651    0.0866397199
 C   -1.4148769148   -2.0790824743   -0.0640833642
 C   -2.7455257401   -2.5117187821    0.5767616952
 C   -2.6772262699   -3.4622796464    1.7874538932
 O   -2.7639553721   -2.3602213737    2.7154367811
 C   -3.0493955432   -1.4259556269    1.6418065325
 C   -2.0152237872   -0.3008466795    1.4800776666
 H    1.0278031530    1.9974692272   -0.2351728110
 H   -0.6438348229    2.0429514127   -0.8084158094
 H   -0.3039199724    1.9731766322    0.9249738671
 H    0.3956016773   -0.2484115964   -1.0902298348
 H    0.6858374297   -0.3320912858    0.6389852707
 H   -2.0630985325   -0.1161142253   -0.6680894959
 H   -1.3154340309   -2.3983675131   -1.1056730395
 H   -0.5701137086   -2.5126457624    0.4871446514
 H   -3.5230777777   -2.7244625867   -0.1586678838
 H   -3.5354584675   -4.1403818292    1.8859903903
 H   -1.7517337651   -4.0386166938    1.9121327809
 H   -4.0826131382   -1.0651338710    1.7078403806
 H   -1.2602957334   -0.4165471098    2.2665939133
 H   -2.4515096384    0.6963154943    1.5808852831