14

 O    0.0796769983    1.3180221063   -0.0146344866
 C    0.0649906309   -0.0316249532   -0.0617585385
 C    0.0093688345   -0.7980327063   -1.2055933663
 N    0.0176403125   -2.1080300640   -0.7171704023
 C   -0.0101786173   -3.4479829001   -1.0786648244
 C    0.0319110381   -4.1673970586    0.0770790530
 N    0.0855518159   -3.2782437068    1.1460126256
 C    0.0763307859   -2.0061381112    0.6457456818
 N    0.1072885704   -0.7669820044    1.0988040687
 H    0.1214369691    1.5500589185    0.9208471218
 H   -0.0325199182   -0.5510184149   -2.2494217478
 H   -0.0565708426   -3.7790723758   -2.1007971627
 H    0.0282269580   -5.2322845005    0.2289872961
 H    0.1247839546   -3.5144931490    2.1201945116