18

 C    0.0645699299    1.5679090298    0.3386770798
 C    0.0329433423    0.0480973562    0.1575359377
 N    0.7312119503   -0.6010835637    1.2532041648
 C    0.1631143052   -1.4769451191    1.9750382401
 C   -1.2262159421   -1.8965320996    1.8308457735
 N   -2.3376174861   -2.1954462746    1.7172652504
 N    0.8399241027   -2.2000462983    2.9593753080
 C    1.8944091423   -1.5638967607    3.7245189837
 C    0.6040363049   -1.9392899173    4.3805072653
 H    1.0939954445    1.9227719107    0.4382164155
 H   -0.3945858544    2.0614861079   -0.5228377851
 H   -0.4867852207    1.8639394651    1.2363930784
 H   -1.0037684939   -0.2991548247    0.0424532556
 H    0.5680327557   -0.2135357544   -0.7643360844
 H    2.7791848829   -2.1715259452    3.8860400704
 H    2.0780294337   -0.5133109279    3.5213368133
 H   -0.0792130894   -1.1340217764    4.6379661535
 H    0.5393773920   -2.8214599879    5.0091873294