18

 O    0.0036551986    1.5762475780    0.3041036239
 C    0.1058523473    0.2131647864    0.0253979681
 C    0.2411028877   -0.7142347729    1.2441230548
 O   -0.9164970977   -0.4395051064    2.0471636714
 C   -1.0442365162   -1.3802373651    0.9622185650
 C   -1.2171960298   -0.5880434820   -0.3536016047
 N   -2.3869293010    0.1789664228   -0.6998103954
 C   -3.6929881816   -0.4570767784   -0.5585781630
 C   -3.2895126020    0.6558267298    0.3454453413
 H   -0.5892442386    1.6545843033    1.0620270049
 H    0.8883248084    0.0908019267   -0.7261630521
 H    1.1221165221   -1.0784859725    1.7592655097
 H   -1.3659418839   -2.3811598848    1.2269797114
 H   -0.9933478851   -1.2535073754   -1.1954491073
 H   -4.3906980350   -0.2849128766   -1.3734104979
 H   -3.7377264950   -1.4550515084   -0.1253616150
 H   -3.0688455006    0.4060306351    1.3781975814
 H   -3.6854640777    1.6551045403    0.1860775036