15

 O    0.1385723420   -0.0395260078   -0.0470331581
 C    0.1234405280    1.1608475909   -0.0205265714
 C    1.3999532818    2.0256571027   -0.0507624489
 C    1.5550603408    2.8148683000    1.3128290066
 N    2.5397202506    2.0634385570    2.0897618334
 C    3.0317083135    1.1907109138    1.3023019490
 N    2.5961747780    1.1793241725   -0.0203789384
 C    1.3031753468    2.8984641698   -1.2139258388
 C    1.1494685274    3.6151450279   -2.1668138228
 H   -0.8185059274    1.7463772475    0.0269264202
 H    1.9137519351    3.8303143573    1.1161932014
 H    0.6033104761    2.8979430654    1.8493036646
 H    3.8040162036    0.4867390623    1.5982665434
 H    2.4704242160    0.2677528583   -0.4459922911
 H    1.0428432377    4.2519304524   -3.0105889892