21

 C    0.1064968284    1.7058878452    0.0662880560
 C    0.0459395999    0.1739372711    0.0453374197
 C    0.7162258364   -0.4366464122   -1.1833639621
 C    0.7509939011   -1.9980545868   -1.2784671994
 C    0.5570910454   -2.8633207780   -0.0461484786
 N   -0.4150438047   -1.9359464319   -2.1939923311
 C   -0.1472769185   -0.5170494722   -2.4930546861
 C   -1.3439146053    0.3164694746   -2.6292357896
 N   -2.2831006103    0.9801940653   -2.7478366006
 H    1.1443722216    2.0574476619    0.0468377672
 H   -0.4149891085    2.1425469555   -0.7898652986
 H   -0.3618008384    2.0998472104    0.9731023766
 H    0.5476373511   -0.2172253390    0.9389879366
 H   -0.9959519534   -0.1601438617    0.1049792150
 H    1.6875395583    0.0368542341   -1.3464166813
 H    1.6734165168   -2.3071299642   -1.7952918962
 H   -0.3491227425   -2.5863153611    0.4975431248
 H    0.4659329015   -3.9154661616   -0.3371081808
 H    1.4155381094   -2.7797498073    0.6292015167
 H   -0.4038258172   -2.5600929908   -2.9938493351
 H    0.4795666089   -0.3468439912   -3.3804018131