17

 C   -0.0972209894   -1.2405159746    0.0940271211
 C   -0.0461036678   -0.0405553446    0.0410745462
 C    0.0307963621    1.4038650071   -0.0308883173
 C   -0.7110377935    2.0522787328   -1.2049910211
 C    0.0643325631    3.3644096351   -1.3924656564
 O    1.4257864271    3.0428857868   -1.0933145741
 C    1.4354203571    2.1031767224   -0.0499499019
 C    1.0399790622    2.6165877504    1.3487522780
 O   -0.2869286649    2.0540133956    1.2332171117
 H   -0.1482918044   -2.3001596216    0.1457639667
 H   -0.6239118149    1.4156819690   -2.0897427351
 H   -1.7674669051    2.2000152992   -0.9716334878
 H    0.0341862919    3.7548479811   -2.4118205693
 H   -0.3117605507    4.1379579027   -0.7090398828
 H    2.3369047398    1.4962799472   -0.1279131847
 H    1.6000625035    2.1661793639    2.1769188494
 H    1.0252213840    3.7060444776    1.4610866872