20

 C    0.0917233057    1.4333157436    0.1870136168
 C    0.1211333565   -0.0851336892   -0.0039857473
 C    0.6300974944   -0.5064979699   -1.3871044784
 C    0.6613614420   -2.0264365744   -1.5796100689
 C    1.1670449832   -2.4270719143   -2.9601000607
 O    1.1015103113   -3.8499787527   -3.1340867004
 C    2.2505518575   -4.5464196930   -3.0949345073
 O    2.2929761797   -5.7361100170   -3.1890645076
 H    1.0913328465    1.8668986190    0.0715144710
 H   -0.5629012340    1.9130130750   -0.5491261109
 H   -0.2744077076    1.7025212873    1.1824023296
 H    0.7550583016   -0.5410034662    0.7677136490
 H   -0.8853631185   -0.4953855517    0.1496515382
 H   -0.0051727606   -0.0523519510   -2.1603263325
 H    1.6370845999   -0.0944430233   -1.5428370923
 H    1.3026043637   -2.4890925451   -0.8183580025
 H   -0.3414912941   -2.4468580197   -1.4395654177
 H    0.5438416269   -1.9944254456   -3.7488099179
 H    2.1971256943   -2.0797514737   -3.1180590587
 H    3.1412823318   -3.8969277181   -2.9752993716