20

 C    0.0595455570    1.4101502474    0.0112536760
 O    0.0235790484   -0.0163362345   -0.0048122313
 C    0.5377417982   -0.6205704766   -1.0982436099
 C    0.4358543263   -2.1231716714   -0.9615374688
 N    1.0190552639    0.0705906032   -2.0464590531
 C    1.5647808059   -0.5703872516   -3.2237038597
 C    0.7881129350   -0.1219931688   -4.4775982863
 C    1.4731564191   -0.5558225405   -5.7505096585
 O    0.9663562949   -1.2115867440   -6.6240736044
 H    1.0886438339    1.7748792916   -0.0521381162
 H   -0.5028546178    1.8240302588   -0.8303545781
 H   -0.3945391674    1.7049507884    0.9583663115
 H   -0.0893906534   -2.3741833214   -0.0403498424
 H   -0.1045210731   -2.5580192317   -1.8068731761
 H    1.4300582834   -2.5788770812   -0.9345149988
 H    2.6117116320   -0.2534279625   -3.3305831565
 H    1.5713491278   -1.6690582204   -3.1771011947
 H   -0.2356949671   -0.5054883143   -4.4706352624
 H    0.7455858414    0.9756790959   -4.4672095484
 H    2.5337264415   -0.2166080764   -5.8351328720