14

 O    0.0206285674   -0.0050431384    0.1628865409
 C   -0.0304043712    1.1963850793    0.0332862303
 C   -1.2945115714    2.0767533963    0.0007499555
 C   -0.7814397556    3.5045653664    0.0502654378
 C    0.0679271374    3.9336833352    1.2295136539
 C    0.7258111333    3.4341396202   -0.0351997714
 N    1.0516393349    2.0397636815   -0.0924726064
 H   -1.8483429404    1.8715231414   -0.9212257656
 H   -1.9431007033    1.7985942108    0.8361087212
 H   -1.3166904946    4.2729389479   -0.4932117273
 H    0.1132432544    4.9973360422    1.4381717770
 H    0.1119454782    3.2945928987    2.1061057462
 H    1.3069776596    4.0957899177   -0.6671089918
 H    1.9749462115    1.6847600207    0.1034978799