21

 C    0.0251525991    1.4671301507    0.0715136016
 C    0.0174717795    0.0117765937    0.0158147890
 C    0.0077742531   -1.1918774749   -0.0312592602
 C   -0.0014079333   -2.6580320805   -0.0859127780
 C   -1.4276244301   -3.1751015181    0.2101968082
 C    0.4394946607   -3.1154487589   -1.4963306480
 C    0.9911117956   -3.1783004695    1.0090370003
 C    1.1216397507   -4.6847178679    1.0518172424
 O    0.6559387790   -5.3837086557    1.9165416313
 H    0.6921725652    1.8315188429    0.8606555109
 H    0.3656059938    1.9005065182   -0.8754124046
 H   -0.9757546264    1.8630321209    0.2759037875
 H   -2.1304632639   -2.7952592076   -0.5362166410
 H   -1.4572197149   -4.2688543369    0.1895692400
 H   -1.7650350351   -2.8442507797    1.1959374951
 H    1.4650874853   -2.8009118100   -1.7106103977
 H    0.3814070223   -4.2039597917   -1.5951221818
 H   -0.2131927341   -2.6735391605   -2.2538056728
 H    1.9805176992   -2.7509473556    0.8055597047
 H    0.6558107777   -2.8363558582    1.9914548965
 H    1.6968235766   -5.1358578908    0.2114028966