19

 C    0.0502353687    1.5524307606   -0.0948234190
 C    1.6135330454    1.3889434148    0.0087507406
 C    1.3149233946    0.0547071765    0.6516578158
 C    1.6005638814   -0.6198052790    1.7605074358
 C    0.4449602940   -1.4831641283    2.2529329496
 C   -0.7701950940   -0.5414119322    2.4874779108
 C   -0.9924825636   -0.8045119822    0.9797861638
 O   -0.2781772380   -2.0766014427    1.1325569395
 C   -0.0766828991   -0.0013544623    0.0515585484
 H   -0.3473361344    2.0817949395    0.7746546622
 H   -0.3453440906    2.0025037893   -1.0079618023
 H    2.0609937273    1.3002144772   -0.9873609227
 H    2.1760815631    2.1259344394    0.5869187355
 H    2.4637248914   -0.4405588156    2.3938859498
 H    0.7128491434   -2.2244040636    3.0083143518
 H   -1.5546492727   -1.0190758446    3.0774612822
 H   -0.5801107936    0.4736927202    2.8410012484
 H   -2.0165129372   -0.9378137975    0.6208154880
 H   -0.0898356362   -0.4694160196   -0.9397142283