15

 C   -0.0061057040    1.5334736946    0.1163862447
 C    0.0919172572    0.0175508562   -0.0248788573
 C    0.7235146997   -0.4538369858   -1.2977131001
 N    1.1468728491    0.3673504802   -2.1982900288
 C    1.7099272441   -0.1924813468   -3.3274963459
 N    1.8735652918   -1.4370397417   -3.6105529101
 O    1.4214112449   -2.3373352893   -2.6475736427
 C    0.8394910483   -1.9263926978   -1.4738905346
 O    0.4687471835   -2.7482132240   -0.6811124800
 H    0.9821855523    1.9990558937    0.0823292672
 H   -0.5996834071    1.9689135905   -0.6915051118
 H   -0.4768453484    1.7905858141    1.0686889683
 H    0.6563361108   -0.4309572534    0.8042460568
 H   -0.8949523578   -0.4603738660    0.0452598500
 H    2.0677373154    0.4932787157   -4.0883892259