16

 C   -0.4999425378    1.4138048500   -0.0585367479
 C    0.1052757650    0.0242087538   -0.0327293339
 O    1.3561308608   -0.0831158784   -0.7764816393
 C    2.0853190162   -0.5094563784    0.3754541927
 C    3.1544231792   -1.5650646687    0.3552140807
 C    3.5094778831   -0.1299661609    0.6609968061
 C    0.8660173010   -0.4059239176    1.2379625118
 O    0.6032811107   -0.5672214597    2.3929975057
 H    0.2147030594    2.1585602920    0.3024365832
 H   -0.7947928929    1.6806189121   -1.0775393992
 H   -1.3890045062    1.4426654615    0.5791150923
 H   -0.6121231341   -0.7337066187   -0.3741703840
 H    3.1568253188   -2.2918486533    1.1605742993
 H    3.4187800555   -1.9505373660   -0.6233739354
 H    4.0116749084    0.4397290187   -0.1131466863
 H    3.7582249729    0.1455103235    1.6803613441