20

 C   -0.0098718330    1.3820381054   -0.0529733354
 O   -0.0036673312   -0.0253177121    0.0340996523
 C   -1.2896804333   -0.5863142368    0.0009296715
 C   -1.1456822531   -2.1154492833   -0.0053321652
 C   -2.5141642496   -2.8125472695    0.1300231063
 C   -2.4191795273   -4.3317440610    0.2149756562
 O   -3.7361916572   -4.8196560967    0.4097067039
 C   -0.4403335635   -2.5544055299   -1.2158125395
 N    0.0869758351   -2.9216823386   -2.1764235657
 H    1.0305763952    1.7121134384   -0.0243300609
 H   -0.4692184333    1.7281931292   -0.9913041034
 H   -0.5533388873    1.8397883155    0.7883348568
 H   -1.8760266776   -0.2887072214    0.8862683768
 H   -1.8452639598   -0.2569753030   -0.8921952544
 H   -0.5145494075   -2.3820535783    0.8520065950
 H   -3.0031028295   -2.4427013122    1.0376126227
 H   -3.1560603773   -2.5445527696   -0.7158932326
 H   -1.9722767900   -4.7304095036   -0.7071900315
 H   -1.7585173226   -4.6160227228    1.0511257859
 H   -3.7119020172   -5.7796660696    0.3625439613