16

 O   -0.1857837648   -0.0146696003   -0.2024180201
 C   -0.0940429948    1.1642877513    0.0142151536
 C   -1.2655437104    2.1262371662   -0.1470812550
 C   -1.2126688830    3.2820145342    0.8256086552
 N   -0.6381050529    2.9606233352    2.1436178121
 C    0.0990730273    3.8487632402    1.2280623673
 C    1.3744912599    3.2668996181    0.6628989837
 C    1.2883980190    1.7616301971    0.4383873016
 O    2.2391603065    1.0331025468    0.5415504218
 H   -1.2410552523    2.5066175193   -1.1793238640
 H   -2.1887861216    1.5483261270   -0.0455834709
 H   -2.0606782261    3.9620197736    0.7925689165
 H   -1.0917034897    3.4823318150    2.8873035876
 H    0.1323452163    4.9095276296    1.4653550074
 H    1.5987077453    3.7335986237   -0.3080562052
 H    2.2342034213    3.4593170629    1.3113838283