17

 O   -0.6098611378    0.5188783741    0.2495312155
 C    0.3809998153    0.8740533964   -0.3334620137
 C    1.2653233545    2.0292113762    0.0973621979
 C    1.3884486582    3.0702329790   -1.0062703836
 C    2.5395537898    3.9930408021   -1.2196868042
 C    3.8775041288    3.3250336893   -0.8725221345
 C    3.5449627968    2.2628273371   -1.9553833115
 O    4.1834934513    1.3848999616   -2.4611010856
 C    2.2212826471    2.8971205830   -2.2779764333
 H    0.7189191014    0.3623375432   -1.2630038991
 H    0.8404156977    2.4710160906    1.0036183355
 H    2.2481519907    1.6124560781    0.3494242619
 H    0.4337576478    3.5361853778   -1.2437231197
 H    2.4014514470    5.0588718865   -1.3445121211
 H    4.7453080410    3.9074739312   -1.1958078561
 H    4.0390101664    2.9949197458    0.1572098647
 H    1.7677038439    2.9664015879   -3.2590784630