18

 C   -0.0015146933    1.5448791545    0.0207227896
 C    0.0492892793    0.0155636505   -0.0165436529
 N    0.7027789253   -0.5048472231   -1.2091583693
 C    0.0749166003   -0.8541977152   -2.3708814475
 C    1.0261038840   -1.2319735915   -3.2969050156
 C    2.2869064368   -1.1028190778   -2.6749118292
 C    2.0720248228   -0.6479551906   -1.3803463416
 C    2.9901312477   -0.3605974137   -0.3521036139
 C    3.7721155623   -0.1106828658    0.5321369591
 H    1.0085429550    1.9626551535    0.0257865570
 H   -0.5352147735    1.9392715223   -0.8489347328
 H   -0.5179524270    1.8816769842    0.9250851398
 H    0.5889358536   -0.3653282814    0.8547687645
 H   -0.9603066016   -0.4048464417    0.0127287735
 H   -1.0008273138   -0.8109655822   -2.4426199069
 H    0.8299670283   -1.5715569584   -4.3019850801
 H    3.2542816060   -1.3206104487   -3.0994409164
 H    4.4703370579    0.1016786352    1.3029792828