16

 C    0.0477266524    1.3487260149   -0.0833629175
 O   -0.0229708171   -0.0640204779   -0.0748708019
 C   -1.2410367788   -0.6316235133    0.0279657503
 C   -2.4002155189    0.0565184814    0.1236081338
 O   -3.6290868825   -0.5380057380    0.2273973176
 C   -3.6707785860   -1.8838912086    0.2333217091
 C   -2.5821823119   -2.6628427645    0.1437466783
 C   -1.2384179101   -2.1064702863    0.0304161699
 N   -0.1306348542   -2.7517904522   -0.0609982415
 H    1.1052172863    1.5995528701   -0.1722054698
 H   -0.5002009616    1.7729782747   -0.9356746103
 H   -0.3512445260    1.7762324324    0.8465349531
 H   -2.4906571731    1.1312749664    0.1292235882
 H   -4.6872127337   -2.2471818079    0.3189405500
 H   -2.7048623436   -3.7401555325    0.1559590809
 H   -0.3165837212   -3.7573696588   -0.0436265704