19

 C    0.4681898680    1.2268694564    0.2613816039
 N   -0.1658560412    0.0229596016   -0.2442057705
 C    0.5320609437   -0.8291963910   -1.0748620518
 O    1.6142533758   -0.5524353314   -1.5670813831
 N   -0.1017990770   -2.0343838505   -1.3148172649
 C    0.4205827901   -2.9196815435   -2.3464975642
 C    1.6238575626   -3.7448423787   -1.8411645931
 C    2.1090842166   -4.6776274691   -2.8487290696
 C    2.4782437255   -5.4394461946   -3.7023224994
 H    0.9657275280    1.0707175492    1.2279738620
 H    1.2215643317    1.5333760173   -0.4643739623
 H   -0.2726537556    2.0240766028    0.3724214298
 H   -0.8952792206   -0.3787394066    0.3231016583
 H   -1.0913641191   -2.0850658874   -1.1354634889
 H   -0.3839623787   -3.5936502230   -2.6512824476
 H    0.7326922352   -2.3418820211   -3.2221959598
 H    2.4153161484   -3.0440015399   -1.5567800217
 H    1.3310546610   -4.2870061080   -0.9337525135
 H    2.8221939257   -6.1131627624   -4.4471545835