17

 O   -0.0574041367    1.6776747271    0.0419921903
 C    0.0382037479    0.2704788922   -0.1147470912
 C   -1.3002335962   -0.4293188568    0.0713062398
 C   -2.4475858275    0.2994280767   -0.6386611347
 O   -2.0974236319    0.7079837938   -1.9444083605
 C   -1.2483800390   -1.9673917918   -0.0162772070
 C   -1.6182741254   -1.9111201399    1.4648157229
 O   -1.8268750479   -2.6686616933    2.3547291355
 O   -1.6434164804   -0.5366133976    1.5121544366
 H   -0.2996360674    1.8561219457    0.9577587550
 H    0.3788739139    0.1007990809   -1.1401489023
 H    0.7785842281   -0.1678772767    0.5690574364
 H   -3.3127573635   -0.3655987973   -0.7249303999
 H   -2.7471235925    1.1467691558   -0.0086768570
 H   -1.5270998907    1.4793802918   -1.8429156356
 H   -1.9916185295   -2.4385532933   -0.6608778262
 H   -0.2673665912   -2.4083703974   -0.2075035620