17

 C    0.5690524320    1.5124359441    0.4217602079
 C   -0.1148825299    0.1838275879    0.0763180956
 C    0.3902722790   -0.3937722586   -1.2284320450
 N    1.7365858575   -0.9673576441   -1.2491697059
 C    0.6097489349   -1.8825753914   -1.4325251774
 C    0.3303638874   -2.8179583935   -0.3705641520
 N    0.0728336043   -3.5689141128    0.4697579034
 C   -0.0348825424    0.2947165691   -2.4956328948
 O    0.5562788592    0.1658793957   -3.5404761408
 H    1.6507281828    1.3739797053    0.5028633108
 H    0.3826731971    2.2765011629   -0.3413389165
 H    0.2003116470    1.8999876581    1.3751265672
 H    0.0529045444   -0.5412919446    0.8769612866
 H   -1.2014225215    0.3201323491    0.0001040499
 H    2.1443184130   -0.7865681066   -2.1685780960
 H    0.4188990536   -2.2648642741   -2.4316893397
 H   -0.9376877684    0.9338689936   -2.4121839033