19

 C    0.3884078487    1.2339728484   -0.0256744770
 O    0.2023944756   -0.1578158054    0.1612446606
 C   -1.1402541015   -0.5802818095    0.0777786228
 C   -1.9175481959   -0.4569738343   -1.2788918027
 C   -2.0659226819   -1.9801852762   -1.2990675831
 C   -0.7113172100   -2.6232435915   -1.2821814120
 C   -1.2828326397   -2.1060493874    0.0097634916
 C   -1.9194548381   -0.0517211940    1.2778832126
 O   -3.0777471230    0.2737715110    1.2794174042
 H    1.4581031186    1.4272677961    0.0795481513
 H    0.0641058621    1.5586026480   -1.0238690040
 H   -0.1516824950    1.8330493345    0.7223938122
 H   -2.8566197929    0.0793890769   -1.1350117988
 H   -1.3576602087   -0.0223501906   -2.1117607887
 H   -2.9607550865   -2.5146280642   -1.5898941769
 H   -0.6998108671   -3.7053407122   -1.3642043122
 H    0.1424313081   -2.1261240761   -1.7331655980
 H   -1.4571659487   -2.7471251484    0.8653376022
 H   -1.2970607043   -0.0183705153    2.2019427360