17

 C   -0.0391331070    1.4564080183   -0.0802743910
 C    0.0235838532   -0.0461816551    0.0857811203
 O    1.0229152331   -0.6373767665   -0.8131897621
 C    1.7833979156   -1.0583310059    0.2936489823
 C    0.8037604014   -0.5424498840    1.3077680578
 C    1.0130931344   -2.0538511141    1.1653431312
 N   -0.0150342536   -2.8772469846    0.5986606158
 C    1.8242831515   -2.6222437392    2.2232933624
 N    2.4532454475   -3.1159404780    3.0609403449
 H    0.9390023486    1.9142249522    0.0929467271
 H   -0.3653409148    1.7056376862   -1.0940959562
 H   -0.7577133174    1.8846012946    0.6270924142
 H   -0.9487349552   -0.5205814648   -0.0712314960
 H    2.8650534794   -1.0600271694    0.2231024680
 H    0.9380426792   -0.0229354627    2.2467537955
 H    0.3814217721   -3.6693426791    0.1036617791
 H   -0.6300634079   -3.2363634277    1.3215931866