20

 C    0.7419494156   -1.4844714178   -0.6129672569
 C   -0.1611372042   -0.8147930073    0.4234761371
 C   -1.5767629245   -0.4691159553   -0.0981156878
 O   -1.4885945253    0.4498779322   -1.1978452801
 C   -2.2903719897   -1.6831153358   -0.5229226723
 C   -2.8640659056   -2.6728338581   -0.8933732237
 C   -2.3771086835    0.2300478289    1.0056011146
 C   -2.2870289723    1.6987837108    1.1744972363
 N   -3.5242893803    1.0712831990    0.6659485890
 H    1.7290633210   -1.6883911749   -0.1886190980
 H    0.3187710504   -2.4336143136   -0.9553781824
 H    0.8834525554   -0.8364171114   -1.4834697693
 H   -0.2681286751   -1.4578518387    1.3046973480
 H    0.2856040839    0.1262362648    0.7612725964
 H   -1.4587460063   -0.0625507322   -2.0109593082
 H   -3.3825809846   -3.5439157114   -1.2113672530
 H   -2.5235713886   -0.3978144895    1.8810147888
 H   -2.3643984228    2.1330686041    2.1671115851
 H   -1.6706788089    2.2494135611    0.4714021190
 H   -3.5347030845    1.1841339950   -0.3466067427