9

 O   -0.1303832204    0.0283084679   -0.0009674417
 C   -0.0032010795    1.2211397422    0.0065505301
 C    1.3273840568    1.8946309771   -0.0022752427
 N    2.4775181320    1.3221752712   -0.0180240214
 O    3.3928709557    2.3827566899   -0.0198226762
 C    2.7178520404    3.5736515558   -0.0044437178
 O    3.1800721318    4.6598986841   -0.0014492132
 O    1.3713274361    3.2485951506    0.0069453569
 H   -0.8516533429    1.9318761612    0.0205679959