19

 C   -0.0448590394    1.5129125982   -0.1508681777
 C    1.5256808298    1.5861548072   -0.0214821493
 C    1.9718174866    1.3388750316   -1.4464155595
 C    2.0195482492    0.0229635877   -1.6956132829
 C    0.9348569816   -0.7608827437   -2.4336029095
 C    0.4838574424   -1.1141891433   -0.9615013548
 C    0.0044321760   -0.0193397997    0.1107301739
 C    1.4739614008    0.1454838616    0.6308465545
 C    1.9355495767   -0.8405645356   -0.4470038400
 H   -0.5418588320    2.0061079495    0.6927240678
 H   -0.4859003033    1.8864085452   -1.0809471481
 H    1.9408806779    2.4331143741    0.5304993046
 H    1.7268157021    2.0761650891   -2.2075795536
 H    0.2742409089   -0.1896085098   -3.0898050388
 H    1.2491303272   -1.6837736700   -2.9354333038
 H   -0.0119771240   -2.0812252363   -0.8345585617
 H   -0.7842449439   -0.4163305457    0.7508299975
 H    1.7389686149    0.0300932158    1.6801310217
 H    2.6717827984   -1.6311214760   -0.2945258705