18

 O   -0.0795392467    0.0326276851    0.3897448746
 C   -0.0901000626    1.2100546616    0.1121901731
 C   -1.3016841102    2.0871595359   -0.1341149011
 C   -1.6114066346    2.9589764388    1.0670169291
 C   -0.8325920485    3.5328347842   -0.0800716932
 C    0.6868102170    3.4687465317   -0.0284122124
 C    1.5534342091    3.7108853962    1.2498927669
 C    2.0092596790    2.2246331743    1.1357599682
 N    1.0247856864    2.0349768745    0.0425317971
 H   -2.1064006846    1.7256600662   -0.7604856523
 H   -2.6391320728    3.2861846135    1.1761206086
 H   -1.1143327681    2.7439328858    2.0080084556
 H   -1.2970032310    4.2926037176   -0.6966094620
 H    1.1131622234    3.9475768363   -0.9178084508
 H    2.3364685411    4.4647683115    1.1561419550
 H    0.9610869449    3.9174100427    2.1436100952
 H    3.0414718330    2.0896055307    0.8004421724
 H    1.8250007053    1.5745017234    1.9949854861