15

 N    0.0213555001    1.2706936983    0.5452722975
 C    0.0473082172    0.1070574048    0.0546804599
 C   -1.2454073336   -0.6365896543   -0.2003515047
 N   -1.3537026837   -1.2716294814   -1.5167037470
 C   -0.7256596408   -2.4587464330   -1.8103589780
 O   -1.1544489182   -3.3145295444   -2.5329666554
 O    0.4960093162   -2.5896019004   -1.1873320545
 C    1.3522931461   -1.4685357136   -1.2134239993
 O    1.2159064521   -0.5843391757   -0.1165851812
 H    0.9731465237    1.6004738980    0.7222190493
 H   -1.3676575160   -1.3792598493    0.6003605793
 H   -2.0467787751    0.0946385620   -0.1096418495
 H   -2.2641895375   -1.2122684851   -1.9483831242
 H    2.3654537395   -1.8602972305   -1.1288796280
 H    1.2209676200   -0.9198479554   -2.1525800942