17

 O   -0.1967354316    1.4611204098   -0.2043602594
 C    0.0152237041    0.0629119460   -0.0340604218
 C   -1.3733887465   -0.5719980074    0.1200932652
 C   -1.3245323619   -2.0924148322    0.0229149968
 N   -1.7367559080   -2.6776264787   -1.2719602846
 C   -0.3087216304   -2.7125210203   -0.8640491999
 C    0.6215454442   -1.8062331645   -1.5858760111
 C    0.7709401371   -0.5397462393   -1.2010142333
 H    0.6618732519    1.8957488624   -0.2151937184
 H    0.5950957879   -0.1126646592    0.8895658702
 H   -1.8154928238   -0.2531961027    1.0686939392
 H   -2.0006605081   -0.1814284021   -0.6859972442
 H   -1.5991369266   -2.6407092442    0.9204767866
 H   -2.1508084778   -3.5944810748   -1.1142502777
 H    0.0958312351   -3.6823373358   -0.5804931313
 H    1.1749294456   -2.2042108211   -2.4324909431
 H    1.4576950286    0.1229078341   -1.7241163332