17

 O   -0.0506582982   -0.0200860038    0.0791274055
 C    0.0343203435    1.1775518909   -0.0362910395
 C    1.3199631832    1.9379459145   -0.0550857565
 C    1.3961165987    3.2056192880    0.8789032544
 C    2.0065556781    3.9905112589   -0.2770297668
 C    3.0458084360    3.1236198867   -0.9614483602
 O    3.6464677723    2.0703103708   -0.2457363013
 C    2.6089163741    1.1266083183    0.0616936269
 C    1.6094652356    2.8876064214   -1.2673188776
 H   -0.8770614866    1.8113544874   -0.1361595348
 H    0.3970592839    3.5701212801    1.1341740795
 H    1.9872951056    3.0866796309    1.7923191382
 H    1.9753305605    5.0659409604   -0.4086448524
 H    3.7026754133    3.5850027343   -1.6892031398
 H    2.7804687854    0.7377676243    1.0692166988
 H    2.6204043572    0.2890981717   -0.6484466965
 H    1.1226109175    2.9033983050   -2.2334075579