11

 O   -0.0029852339    1.5068950089    0.0570185162
 C    0.0171601596    0.1115844500    0.0665147612
 C    0.7005261857   -0.4294035843   -1.2048954224
 O    1.1417361611    0.3306605959   -2.0239718430
 C    0.7091805332   -0.4425581308    1.2342278758
 C    1.2880065027   -0.9105163875    2.1852462045
 C    1.9398293822   -1.4399522922    3.2621940573
 N    2.4939512219   -1.8954068765    4.1755565161
 H    0.5187809653    1.7691153092   -0.7200932486
 H   -1.0131322845   -0.2868112416    0.0618202890
 H    0.7561990669   -1.5285692110   -1.3058571761