14

 N   -0.0142201575    1.3610420579   -0.1291660057
 C   -0.0008729112    0.0018610831    0.0308281209
 N   -1.0509747490   -0.6974724114    0.4018865042
 O   -0.5287193295   -2.0075331713    0.4982417044
 C    0.7563797996   -1.9277691484    0.1602856925
 N    1.1560778783   -0.7286647560   -0.1420019336
 C    1.5844681566   -3.1475157402    0.1754308413
 C    1.2971683770   -4.2612468813    1.0985920644
 O    0.9681058982   -4.3521772231   -0.2817744806
 H    0.6913401881    1.7101926242   -0.7591278902
 H   -0.9275992473    1.7687976700   -0.2592356557
 H    2.6024471444   -2.9769214800   -0.1650853324
 H    2.1223197979   -4.8885837152    1.4315199936
 H    0.4503675444   -4.1794857782    1.7762683469