20

 C    1.3330934940    0.1071110721    0.8182684545
 N    0.0883827862   -0.0367859808    0.0803049919
 C   -0.9921059532    0.7212042286    0.4307093562
 O   -1.0410205808    1.4860297621    1.3725876132
 C    0.1248499425   -0.8370222117   -1.1215087197
 C    0.3405043736   -2.3844988073   -1.0094074127
 C   -1.1215974573   -2.4983308171   -0.4925813889
 C   -1.1757552776   -1.4886462080   -1.6805978253
 C   -0.2380573024   -2.4637380994   -2.4493059205
 H    1.6528682139   -0.8531806253    1.2373602592
 H    2.1313600919    0.4817411464    0.1650532844
 H    1.1622190075    0.8189693407    1.6256038613
 H   -1.8480711519    0.5560888247   -0.2478388818
 H    0.7617360559   -0.3558198209   -1.8762745045
 H    1.2245444563   -2.8949376037   -0.6258931765
 H   -1.6170577316   -3.4581058246   -0.6569403189
 H   -1.3283922803   -2.1088096923    0.5045351273
 H   -2.0502466180   -0.9758597389   -2.0818319491
 H    0.3667661611   -2.0374156368   -3.2545480579
 H   -0.6770621796   -3.4201868278   -2.7394882320