14

 C   -0.0023776911    1.4141765607   -0.1028547640
 N    0.0195689360   -0.0308872925   -0.0040987411
 N    0.0263943855   -0.8257188108   -1.1012907521
 C    0.0470952962   -2.0462657919   -0.5780373123
 C    0.0605387181   -3.2181929492   -1.4711250249
 O    0.0794123756   -4.3657893683   -1.1011933454
 N    0.0540759954   -2.0899081453    0.7907533878
 C    0.0364098871   -0.8170508635    1.0994386295
 O    0.0339172574   -0.2751938996    2.3194448583
 H    0.8802801245    1.7653690304   -0.6424883309
 H   -0.9006649289    1.7390460109   -0.6331150575
 H   -0.0031620890    1.8262000569    0.9063185560
 H    0.0513704794   -2.9352995959   -2.5445007679
 H    0.0475277538   -1.0056918119    2.9516776242