19

 O   -1.0282470502    1.4083101097   -0.5196958850
 C    0.0172734443    0.8683499545   -0.2607186137
 C    1.3801982003    1.5038061538   -0.4285340975
 C    1.3438301471    2.8696454181   -1.0964738929
 C    0.5696846041    4.0312440582   -0.3883463878
 C    1.7574464900    4.9893830716   -0.6606840075
 C    2.6397786449    3.7604783399   -0.9992789032
 C    0.9437697047    2.7466374815   -2.5498006641
 O    0.8788685370    1.7101011730   -3.1607648711
 H    0.0394819983   -0.1663810762    0.1500999748
 H    1.8344663544    1.5654496472    0.5711067779
 H    2.0021751357    0.8033712323   -1.0004692181
 H   -0.4045430768    4.2910551675   -0.8061687482
 H    0.4354679025    3.8177717053    0.6747463651
 H    1.5877302413    5.6304242804   -1.5298018608
 H    2.0880600717    5.6206252839    0.1666112272
 H    3.2620093868    3.4413741196   -0.1588961803
 H    3.2714358269    3.8167209117   -1.8899186316
 H    0.7345380771    3.7185934478   -3.0534346631