16

 N   -0.1065676121    1.2254015101    0.3185438550
 C   -0.0290055312    0.0077001025    0.0026768821
 O    1.1303065822   -0.6384460368   -0.3599139562
 C    0.8444030025   -1.9149948242   -0.9561828620
 C   -0.6125597863   -2.2135666461   -0.6453384026
 C   -1.0443817878   -2.2178488486    0.8094005336
 C   -0.0960415919   -2.3269065620    1.9512690895
 O   -0.3374876885   -2.9800995756    2.9370474171
 C   -1.1661274987   -0.9533709536   -0.0533625754
 H    0.8034538180    1.6803657671    0.2308907568
 H    0.9986831062   -1.8441409827   -2.0392320322
 H    1.5513415149   -2.6444029692   -0.5506282524
 H   -1.1728271951   -2.8259311252   -1.3405280787
 H   -1.9869797422   -2.7180827855    1.0056297633
 H    0.8571031477   -1.7691293601    1.8506779288
 H   -2.1542714376   -0.5593105602   -0.2435171865