15

 O    0.0172605138    0.0104302899   -0.0524921909
 C    0.0140128386    1.2107969189   -0.0339331630
 C   -1.2623403280    2.1010501947   -0.1623906324
 O   -0.8521707655    3.3890826200   -0.6458476483
 C    0.5362902743    3.4618766748   -0.5324285189
 C    1.1706217926    3.4183434362    0.8180048934
 C    1.1535322244    2.1745017626   -0.0554763134
 O    2.1934062081    2.2059337942   -1.0430278832
 C    1.5557764091    3.3659495818   -1.6717007800
 H   -1.9511839744    1.6433429285   -0.8781231744
 H   -1.7784027107    2.1890914275    0.8034135659
 H    2.1469724606    3.8592674513    0.9888941077
 H    0.4894510518    3.4404597949    1.6606145824
 H    1.0917726125    3.0911871728   -2.6242348936
 H    2.2569186430    4.1947912220   -1.8080169213