17

 C   -0.1876756243    1.5349376565    0.0770659158
 C    1.3427860738    1.5675541995   -0.1736846376
 N    1.4198662192    0.1831197686    0.3264488050
 C   -0.0453524285    0.0021977289    0.2667622693
 C    2.3368064615   -0.7253998287   -0.1384360322
 C    3.5592097356   -0.5882549149   -0.7719001302
 N    4.0835820558   -1.8304846961   -0.9751712984
 N    3.2759238591   -2.7333474642   -0.5196085698
 N    2.2003694288   -2.0683515067   -0.0022117204
 H   -0.4877562018    2.0554957373    0.9872093367
 H   -0.8183582756    1.8595710392   -0.7496854339
 H    1.6117075274    1.6526468689   -1.2355614077
 H    1.9326464787    2.2868158057    0.4020910338
 H   -0.4849735294   -0.4320841920    1.1706332395
 H   -0.3716136197   -0.5805308978   -0.6062458931
 H    4.0750282707    0.3079637152   -1.0726513809
 H    1.4556158586   -2.5882823094    0.4313107039