19

 C   -0.0477983370    1.5426983675   -0.0511116662
 C    0.0197831634    0.0185726203    0.0338437425
 O    0.7438732424   -0.4936803767   -1.0880561350
 C    1.8051967411   -1.2609424280   -0.6464188683
 N    2.6295871717   -1.8455096553   -1.4132586601
 C    1.8110358397   -1.2661944038    0.8131973214
 C    2.8350326624   -2.0041968560    1.6131592152
 C    0.7679982209   -0.5221318881    1.2305894736
 N    0.3041474448   -0.2940060380    2.5061949808
 H    0.9564903614    1.9726279316   -0.0018749559
 H   -0.5114483663    1.8420051355   -0.9944124121
 H   -0.6516995083    1.9570631517    0.7638902133
 H   -0.9986439121   -0.3956621213    0.0026516009
 H    2.3981242371   -1.6665881874   -2.3906534270
 H    3.7916150565   -2.0008190733    1.0840726242
 H    2.9841706167   -1.5549082539    2.6021828231
 H    2.5572696422   -3.0541761303    1.7658110290
 H    0.9454048485   -0.5195336432    3.2530384555
 H   -0.1719229952    0.5828306787    2.6588995952