15

 C   -0.0645694086    1.5834417434   -0.0805041994
 C    0.0294978896    0.0489756837   -0.0255075766
 C    0.6823604787   -0.4789251118   -1.2270748536
 N    1.1846777531   -0.8951678864   -2.1806993696
 C    0.7830391201   -0.4641120662    1.2455489877
 O    2.1096506666    0.0287659805    1.3052576744
 C    0.0183266839   -0.1521158407    2.4546658658
 C   -0.5964197988    0.1404974594    3.4453121447
 H    0.9327180490    2.0268301374   -0.1367153211
 H   -0.6254524691    1.9031537894   -0.9610772307
 H   -0.5736883720    1.9545627096    0.8125848080
 H   -0.9816354312   -0.3742767705    0.0100056273
 H    0.8809746996   -1.5516712621    1.1545287733
 H    2.0891445451    0.9019509028    1.7110892669
 H   -1.1357587960    0.3780140315    4.3296336926