17

 O    0.0165868038    0.0610256987   -0.0587193331
 C   -0.0087180971    1.2573727329   -0.0135075128
 C   -1.2276219853    2.1960229997    0.0307371203
 C   -1.3182325237    2.7213841325    1.4953125120
 C    0.0452406257    3.0224677186    2.0751814909
 C    1.1878650128    2.7919605224    1.4238431352
 C    1.1694278487    2.2514777078   -0.0039291855
 C    0.6034482558    3.2990911263   -0.9512603187
 C   -0.7336589028    3.2664158741   -0.9223849226
 H   -2.1552766225    1.7025659444   -0.2664981109
 H   -1.9603437182    3.6119431382    1.5424461446
 H   -1.8128629470    1.9592965718    2.1131551254
 H    0.0663198675    3.4386556575    3.0793191938
 H    2.1490584157    2.9994841327    1.8835671401
 H    2.1201927543    1.8062313982   -0.2983010837
 H    1.2195822502    3.9774149477   -1.5284608267
 H   -1.3993537381    3.9142088866   -1.4800262682