15

 O   -0.0831273202    0.2926715147   -0.9607010360
 C   -0.0689267470    1.3002355003   -0.3136845595
 C   -1.2313968414    2.0574190975    0.2317152310
 C   -1.1130865095    2.4332272492    1.6806148419
 N   -0.8081556139    3.4082287053    0.6491974053
 C    0.6411018804    3.5416662423    0.3705367368
 C    1.2188699123    2.1396101736    0.0250253384
 C    1.9963312556    1.5179187844    1.0870589605
 N    2.5970345805    1.0396029010    1.9521783456
 H   -2.1994859203    1.9270010440   -0.2375132403
 H   -2.0332159638    2.6137180600    2.2274021987
 H   -0.3067108316    2.0015543852    2.2684761259
 H    0.7472460159    4.1974486972   -0.4969898523
 H    1.1393682033    4.0111421722    1.2206455432
 H    1.8302030198    2.1683951630   -0.8803029092