19

 C   -0.0306178677    1.5134415070    0.0827162972
 N   -0.0050584023    0.0680895103    0.1440849638
 C   -1.2531718591   -0.6641039919    0.4576849091
 C   -0.4325601168   -1.6085746797    1.3365866873
 C   -0.8414701344   -2.4766295875    2.4803365454
 C   -0.2929092675   -3.0914645424    1.2102792274
 C    0.7023931857   -0.5675950993    1.2735954932
 C    2.0604924354   -1.0337529009    0.9890443937
 N    3.1278238675   -1.4288470291    0.7870788411
 H    0.9832270565    1.8936149778   -0.0769732302
 H   -0.6450383662    1.8305550777   -0.7655141152
 H   -0.4379747318    1.9821831184    0.9981965126
 H   -1.9769653456   -0.0649198314    1.0346595182
 H   -1.7571713862   -1.0900511158   -0.4165166970
 H   -0.2126604021   -2.4879729802    3.3649574517
 H   -1.9023365876   -2.5771562314    2.6865418121
 H   -0.9811902718   -3.6076247252    0.5489571315
 H    0.7078074717   -3.5104699410    1.2345361196
 H    0.7325794423    0.0597631345    2.1808697885