17

 C   -0.0136213807    1.4981990571    0.0870447052
 C   -0.0457740421    0.0048411213    0.0632594043
 C    0.1589110600   -1.0055582447    1.1307002903
 C   -0.4168706017   -2.0744703440    0.1278833573
 C    0.9928477952   -2.0822115264   -0.4780874398
 N    1.2555087208   -0.7448787889    0.1485473637
 C   -1.0773521052   -0.8951647265   -0.6586979851
 C   -2.4393364190   -0.6067648866   -0.2381598357
 N   -3.5202431481   -0.3692550718    0.0973725327
 H    0.7498486275    1.8474206802    0.7865603832
 H    0.2283328643    1.8986746969   -0.9034731542
 H   -0.9831686573    1.9022093897    0.3940841938
 H    0.2668522436   -0.9449915196    2.2051177491
 H   -0.9902882200   -2.9709334487    0.3506813566
 H    1.6570138434   -2.8156294351   -0.0150276172
 H    1.0949628667   -2.1231305268   -1.5688697660
 H   -1.0339989975   -0.9518706061   -1.7524701982