19

 C   -0.4020542238    1.4427357868    0.2254716840
 C   -0.0885400948   -0.0531246298    0.0710999608
 C    1.0447563786   -0.3353336221   -0.9801589655
 C    2.0427487975   -0.5165254884    0.1949271776
 C    0.8472954829   -0.6117716159    1.1812314029
 C   -1.3566154974   -0.8394302102   -0.1547848241
 O   -1.8026873330   -1.6714602586    0.6035474782
 C   -2.1418500433   -0.6116859663   -1.4608191065
 O   -1.8060881776    0.1337715550   -2.3431178116
 H    0.5253658422    2.0001145571    0.3913603352
 H   -0.8830067921    1.8425347480   -0.6700483023
 H   -1.0545997477    1.6199372081    1.0873396106
 H    0.8809835670   -1.2630182752   -1.5354607305
 H    1.2362156136    0.4648024105   -1.6974465059
 H    2.7057126642   -1.3824515633    0.1425486610
 H    2.6556859026    0.3728725150    0.3606258223
 H    0.9074740059   -0.0228155891    2.0995623246
 H    0.5856473145   -1.6384987215    1.4443977608
 H   -3.0608888093   -1.2352178402   -1.5047213817