20

 C    0.0894791922    1.5747116928   -0.0157745661
 C    0.0309524498    0.0311294827    0.0413938621
 C    0.8630387092   -0.4943739548    1.2333667792
 C   -1.4337954761   -0.4931387322    0.0799886490
 C   -2.2526815351   -0.0554962182    1.3132481210
 C   -3.6094740250   -0.5872842054    1.2710719991
 C   -4.7216424797   -1.0383312030    1.2114673741
 C    0.6321021554   -0.4926671071   -1.1986275654
 N    1.1022267302   -0.9042550466   -2.1711840787
 H    1.1194813059    1.9154142219   -0.1494347296
 H   -0.5073664787    1.9611500530   -0.8464327696
 H   -0.2884536273    2.0063814593    0.9149153840
 H    0.4909644491   -0.0769801294    2.1728854781
 H    0.8180389722   -1.5851318534    1.2948975749
 H    1.9111968023   -0.2024444357    1.1285568456
 H   -1.9513947666   -0.1562649692   -0.8235445978
 H   -1.4167410392   -1.5866689300    0.0391337342
 H   -1.7636716958   -0.3933649956    2.2345903655
 H   -2.2980612247    1.0384297986    1.3717451930
 H   -5.7070058380   -1.4316431375    1.1697884274