17

 C   -0.4945274868    1.2937965656    0.1833382363
 C    0.0068018085   -0.1185911531   -0.1490331753
 C    0.7851050193   -0.1224371820   -1.3970079260
 N    1.3848140180   -0.1331055915   -2.3842111768
 N    0.8816478373   -0.5799761203    0.9412676986
 C    0.2682745398   -1.2346479291    2.0700421023
 C    1.1337634140   -2.0252408306    1.1251601224
 C    0.4714002742   -3.0627963469    0.2801901945
 O   -0.6750568929   -3.0126050207   -0.1027769014
 H    0.3474218215    1.9711343459    0.3410827607
 H   -1.1149744219    1.6767258689   -0.6301565272
 H   -1.0973204483    1.2612103435    1.0947915160
 H   -0.8481924913   -0.7895597010   -0.3045358443
 H    0.6606994772   -0.9699551197    3.0477003393
 H   -0.7964857835   -1.4578028563    2.0257125957
 H    2.1604339312   -2.2495319847    1.4008914594
 H    1.1240575735   -3.9210898280    0.0163404160