21

 O    0.0066842802    1.3994941785   -0.1724740676
 C   -0.0246691114    0.0580779079    0.2970946150
 C   -1.3812559032   -0.6238948820    0.0597134094
 C   -2.0395146628   -0.2928427559   -1.2900824674
 O   -1.0052776531   -0.4050935368   -2.2941363215
 C   -3.1352484658   -1.3685573563   -1.4620088630
 C   -2.7389302013   -2.5434647422   -0.5223967394
 C   -1.3531218401   -2.1720640359    0.0518016105
 O   -0.2883681271   -2.6913190469   -0.7342499571
 H    0.0165842129    1.3370142566   -1.1342906865
 H    0.7671332749   -0.5440658073   -0.1623600551
 H    0.1831413752    0.1030906228    1.3709278911
 H   -2.0926423466   -0.3032380680    0.8318928633
 H   -2.4432378735    0.7248621040   -1.3124668211
 H   -1.4134043840   -0.2994306385   -3.1596569695
 H   -4.1109106298   -0.9554543610   -1.1895755237
 H   -3.2081015741   -1.6736557649   -2.5112908190
 H   -3.4677892049   -2.6423597228    0.2882879334
 H   -2.6849540996   -3.5072173959   -1.0331549440
 H   -1.2052045391   -2.5887384163    1.0525059695
 H   -0.2892710767   -2.1982569290   -1.5664037671