18

 O    0.4265104114    0.0999908395   -0.2741328581
 C    0.1260125506    1.2381589419   -0.0484151225
 C   -1.1588509381    1.9992178374   -0.0123862496
 C   -1.1723939162    2.8865189578    1.2311786919
 C   -0.3422506006    3.3208975699    0.0813111722
 C    0.9818505636    2.5403653437    0.0798430440
 N    1.8316616662    2.6631045956    1.2423873333
 C    3.1340271666    2.0061421875    1.1409272908
 C    3.0314039935    3.4892963298    1.0980776958
 H   -2.0686535244    1.7716650014   -0.5532588083
 H   -2.1109547040    3.4108197908    1.3767424486
 H   -0.6898566631    2.5530449564    2.1432002497
 H   -0.5282179153    4.2264216152   -0.4804501602
 H    1.5277210098    2.6718017079   -0.8720635235
 H    3.4737538357    1.5014346721    2.0401615121
 H    3.3695035415    1.4893406502    0.2132134036
 H    3.1992148494    3.9765802107    0.1388458285
 H    3.2953490234    4.0871732523    1.9651886816