13

 N   -0.0260413280    1.3338156515    0.0101210356
 C    0.0146824582    0.0609129758    0.0030590508
 N    1.2448388915   -0.6585757615   -0.0074114765
 C    1.1898749931   -1.9334809436   -0.0138816057
 N    0.0158646781   -2.6476526710   -0.0113958844
 C   -1.1729146696   -1.9273646393   -0.0013588495
 N   -1.2087063699   -0.6461627647    0.0056285353
 C   -2.3682333656   -2.7140067490    0.0006624701
 C   -3.3460209670   -3.4130419142    0.0020258344
 H    0.9341511987    1.6818037915    0.0069035445
 H    2.1004399016   -2.5306626585   -0.0219380354
 H    0.0047162598   -3.6544421688   -0.0166952646
 H   -4.2280310608   -4.0065879781    0.0034505956