17

 O   -0.8026589341    1.1166873235   -0.1123325283
 C    0.0948223470    0.0219376975   -0.1990522404
 C    1.2268589709    0.2707029990   -1.2172086013
 N    0.7832368323    0.5571915735   -2.5736701191
 C    0.2746224835   -0.6039950438   -3.2958238590
 C   -0.1091570580   -0.2368224102   -4.6622587014
 N   -0.4337208838    0.0518658351   -5.7322278204
 C    0.6418702190   -0.3657794516    1.1718111058
 O    1.5844713902   -1.0946011013    1.3388620072
 H   -0.3116302790    1.8917540223    0.1854422517
 H   -0.5219442460   -0.8246433573   -0.5317750389
 H    1.8221602036    1.1253157893   -0.8689248580
 H    1.8966696783   -0.5945889310   -1.2198388694
 H    0.0720819085    1.2817922938   -2.5490156068
 H    1.0707951586   -1.3565493670   -3.3523303231
 H   -0.5954479331   -1.1017767446   -2.8318401344
 H    0.0835362321    0.0920456127    2.0210633959