20

 C    0.3216474068    1.6607373386   -0.1360656850
 C    0.0020396864    0.1757238859    0.0751166012
 C    0.5802255433   -0.7012310789   -1.0461392254
 O    1.9538959310   -0.8767101354   -0.7132503015
 C    2.0819777163   -0.8978580880    0.7077444381
 C    0.7342533439   -0.4381537635    1.2698158358
 C    0.5845689957    0.0494192695    2.6812304288
 C    0.0015032538   -1.2857723579    2.2791422028
 H    1.3918847340    1.8069133436   -0.3125448537
 H   -0.2179143205    2.0554531397   -1.0033754495
 H    0.0382558065    2.2574089183    0.7363114617
 H   -1.0805955461    0.0387906586    0.1654438619
 H    0.0591654444   -1.6713426848   -1.0888800359
 H    0.5351008843   -0.2395967289   -2.0373314913
 H    2.3421513097   -1.9085501161    1.0551194018
 H    2.9045750490   -0.2249380241    0.9821565130
 H    1.4636636730    0.0531757813    3.3185942580
 H   -0.1002808926    0.8693015627    2.8732316718
 H   -1.0778862475   -1.3668014141    2.1980405633
 H    0.4902209987   -2.1853773066    2.6407126042