23

 C   -0.0161426979    1.5082242411    0.0524133360
 C   -0.0208865526   -0.0033058445    0.0215929579
 C    0.2752392236   -0.8128994382   -1.2801121820
 C   -0.4299255524   -1.9596995336   -0.5039246065
 C    0.5776578403   -2.2240442275    0.6331385777
 C    0.8889114849   -0.7457337420    1.0309374028
 C   -1.3478903314   -0.8374245214    0.0833632493
 C   -2.1368662162   -1.0288901965    1.3683954788
 O   -3.2711826680   -1.8689076784    1.1782160392
 H    0.9893346252    1.9019804813   -0.1376474060
 H   -0.6869673535    1.9250954038   -0.7061431978
 H   -0.3369418630    1.8898164029    1.0288574811
 H   -0.3042369991   -0.4571846309   -2.1357062544
 H    1.3227099830   -0.9566006772   -1.5650469500
 H   -0.8418626720   -2.8273352707   -1.0223623441
 H    0.1550696388   -2.8070900023    1.4568255910
 H    1.4620060751   -2.7587428406    0.2748049931
 H    1.9415651232   -0.4832447114    0.8847709374
 H    0.6370938391   -0.5187739386    2.0713041678
 H   -2.0401878221   -0.4854236662   -0.6894738003
 H   -1.5030847065   -1.4083824944    2.1827171642
 H   -2.5402664041   -0.0658694103    1.7020268702
 H   -2.9495022847   -2.7195970742    0.8630765047