22

 C    0.0750528924    1.5239116083   -0.0113875939
 C   -0.0031328137   -0.0015552858    0.0418817223
 O    0.7013881653   -0.5063209368    1.1793186707
 C   -1.4385985528   -0.5406235999    0.0133698392
 C   -2.2559541195   -0.1420115248   -1.2455890797
 C   -3.2862136408   -1.2777916307   -1.4599608338
 C   -2.6099892263   -2.5024312742   -0.8713135024
 N   -1.2027918488   -2.6448514004   -1.3103901265
 C   -1.5098323529   -2.0608907305    0.0169309224
 H    1.1170519515    1.8488717791    0.0550052398
 H   -0.3523602664    1.9186066164   -0.9378898838
 H   -0.4763982169    1.9712195179    0.8264621659
 H    0.5280645846   -0.4263807043   -0.8178186891
 H    0.3258532014   -0.0859871180    1.9611790282
 H   -1.9570933973   -0.1800535240    0.9163659041
 H   -2.7313678432    0.8363200787   -1.1426746948
 H   -1.5849070780   -0.0937493412   -2.1074121394
 H   -4.2110975284   -1.0802897497   -0.9041205978
 H   -3.5543960085   -1.3999552876   -2.5142182119
 H   -3.1867091697   -3.3992262206   -0.6670456917
 H   -0.9098704674   -3.6101652918   -1.1842574027
 H   -1.2218717046   -2.6094653502    0.9060504647