16

 O    0.3449837521    1.1741772128   -0.5603690940
 C    0.0554954116   -0.0939407795   -0.0298355389
 C    0.1619106686   -0.3338140564    1.5126061977
 C   -1.3005282381   -0.8242608336    1.5265483299
 O   -2.2157598972    0.2665082198    1.7795802254
 C   -2.4709941685    0.4627917993    0.3678100479
 C   -1.4240267553   -0.6001861397   -0.0090344807
 O   -1.7823944511   -1.6144768842   -0.8942833313
 H   -0.0250194965    1.8406550768    0.0282031782
 H    0.6684450740   -0.8045365994   -0.5930790273
 H    0.9098908775   -1.0803961466    1.7899089103
 H    0.3150228348    0.5667852014    2.1130281962
 H   -1.5686079445   -1.7426416925    2.0516437541
 H   -3.4887063360    0.1613073537    0.0915533510
 H   -2.2972115101    1.4974086980    0.0449379504
 H   -1.5143270913   -1.3512904198   -1.7820104189