20

 C   -0.0943515775    1.5272627547    0.0304640663
 C   -0.0441016193    0.0285762659   -0.0036121397
 C    0.0964421203   -0.7754827348   -1.1147468251
 C    0.3068074139   -0.7079082552   -2.5985457012
 C    0.0219643982   -2.1735566935   -3.0362400056
 C    0.3166995612   -3.0356085931   -1.7842326087
 N    0.0879456937   -2.0877024863   -0.7089030462
 C   -0.0416357044   -2.1579364255    0.6506306337
 C   -0.1335983562   -0.8613210347    1.1136612093
 H    0.7661944905    1.9559856092    0.5590052983
 H   -0.0963525879    1.9467105166   -0.9803718466
 H   -0.9938846879    1.8935135442    0.5393240691
 H   -0.3534626119    0.0030398513   -3.1041130397
 H    1.3363931201   -0.4183869189   -2.8497383569
 H   -1.0341731555   -2.2757582482   -3.3021109828
 H    0.6144756661   -2.4852463249   -3.8991562314
 H   -0.3431280859   -3.9045351188   -1.7018516053
 H    1.3539044664   -3.3971466292   -1.7729175950
 H   -0.0752689244   -3.1026385854    1.1694317991
 H   -0.2698128596   -0.5723763034    2.1461434585