22

 C    0.0464024306    1.5559078210   -0.0391619482
 C    0.0299308217    0.0197453995   -0.0034514853
 C    0.5876705210   -0.5864057901   -1.2987609303
 C    0.7492589489   -0.4929646440    1.2235237304
 C    2.2863613966   -0.4112413832    1.4122949956
 C    2.1043490929   -1.7012503997    2.1874207884
 C    0.8132963788   -1.6291670345    2.9359654686
 C    0.1645435980   -0.2921163936    2.6434722792
 N    0.8172836880   -2.0439000669    1.4910376538
 H    1.0709306796    1.9362487546   -0.1232524145
 H   -0.5161275637    1.9285325375   -0.9008591209
 H   -0.3987720810    1.9870432453    0.8633657472
 H   -1.0146142264   -0.3092281963    0.0926097763
 H    1.6014080720   -0.2266343055   -1.5070992507
 H    0.6203323809   -1.6773732302   -1.2338538431
 H   -0.0397719789   -0.3095677610   -2.1519337611
 H    2.8204468455   -0.5909812667    0.4764071303
 H    2.7039949845    0.4676133360    1.9151948733
 H    2.8451557871   -2.4657822145    2.3939209693
 H    0.5629325145   -2.3383421810    3.7171588643
 H    0.4651326522    0.5920469701    3.2157591400
 H   -0.9260700128   -0.3760906769    2.6350660577