17

 O    0.9081571905   -0.2752873441   -0.2762221419
 C    0.4341716915    0.8161613383   -0.4415293381
 C    1.0863194754    2.1051353589    0.0438040135
 C    1.0338937578    3.1811715848   -1.0417205501
 O   -0.0180691787    3.4786658414   -1.5602828458
 C    2.3532379856    3.8174418182   -1.4334687148
 C    2.2029907132    4.8822289686   -2.5311256758
 C    3.4788156948    5.4867375216   -2.8909535576
 C    4.5440764521    5.9690401512   -3.1684303285
 H   -0.5287918895    0.9731684501   -0.9694180833
 H    0.4773488149    2.4736247290    0.8806057913
 H    2.0945314884    1.8948172152    0.4053956629
 H    2.8135396802    4.2454713210   -0.5331959516
 H    3.0385377345    3.0202179113   -1.7513140418
 H    1.7362945144    4.4276260609   -3.4119780272
 H    1.5005740978    5.6519365200   -2.1923815066
 H    5.4767129770    6.4055923537   -3.4271930145