19

 O   -0.0758090868    1.4623253658   -0.1243053580
 C    0.0106038237    0.0464655853   -0.0979561706
 C   -1.4012954981   -0.5119841533    0.0544834638
 C   -2.1872862491   -0.3138927402   -1.2414570257
 C   -2.8421385688   -1.4479853107   -1.5585193314
 C   -2.1097210427   -2.4218120484   -2.4941650280
 C   -1.6129166493   -3.0106785857   -1.1204648288
 C   -1.4814481546   -2.0510685342    0.1400650359
 C   -2.8038413562   -2.4574821087   -0.3939563946
 H    0.8032223740    1.8168565571   -0.2861606842
 H    0.4647181512   -0.3476832566   -1.0211781911
 H    0.6252102465   -0.3035544594    0.7475481830
 H   -1.8323505131   -0.0688994365    0.9641208457
 H   -1.7976329594    0.3699500376   -1.9903066463
 H   -2.7208002676   -3.1797228835   -2.9988475590
 H   -1.3915818393   -1.9881042659   -3.1962659755
 H   -1.2115817571   -4.0165125372   -1.0163964361
 H   -1.0610129111   -2.5642056537    1.0045089470
 H   -3.6297391622   -2.9589198218    0.0929634141