15

 N    0.0181587522    1.4037892084    0.1351596556
 C   -0.0222178472    0.0157969326    0.0590872012
 C   -1.1683697319   -0.7393637408    0.0352599501
 N   -1.1008166651   -2.0902421340   -0.0040516350
 N    0.0272813292   -2.8174073521   -0.0009890500
 C    1.1482916205   -2.1332063924    0.0433710215
 N    2.3456681446   -2.7940380059    0.0966999595
 C    1.2442051719   -0.6697724623    0.0513037265
 O    2.3394507904   -0.0857512625    0.0322023499
 H    0.9586340702    1.7287827731   -0.0619178312
 H   -0.6822688480    1.8965074892   -0.3996342170
 H   -2.1664658616   -0.3167499947    0.0392135069
 H   -1.9407332664   -2.6430760519   -0.0335972339
 H    2.3680852308   -3.7417979636   -0.2422090471
 H    3.1326952003   -2.1998973830   -0.1229622569