18

 O    0.2317066644    0.0566126274   -0.0808389000
 C    0.0731290186    1.2393237309    0.0145974132
 C   -1.1349666356    2.1420954263    0.3049137866
 C   -0.1179298387    3.2607734983    0.6882848103
 C    1.0446369473    2.4410788435    0.0528857833
 N    2.2485668985    2.2698208283    0.8377589243
 C    3.2320265040    1.3938255767    0.1832911664
 C    4.4782991473    1.3416614656    0.9378426345
 C    5.5116378916    1.3232711233    1.5503629149
 H   -1.7071175835    2.3612154321   -0.6024015178
 H   -1.8246322250    1.7853659892    1.0728337442
 H   -0.2971995870    4.2504210165    0.2675731001
 H    0.0144678028    3.3385975982    1.7692142050
 H    1.2276588026    2.7732427776   -0.9896342613
 H    2.6757547400    3.1748420551    1.0117751708
 H    2.7916954342    0.3934081025    0.1107234219
 H    3.4544248826    1.7095296208   -0.8542651997
 H    6.4229390859    1.2914704577    2.0943677235