18

 C    0.0691916118    1.4777808683    0.0368124614
 C   -0.0014858163   -0.0133498149   -0.0236000678
 C   -0.1068521807   -0.8001449432   -1.0984176894
 C   -0.0579201933   -2.2514056899   -0.7675744233
 C    1.2408671907   -2.7241406100   -0.1431845808
 C    0.0946928615   -2.3130138585    0.7409950026
 C    0.0497454682   -0.8666575814    1.2546864932
 C    1.1792448916   -0.5194024739    2.1232119464
 N    2.0724994873   -0.2310759368    2.7982279081
 H    1.0073938654    1.8126788178    0.4949770668
 H   -0.0003797824    1.9167793349   -0.9615029207
 H   -0.7424494319    1.8901818185    0.6500556284
 H   -0.1841086951   -0.4330053063   -2.1160303741
 H   -0.6732189593   -2.9587752100   -1.3119173912
 H    1.4617718816   -3.7855522378   -0.1791829651
 H    2.1068168760   -2.0753067130   -0.2197668676
 H   -0.4002096750   -3.0721359673    1.3328995852
 H   -0.8644177503   -0.7021469066    1.8436028179