16

 C   -0.1129258053    1.4902331515   -0.0502906351
 N    1.2528457977    2.0157839532    0.1123849962
 C    2.0451159484    1.0557414440   -0.1344134465
 O    3.2764371545    0.9505288217    0.4268373106
 C    3.1289739215   -0.1182164173    1.4290717297
 O    1.7875721308   -0.3405845428    1.7905868642
 C    1.0404192104   -0.8390823964    0.6878334647
 C    0.0344747427   -0.0305204183   -0.1605343260
 C    1.4476466365   -0.2500014096   -0.6183676925
 H   -0.6814153829    1.8028880011    0.8322083332
 H   -0.6261846123    1.8998903141   -0.9305735868
 H    3.5816592346   -1.0276166664    1.0123833288
 H    3.6593175874    0.2210671813    2.3189673593
 H    0.8220099131   -1.9005296020    0.7742880490
 H   -0.7882324445   -0.6182974809   -0.5524942431
 H    1.8292314373   -0.7903623534   -1.4756813657