20

 C    0.2115736099    1.5456978284    0.2588983604
 C    0.0185656591    0.0735095839   -0.0239555133
 C    0.4390999453   -0.5666334458   -1.3353387308
 C    1.1166246896    0.2020846219   -2.4558049847
 C    2.5368275301   -0.2894734614   -2.7149946458
 O    3.5005091789    0.2343827401   -1.7918837502
 C    3.4003770731    0.0192895731   -0.4575819317
 N    2.4988358800   -0.4401791647    0.2961698140
 C    1.1918054842   -0.8887682800   -0.0550471545
 H    1.1961486091    1.9032512701   -0.0521969082
 H   -0.5464538612    2.1505943532   -0.2516349226
 H    0.1266913225    1.7401767206    1.3328889244
 H   -0.8893103890   -0.3355977351    0.4115391552
 H   -0.2060574373   -1.3679395586   -1.6868953696
 H    0.5395416482    0.0820965567   -3.3795290395
 H    1.1557381562    1.2785956512   -2.2588017689
 H    2.5752159725   -1.3861106705   -2.6924203984
 H    2.8997264389    0.0463114697   -3.6904934393
 H    4.3349877619    0.3523262984   -0.0046393585
 H    0.9902167681   -1.8617690714    0.3860522218