19

 C   -0.1791674024    1.3401168296   -0.0679650470
 C   -0.2617389387   -0.0287154731   -0.7500587001
 C    1.1299226117   -0.6362316750   -0.9650972723
 N    1.2465630913   -1.9389829690   -1.6021344260
 C    0.2199636333   -2.5547703267   -1.9704004171
 O    0.3892971889   -3.7828530148   -2.5691731191
 C   -0.7515877176   -4.4498540093   -2.9569474905
 N   -0.3905933928   -5.6134137858   -3.5516609947
 O   -1.8782753714   -4.0481108049   -2.8032958798
 H    0.3036571709    1.2662991380    0.9127198385
 H    0.4008578913    2.0487585384   -0.6693775326
 H   -1.1741780127    1.7688307931    0.0829297685
 H   -0.8727750380   -0.7058484705   -0.1399047630
 H   -0.7760955457    0.0727692457   -1.7140521961
 H    1.7408898027    0.0590208423   -1.5574936667
 H    1.6452354442   -0.7122925980    0.0025154982
 H   -0.8267872123   -2.2665450247   -1.8917855629
 H    0.5664523794   -5.9183485362   -3.5270921826
 H   -1.1178416121   -6.2655077191   -3.7847135345