17

 C   -0.0924734411    1.4153653554    0.1585530571
 N   -0.0704487001    0.0009599472   -0.1765904258
 C   -1.1955802778   -0.7627548813   -0.0790748843
 N   -1.2544440456   -2.0652196880   -0.0149220298
 C   -2.6154542830   -2.3220929215   -0.0035637011
 O   -3.1212761344   -3.5644504392    0.0558875628
 C   -2.1764035612   -4.6297103785    0.0848024842
 C   -3.3219331379   -1.1670641794   -0.0538372904
 O   -2.3799253860   -0.1343363484   -0.0994342816
 H    0.8733268769    1.8506090692   -0.1057285927
 H   -0.8659584899    1.9174481966   -0.4262212673
 H   -0.2885519194    1.6077418858    1.2229052477
 H    0.7646088367   -0.5119333236    0.0593032001
 H   -2.7672006038   -5.5461179272    0.1285564139
 H   -1.5501833515   -4.6312520228   -0.8130074113
 H   -1.5262709982   -4.5619712474    0.9627879770
 H   -4.3573081436   -0.8874233368   -0.0553514983