19

 C   -0.1755782724    1.4785038550   -0.1848489458
 O    1.0733059431    2.0607814973    0.2084851399
 C    1.8775886683    1.0664735710    0.8501829408
 C    1.5240891156    0.9268594580    2.3395833450
 C    0.1441925994    0.2383431894    2.5042221026
 C   -0.0346214386   -0.7313162758    1.3345257852
 O    1.2670975151   -1.3408400868    1.0647464646
 C    1.5162445038   -0.2666522416    0.1312328011
 C    0.0116499651   -0.0249636339   -0.0604988445
 H   -0.9933466417    1.8645735723    0.4396149669
 H   -0.3801391659    1.7746230911   -1.2205233159
 H    2.9171977308    1.3754562197    0.7159945789
 H    2.2901785349    0.3080591811    2.8152117335
 H    1.5454401541    1.9106215904    2.8153312411
 H    0.1016746156   -0.3072765066    3.4518746206
 H   -0.6748854968    0.9663140347    2.5206334395
 H   -0.8096173171   -1.4849383229    1.4945273950
 H    2.1794638064   -0.5545456734   -0.6862433957
 H   -0.4695021898   -0.6138684188   -0.8408018327