15

 O    0.0275571591    1.4536751876    0.0083630574
 C   -0.0188043622    0.0572669205   -0.0660327452
 C   -1.4060632600   -0.5463275257   -0.0172934534
 C   -2.0416404721   -0.5340606723   -1.3924667244
 O   -1.6230078731    0.4028792150   -2.3689502870
 C   -0.2660594610    0.2875216985   -2.5231372361
 O    0.3563439801    0.9197229785   -3.3230975960
 C    0.2234821774   -0.6751050287   -1.4543208814
 C   -0.9994246795   -1.5543447139   -1.1127104415
 H    0.9446125973    1.7433248087   -0.0484409874
 H    0.6246966998   -0.4190879651    0.6845386976
 H   -2.0013990019   -0.6977147943    0.8748273559
 H   -3.0895443660   -0.7839595345   -1.4832890858
 H    1.2051461709   -1.0972793307   -1.6461810476
 H   -1.0902368787   -2.6297520636   -1.1662162952