15

 O    0.1513213107    1.4057817503   -0.2047608295
 C    0.0642363694    0.0104153500   -0.0132569104
 C    0.6569470861   -0.5383126594    1.2617273174
 C   -0.2510636242   -1.2832457947    1.8947027247
 N   -1.4815445923   -1.3084501747    1.1986906368
 C   -2.6353310451   -1.9551914454    1.6136603840
 N   -2.6548741338   -2.6376050264    2.6849331270
 C   -1.3993050507   -0.5115613120    0.0452893791
 O   -2.3067977784   -0.2841129170   -0.7118052831
 H   -0.2266137888    1.8376240383    0.5698177846
 H    0.5371199326   -0.4306654166   -0.8999520593
 H    1.6735844126   -0.3650396266    1.5808202707
 H   -0.1894739179   -1.8469634367    2.8130502960
 H   -3.4554886460   -1.7895965777    0.9111141980
 H   -3.5776220943   -3.0425236513    2.8294751139