22

 C    0.0509888247    1.4041339663   -0.1519406535
 O    0.0667632141    0.0761788578    0.3263644493
 C   -1.1803850370   -0.5663001416    0.2168571184
 C   -1.6512406567   -1.1734606494   -1.1332135235
 N   -1.8517613656   -2.5245326670   -0.5017200657
 C   -0.5243689327   -2.9672541681   -0.0143973440
 C    0.7824981207   -2.7813416797   -0.7550571475
 C   -1.2525443604   -1.9695686304    0.8054327846
 C   -1.8204899954   -2.2671116294    2.1630230697
 H    1.0495896114    1.8185825907    0.0045426530
 H   -0.1888763870    1.4544875300   -1.2246431956
 H   -0.6806135669    2.0207534274    0.3934000050
 H   -1.9644401424    0.0754126528    0.6467248733
 H   -2.6073188029   -0.7851895800   -1.4897221698
 H   -0.9293184830   -1.1580079424   -1.9546433386
 H   -0.6305423272   -3.9742488902    0.3885055230
 H    1.0064810588   -1.7375193761   -0.9690100841
 H    1.6007005525   -3.1706801997   -0.1402533462
 H    0.7744093544   -3.3498938362   -1.6922584732
 H   -1.1075351249   -1.9868534212    2.9474586183
 H   -2.7488080286   -1.7121590799    2.3379295278
 H   -2.0390266159   -3.3333624639    2.2698429796