21

 C    0.2090386120    1.4899173813   -0.4637781462
 C    0.3986971163    0.0106826276   -0.1773489761
 O    0.5690047093   -0.6635426066   -1.4159487526
 C    0.7110733373   -2.0712838818   -1.3045917450
 C    0.6300623583   -2.6775949817   -2.7200906834
 O    1.7751490997   -2.5131832238   -3.5116589291
 C    1.9329460202   -1.2286445054   -4.0873659910
 C    1.9426368756   -2.4616828304   -0.6075378626
 C    2.9445263803   -2.7798355808   -0.0251179586
 H    1.0871751509    1.8986231458   -0.9717770990
 H   -0.6636242320    1.6517096619   -1.1029857438
 H    0.0626088915    2.0402740011    0.4703925974
 H    1.2734538152   -0.1547036344    0.4672380574
 H   -0.4791441507   -0.4004241464    0.3488280010
 H   -0.1490606611   -2.4758228974   -0.7399700832
 H    0.4863395347   -3.7576916781   -2.6115097372
 H   -0.2614756342   -2.2500212388   -3.2057035245
 H    1.0401216417   -0.9376822412   -4.6620842828
 H    2.1236514054   -0.4587154920   -3.3329162816
 H    2.7853155280   -1.2951378847   -4.7682011354
 H    3.8342085116   -3.0654755344    0.4799325063