21

 C   -0.1880510982    1.2710440820    0.0908408655
 C    1.1844059597    0.7262574448   -0.1816481354
 C    1.8264013667    0.2658174041    1.1320881498
 C    0.6376602459   -0.7248317451    1.3439636042
 C    0.9732138946   -2.2186544344    1.3654059236
 C   -0.2662321494   -2.8120943326    2.0485900191
 C   -0.5931088110   -1.7242078802    3.0802324583
 O   -0.1164147606   -0.4948017680    2.5320417442
 C    0.0004251645   -0.2189904305    0.0359637013
 H   -0.4099005494    1.7498717755    1.0407448826
 H   -0.7025260034    1.7011563201   -0.7625207076
 H    1.7174859575    0.9337440920   -1.1006782071
 H    2.7795876934   -0.2550295788    1.0067098696
 H    1.9344818370    1.0301645260    1.9073842988
 H    1.1657822442   -2.6225420909    0.3687441278
 H    1.8657576389   -2.3880150964    1.9794543791
 H   -1.0852963485   -2.9175427235    1.3291789495
 H   -0.0901676999   -3.7895131184    2.5039826642
 H   -1.6661967276   -1.6361428145    3.2847095961
 H   -0.0827218990   -1.9160787291    4.0355378020
 H   -0.5259482054   -0.8391893620   -0.6817586556