18

 C    0.0139371340    1.4879899315    0.2818942334
 C    0.0009849567    0.0411433645    0.1216442738
 C   -0.0009768186   -1.1536977995   -0.0247176701
 C   -0.0185687324   -2.6089823391   -0.1746518918
 N   -1.3462583853   -3.1778818084   -0.0719829464
 C   -2.3933677814   -3.0716234851    0.9479610290
 C   -3.3182136300   -3.8616009297   -0.0226547578
 C   -2.1170972022   -3.8424674439   -0.9976934135
 O   -1.8815336959   -4.2240220935   -2.1138913118
 H    0.7997283025    1.9449243544   -0.3294306700
 H   -0.9409167584    1.9286033023   -0.0247614704
 H    0.1940469490    1.7745131040    1.3237376648
 H    0.3557647819   -2.9040341069   -1.1620636125
 H    0.6485230578   -3.0664684484    0.5699494543
 H   -2.1509442635   -3.5763566494    1.8893340932
 H   -2.7019226096   -2.0418550843    1.1537469600
 H   -3.6138885213   -4.8577416388    0.3105678433
 H   -4.1937637733   -3.3196203697   -0.3839247373