15

 C   -0.2039638227    1.4328468327    0.0615595074
 C    0.0772216803   -0.0638683991    0.0482000283
 C    0.9345255208   -0.5125422906   -1.1459673042
 C    2.1822822325   -0.4117690387   -0.3824960833
 C    1.2990855279   -0.5062904395    0.9224827024
 C    1.3492664283   -1.9954213308    0.6193380570
 O    1.3270778685   -3.0124194282    1.2351765352
 N    1.6671150511   -1.7880581489   -0.7962344187
 H    0.7145472907    2.0113919957   -0.0835886398
 H   -0.9031278714    1.7034345665   -0.7371452905
 H   -0.6509967898    1.7367835134    1.0130900203
 H   -0.8445703645   -0.6309859733    0.2248855964
 H    0.7532065314   -0.3627682169   -2.2031148320
 H    3.1984340810   -0.1103163224   -0.5861301909
 H    1.4815056959   -0.0954572099    1.9116856025