17

 C   -0.0545893394   -1.2426606595    0.0957943426
 C   -0.0349334060   -0.0416921670    0.0754368267
 C   -0.0043051873    1.4160630779    0.0371353698
 C    1.3962131168    1.9909534704   -0.0356534841
 C    1.7033597864    3.5238080175   -0.0010225224
 C    3.0218428872    2.8904436968    0.5315775272
 O    2.1956811999    1.8760182499    1.1922463107
 C    3.5221276373    2.1258558775   -0.7109254461
 C    2.4074635782    1.5077662467   -1.1008295213
 H   -0.0703123583   -2.3038591626    0.1250266887
 H   -0.5675802104    1.7764066995   -0.8339709241
 H   -0.5016296802    1.8266942946    0.9235497714
 H    1.7250677493    4.0781594666   -0.9414754384
 H    1.1401456119    4.0460284576    0.7770292341
 H    3.7240529963    3.4019906411    1.1874427917
 H    4.5192591126    2.1247580227   -1.1253401639
 H    2.2074341456    0.8347269103   -1.9209401326