19

 C   -0.0454278572    1.5718931097    0.0459109772
 C   -0.0139137267    0.0343521877   -0.0054152767
 C   -1.4389953789   -0.5382959708   -0.0281822655
 O   -2.0915311263   -0.0663766026   -1.1966171728
 C    0.7940145894   -0.4833304151   -1.1906997721
 C    1.7973881544   -1.2859898739   -0.8285010736
 C    1.8565755975   -1.3919118983    0.6597164599
 O    2.1003197326   -0.1184971922    1.3107383546
 C    0.7535163831   -0.5692156811    1.1808588798
 H    0.9707676397    1.9634393169    0.1253982153
 H   -0.5191670681    1.9769741534   -0.8510876413
 H   -0.6181511418    1.9169510043    0.9141256363
 H   -1.3911464991   -1.6383321461   -0.0157879234
 H   -1.9705773245   -0.2146997655    0.8829884762
 H   -2.9697362332   -0.4556869839   -1.2308292357
 H    0.5556370816   -0.1807237184   -2.2034527961
 H    2.5020659431   -1.7704688050   -1.4931718380
 H    2.2715353515   -2.2532970388    1.1740564390
 H    0.2367445230   -0.7747487103    2.1166667170