21

 O    0.0297029803    1.4930264731   -0.1583321054
 C   -0.0104464236    0.0861527075   -0.0871363986
 C    0.2218976624   -0.5621177426    1.3150049729
 C   -1.2932522143   -0.2666485325    1.5798446437
 C   -1.4170302922   -0.5793562113    0.0501315502
 C   -1.0951859959   -2.0839509366    0.0581483053
 C   -0.2100448035   -2.6958404818   -1.0678097101
 C    1.0253906676   -2.6828444012   -0.1143459822
 C    0.1524464011   -2.0708263868    1.0210265168
 H   -0.5155972344    1.8626450334    0.5427226482
 H    0.6268787401   -0.2433016677   -0.9084323127
 H    1.0117931645   -0.1980237455    1.9739143956
 H   -1.8240030589   -0.9222997624    2.2764791744
 H   -1.5093112701    0.7716624843    1.8456667853
 H   -2.2592997176   -0.2324397051   -0.5506137118
 H   -1.9578203499   -2.6869625003    0.3503084396
 H   -0.5219580954   -3.6996124775   -1.3657684575
 H   -0.1189025799   -2.0920471003   -1.9749342622
 H    1.4058515843   -3.6793349671    0.1220519989
 H    1.8717927024   -2.0711127630   -0.4385926975
 H    0.0963384729   -2.6653596665    1.9356306972