17

 C    0.0329154001    1.4852314657   -0.1362078181
 C    0.0048956832    0.0321550522   -0.0735529101
 C   -0.0305484364   -1.1700785716   -0.0098319274
 C   -0.0111696850   -2.6146322733    0.0242369294
 C    1.0959586007   -3.2723033749   -0.7752974484
 O   -0.2929498873   -3.2206829473    1.2921112257
 C   -1.2724327452   -3.3812343045    0.2641994255
 C   -2.5684333155   -2.6687807587    0.4825787093
 O   -3.6062839682   -3.0265455464   -0.0135426430
 H    0.8554139456    1.8375217814   -0.7676960362
 H   -0.9006992563    1.8827605515   -0.5484832449
 H    0.1689800300    1.9175898081    0.8609069993
 H    2.0693013772   -2.9310222823   -0.4111064424
 H    1.0436406111   -4.3587342805   -0.6741396682
 H    1.0141804212   -3.0041744336   -1.8323262116
 H   -1.3584365175   -4.3763114448   -0.1708759306
 H   -2.4908788477   -1.7817259509    1.1443608117