15

 O    0.0155456974    1.4917456655   -0.0121055930
 C   -0.0105870283    0.0957667242    0.0361478217
 C    0.7298787082   -0.4742604746   -1.1713449183
 O    1.2671072108    0.2425763989   -1.9794816432
 C    0.6314285930   -0.4856398935    1.3003739957
 C   -0.1528130442   -1.3745403740    1.9103430452
 C   -1.4796242131   -1.4528174131    1.2176846919
 O   -2.1700716602   -0.1840124345    1.2529468794
 C   -1.4280901296   -0.5173452894    0.0870053926
 H    0.5121656763    1.7179272935   -0.8157441747
 H    0.7545405008   -1.5785033828   -1.2521930445
 H    1.6022453686   -0.1371346206    1.6313072053
 H    0.0793380861   -1.9135754131    2.8205062876
 H   -2.1113587132   -2.3343029514    1.2471218549
 H   -2.0062508926   -0.6272554252   -0.8262032905