18

 C   -0.0026975385    1.4518018312   -0.1628211822
 C    0.0140641424   -0.0265124856    0.0415488833
 O    0.6544400894   -0.8696600849   -1.0470755364
 C    0.2085187983   -1.8190765335   -0.0430878713
 C    0.1047201759   -3.2573698689    0.3854264891
 C   -0.6401017965   -2.8720084263    1.7468812845
 N   -0.7758786330   -1.3566500259    1.7637998469
 C    0.5499839025   -0.9348615420    1.1719678179
 C   -1.0917309389   -1.0723784681    0.3127707524
 H    1.0156225775    1.8422200212   -0.2483954443
 H   -0.5501016133    1.7100843791   -1.0740641956
 H   -0.4925445908    1.9333758312    0.6890299991
 H   -0.5101258903   -3.8814393752   -0.2670144931
 H    1.0646455285   -3.7495324464    0.5571744688
 H   -1.6357276593   -3.3182617219    1.8037128580
 H   -0.0692710074   -3.1870535696    2.6235461548
 H    1.4810886746   -0.8804508692    1.7368376267
 H   -2.0831367210   -1.1790594150   -0.1285078385