16

 N    0.0800546545    1.3117992486   -0.0827644878
 C   -0.0592172257   -0.0367513259   -0.0318951169
 C   -1.1762867993   -0.7835055478    0.1369234655
 C   -0.8568747460   -2.2046077608    0.1492918371
 O   -1.6068823231   -3.1427273850    0.3179294490
 C    0.6550126788   -2.3423915279   -0.1303906703
 C    1.2067470160   -0.8977650421   -0.0744442382
 C    2.1087575904   -0.5190997531   -1.1573932153
 C    2.8441635683   -0.1781242862   -2.0459376063
 H    0.9209175043    1.6700868120   -0.5106739493
 H   -0.7440700348    1.8763416008   -0.2134823529
 H   -2.1847941460   -0.4066583828    0.2461420887
 H    1.1270806531   -3.0076516404    0.5953448920
 H    0.7939276450   -2.7827501764   -1.1214283964
 H    1.7377189900   -0.7410699902    0.8749757493
 H    3.5002752945    0.0971988871   -2.8346507881