20

 C    0.0286154734    1.5150459016    0.1341372584
 N    0.0045210113    0.0708649717    0.1509962953
 C   -1.2654320811   -0.6143502854    0.4384025739
 C   -0.4779335190   -1.7032697392    1.2257077395
 C   -0.1274324579   -2.9417554588    0.3960804607
 O    0.8866017031   -3.7202317189    0.9953142322
 C    0.6654194956   -0.6380107090    1.2594927355
 C   -1.0220076528   -2.0616173464    2.5802011527
 O   -1.0149682744   -3.1748210164    3.0534409201
 H    1.0561402013    1.8659990400   -0.0069078808
 H   -0.5702316606    1.8861361066   -0.7042590101
 H   -0.3648295157    1.9685429922    1.0645633114
 H   -1.9394659332   -0.0362319026    1.0945626623
 H   -1.8291082519   -0.9478000100   -0.4405378127
 H   -1.0435625076   -3.5287440919    0.2241975108
 H    0.2503517470   -2.6188531460   -0.5787569809
 H    0.5078080152   -4.0528088752    1.8191585235
 H    1.6705440039   -1.0186639113    1.0560282059
 H    0.6777860225   -0.0618935181    2.2006907076
 H   -1.4377945990   -1.2070583628    3.1610074647