12

 C   -0.1482003576    1.4998567877    0.0119991473
 C   -0.0056830809   -0.0076466175    0.0018648220
 O   -1.3450572950   -0.5719442232    0.0115325055
 C   -1.4092905632   -1.8997675573    0.0052972458
 O   -0.4886989049   -2.6705417495   -0.0073244671
 C   -2.8134650774   -2.3347078473    0.0162445429
 N   -3.8972009357   -2.7332139928    0.0240500072
 H    0.8448195521    1.9583298727    0.0051138969
 H   -0.6953358086    1.8474380169   -0.8681709026
 H   -0.6782562839    1.8371018268    0.9065247337
 H    0.5129343539   -0.3728668518   -0.8893325230
 H    0.5300781613   -0.3831644648    0.8785113915