14

 N   -0.2439204198    1.6167151221   -0.0046196544
 C    0.0433491395    0.1804319856   -0.0631191327
 C   -1.2060474300   -0.5653817162    0.1715314026
 N   -2.1814509071   -1.1633391668    0.3296159464
 C    0.7099172385   -0.2987465684   -1.3511566850
 C    2.1922986534   -0.2982042885   -1.4316614417
 N    1.4436664367   -1.5655867525   -1.3984436234
 H    0.6107603508    2.1280216647   -0.2065478130
 H   -0.9133495489    1.8648224023   -0.7278961203
 H    0.7161662703   -0.0560259666    0.7738878426
 H    0.1290901036   -0.0911401342   -2.2482011560
 H    2.6883605661   -0.0827963662   -2.3732924994
 H    2.7491990569    0.0049794882   -0.5473254855
 H    1.4924948500   -1.9862345934   -0.4727313203