17

 C   -0.3627647187    1.5986791363   -0.0408655467
 C    0.0305686673    0.1250288267    0.0142982463
 C   -1.1766800219   -0.7857035321   -0.2169625569
 C    1.2517484481   -0.2699908131   -0.8910591205
 C    1.9202676445   -0.8792899334    0.3485868558
 O    2.8732279590   -1.5841100205    0.5149046007
 C    0.8537279468   -0.2947924063    1.2843972174
 H    0.5028248707    2.2492496491    0.1249206677
 H   -0.7922214417    1.8561471983   -1.0156852872
 H   -1.1105542718    1.8363110358    0.7242084698
 H   -1.6278483056   -0.5982100323   -1.1976505525
 H   -0.8940916127   -1.8435558767   -0.1773207613
 H   -1.9465678699   -0.6180706784    0.5443701531
 H    1.0652389549   -0.9569875336   -1.7215205237
 H    1.8137461745    0.5897236736   -1.2728198670
 H    1.2407024732    0.5540159866    1.8592595830
 H    0.3880699117   -0.9991834700    1.9796757396