19

 C   -0.0120647735    1.5525697522    0.0230004844
 C    0.0143819515    0.0134530427    0.0234588076
 C    0.7574318127   -0.5065263156    1.2672633824
 C   -1.4220347710   -0.5323213521    0.0085722746
 O   -2.0981820949   -0.0810108417    1.1733776558
 C    0.7087255899   -0.4960712257   -1.2492008427
 O    2.0433214406   -0.0102895708   -1.2715347607
 H    1.0043473064    1.9516791869    0.0060088485
 H   -0.5393042037    1.9351174043   -0.8591259073
 H   -0.5277823664    1.9255993778    0.9104449693
 H    0.2563342139   -0.1727565241    2.1783981355
 H    0.7828913859   -1.6027436137    1.2786997919
 H    1.7884897279   -0.1466046765    1.2739937307
 H   -1.9377034016   -0.1844817118   -0.9020170537
 H   -1.3959579168   -1.6342507340   -0.0258053152
 H   -2.9946441538   -0.4266477569    1.1530739487
 H    0.6939970746   -1.5986828597   -1.2593012982
 H    0.1517838087   -0.1490824060   -2.1355035415
 H    2.4683240597   -0.3366214653   -2.0692824702