18

 C    0.0292404570    1.5929593442    0.0173385321
 C    0.0203854678    0.0528354769    0.0111105120
 C    0.7253055599   -0.4955244294    1.2863908653
 O    2.0671425051   -0.0867519995    1.3942871004
 C   -1.4289912246   -0.5150996023   -0.0336389706
 C   -2.2036147944   -0.0797264107   -1.1866931644
 C   -2.8328710257    0.2844515837   -2.1429746588
 C    0.7873021703   -0.4434269247   -1.1424556486
 N    1.4472612206   -0.8535985089   -1.9988271072
 H    1.0505303087    1.9597662851    0.1305841304
 H   -0.4004600979    1.9908968689   -0.9035651002
 H   -0.5649743003    1.9545343974    0.8628560685
 H    0.2069703065   -0.0893758761    2.1613769034
 H    0.6272750440   -1.5910783045    1.3107747239
 H    2.5680270615   -0.5107609091    0.6871870951
 H   -1.3854722163   -1.6106725222   -0.0121506783
 H   -1.9321228892   -0.2025707084    0.8904186731
 H   -3.3907344030    0.5963478096   -2.9912183861