18

 O    0.0206493176   -0.0508400391    0.1261636791
 C   -0.0119832395    1.1647519409    0.0409791881
 N   -1.2079909431    1.8509007116   -0.0895033677
 C   -1.3544361853    3.2845765580    0.1695179465
 C   -0.2155058334    3.9926818341   -0.5515698006
 C    0.4727718412    5.2913552407   -0.0160315166
 C    1.8628549811    4.5918634603   -0.2154660474
 C    1.0963543280    3.2913920652   -0.2936797880
 C    1.2109465504    2.0137807975    0.0556610682
 H   -2.0141375995    1.2585304618    0.0461783516
 H   -2.3385922458    3.6039886688   -0.1864202424
 H   -1.3035929324    3.5056721222    1.2481930229
 H   -0.4262043701    4.0727839942   -1.6250514147
 H    0.2947785749    6.2138154442   -0.5711611576
 H    0.2543111329    5.4584027229    1.0417640557
 H    2.3219610390    4.8693761419   -1.1706208518
 H    2.6129038018    4.6910816071    0.5726016632
 H    2.1328864023    1.5303054276    0.3573308915