19

 C   -0.2246292031    1.3423199702    0.0404795216
 O    0.1422020977   -0.0269835521   -0.0590695229
 C    0.7383471681   -0.5122620985    1.0712803422
 C    0.8420416711   -1.9226172666    1.5457120931
 C    2.3475640723   -1.8034384070    1.7057779640
 C    2.2041959336   -0.2278986568    1.6079097774
 C    2.0094822892    0.2973352841    3.0049372248
 C    0.8211441984   -0.1162421740    3.4696119656
 C    0.0855111261   -0.8285323063    2.3950105108
 H    0.6513671166    1.9805121684    0.2184526514
 H   -0.6819659831    1.6188107386   -0.9117501449
 H   -0.9453773389    1.5026659076    0.8530811153
 H    0.2869137880   -2.7966185589    1.2282749635
 H    2.8180460793   -2.1915013613    2.6143391727
 H    2.8544582141   -2.1995599239    0.8223041132
 H    2.9222396346    0.2809694650    0.9664847871
 H    2.7811767238    0.8039990770    3.5714426111
 H    0.4397909047    0.0183893438    4.4743467231
 H   -0.9877016626   -0.9774875096    2.4264338810