18

 O    0.0799060432    1.3904624241   -0.1569073006
 C   -0.0356688445    0.0030779572   -0.0268600566
 C   -0.4631820812   -0.6837611666    1.2564558993
 C   -1.2033677794    0.1165448791    2.3324049669
 N   -2.5852286190    0.3968228090    1.8641896782
 C   -2.7152328892    1.4264306379    0.8218499457
 C   -2.6574138380   -0.0121466034    0.4497346158
 C   -1.3664416516   -0.6997788449    0.0369775619
 O   -1.5109247503   -1.8816720890   -0.6927444728
 H    0.8628541130    1.6662877436    0.3328533485
 H    0.7037563262   -0.5591745132   -0.5997514317
 H    0.0844176579   -1.5724439371    1.5521367898
 H   -1.2704381229   -0.4846711602    3.2438991274
 H   -0.6960448921    1.0524914632    2.5955694193
 H   -3.6757336481    1.9367396404    0.8251000557
 H   -1.8606756705    2.0460733317    0.5832310905
 H   -3.5489298634   -0.5477654314    0.1331270570
 H   -1.6225003803   -1.6470922205   -1.6207329042