15

 N   -0.3996323831    1.6033060396   -0.2177791618
 C    0.0108952945    0.1968933901   -0.0844904632
 C   -1.1158860618   -0.6389379160    0.3369370945
 C   -2.0375769467   -1.3442081723    0.6479585840
 C    0.6574745195   -0.3646345184   -1.3351527333
 N    1.6363547333    0.2196297967   -2.0062671219
 C    1.8601358084   -0.6469750014   -3.0322558027
 N    1.0891827899   -1.7225719702   -3.0411533253
 N    0.3244724024   -1.5195807142   -1.9419205352
 H    0.3974616526    2.1162230672   -0.5886658475
 H   -1.1275416087    1.6667266089   -0.9254557378
 H    0.7715147068    0.1700306590    0.7080448700
 H   -2.8558787635   -1.9500038545    0.9523125158
 H    2.6095391421   -0.4813015014   -3.7917313757
 H   -0.3858683459   -2.1815493931   -1.6721051398