17

 N   -0.0214423734   -1.1528563366   -0.0033059539
 C   -0.0357767273    0.0025240545    0.0033914505
 C   -0.0125497742    1.4619571698    0.0114204498
 C    1.4340479897    2.0161924297   -0.0023431496
 N    1.4583114991    3.4599822456    0.0056955775
 C    1.3931020429    4.2655321191   -1.1089791742
 C    1.3249973492    5.5731298349   -0.6920433701
 C    1.3423855059    5.5649162841    0.7308297358
 C    1.4204194352    4.2526001550    1.1308547686
 H   -0.5580705704    1.8373311610   -0.8604891205
 H   -0.5374292707    1.8273245421    0.9000929869
 H    1.9775577022    1.6448422834    0.8702992071
 H    1.9569305491    1.6549485887   -0.8916759727
 H    1.4125064774    3.8335509649   -2.0974778087
 H    1.2847827412    6.4392059740   -1.3344784485
 H    1.3179949688    6.4235118999    1.3840111594
 H    1.4638295552    3.8092283698    2.1135298426