17

 C    0.0450280384    1.3618638155    0.3467511911
 C    0.0266045045   -0.1442293807    0.2956718511
 O    1.0046097619   -0.8462470324    0.3019565747
 C   -1.3921054317   -0.7627394540    0.2437879001
 O   -2.3997774434   -0.1035704473    0.3056861149
 O   -1.3412932268   -2.0896595448    0.1278093428
 C   -2.6070484567   -2.7871900729    0.1175142027
 C   -2.2685724402   -4.2593714698   -0.0366668770
 O   -1.4792032436   -4.7359683100    1.0318589843
 H    1.0753602314    1.7141812178    0.3939837859
 H   -0.4595854110    1.7729573662   -0.5337811663
 H   -0.5225602254    1.7141871032    1.2137564467
 H   -3.1230244521   -2.5915955414    1.0621466628
 H   -3.2240251390   -2.4137025342   -0.7058979529
 H   -3.1977696681   -4.8385405362   -0.0323928670
 H   -1.7785728470   -4.4186962406   -1.0097480052
 H   -0.6747156713   -4.2048389584    1.0432667712