17

 C   -0.0136638847    1.3783536096    0.4083934785
 C    0.0487694628    0.0184801866   -0.2804574311
 N   -1.2365454172   -0.6718011776   -0.1376272342
 C   -1.4195279525   -2.0827455085   -0.3031856825
 C   -0.2145962379   -2.9079952660    0.1854743033
 C   -0.4377735660   -2.2443796462    1.5732171645
 O    0.0193254080   -2.4484387642    2.6605514137
 C   -1.6040273732   -1.4169141843    1.0643782681
 H    0.9194554505    1.9279043823    0.2541507036
 H   -0.8409048329    1.9734312059    0.0120228682
 H   -0.1625322668    1.2626048981    1.4866990486
 H    0.2130296310    0.1479790561   -1.3564113048
 H    0.9027103197   -0.5531348301    0.1090906430
 H   -2.2047270132   -2.4382232912   -0.9607725339
 H   -0.4198620829   -3.9802737419    0.2607195639
 H    0.7415458143   -2.7627849369   -0.3223392736
 H   -2.4939644490   -1.1282048216    1.6127516846