16

 O   -0.0056279134    0.0024294824   -0.0714374032
 C   -0.0265159638    1.1908352588    0.0350747448
 C   -1.0898376767    2.3048701340    0.0324996476
 N   -0.8227032094    2.8763004645    1.3744469183
 C    0.6366909707    3.2106140939    1.2261352420
 C    0.7386705612    4.6101656263    0.6244797924
 O    0.0529068647    4.4702874251   -0.6308112309
 C   -0.0513311630    3.0846455707   -0.8797937690
 C    1.0011207731    2.3177907869    0.0004788081
 H   -2.1386623109    2.1462771713   -0.2045968268
 H   -1.3508577774    3.7384333831    1.4860684021
 H    1.2080661258    3.0428527004    2.1396282774
 H    0.2281569740    5.3670000385    1.2316137424
 H    1.7780339241    4.9325719913    0.4600301700
 H   -0.0787851476    2.8818939701   -1.9491213255
 H    2.0497666889    2.1959433327   -0.2568371595