21

 C    0.1628857917    1.5069188211    0.0146032101
 C   -0.0311091844    0.0051743959    0.2364625154
 C   -1.2821171503   -0.5442833378   -0.4636035460
 C   -1.4595510951   -2.0235691328   -0.2350962210
 O   -1.8799715119   -2.4362509464    1.0656328269
 C   -2.7784517677   -2.6679993338   -0.0372102151
 C   -4.0176493968   -1.9391859123   -0.0610681495
 C   -5.0765109483   -1.3653974843   -0.0954392378
 C   -6.3524243463   -0.6669191620   -0.1269712360
 H    1.0578815478    1.8726240473    0.5273404059
 H    0.2699613864    1.7410038740   -1.0506644107
 H   -0.6936524111    2.0759946272    0.3925944015
 H    0.8544262532   -0.5372381493   -0.1205889954
 H   -0.1096249403   -0.2075645677    1.3089816368
 H   -2.1746195037   -0.0188899892   -0.1081435437
 H   -1.2138381907   -0.3641355073   -1.5453666667
 H   -0.6753995765   -2.6568383351   -0.6587521836
 H   -2.8626373122   -3.7202554694   -0.3107425164
 H   -6.4254172149   -0.0066378938   -0.9981906671
 H   -7.1897877543   -1.3717848659   -0.1712272904
 H   -6.4843470446   -0.0505697783    0.7690521229