21

 O   -0.1188895530    1.4014575551    0.2095090350
 C   -0.0280270628    0.0173726351    0.0898293265
 C   -0.7470070886   -0.8751297598    1.0823854983
 C   -1.2509369526   -0.7334514308   -0.3434675234
 O   -2.3452565125    0.0953537492   -0.5870257794
 C   -3.6081143709   -0.4866440540   -0.2733466059
 C   -4.6857638754    0.5375730685   -0.4867967829
 C   -5.2169569066    0.7918076535   -1.8737487767
 C   -6.0755560247    0.0825788147   -0.8582984182
 H   -1.0151302481    1.6338201326   -0.0693431721
 H    0.9403701835   -0.3019342085   -0.2839536337
 H   -0.2928464721   -1.8131748424    1.3838091162
 H   -1.3128680989   -0.3634290103    1.8537572245
 H   -1.1637339392   -1.5823240806   -1.0218326953
 H   -3.7820677170   -1.3614545678   -0.9204269615
 H   -3.6008796394   -0.8436104686    0.7671052992
 H   -4.6167075711    1.3984847777    0.1720076005
 H   -5.4725228599    1.8095643808   -2.1455412384
 H   -4.8008537377    0.2060535159   -2.6865351652
 H   -6.2446201910   -0.9813604159   -0.9888928865
 H   -6.9171137519    0.6136564358   -0.4284750610