15

 C    0.0124247593    1.4732197730    0.0013361529
 N   -0.0350834113    0.0175741411    0.0028691815
 C   -1.2349256335   -0.6487467636    0.0224059295
 C   -1.2287204533   -2.0103075533    0.0309223144
 N   -2.3025870362   -2.8399733950    0.0962453718
 C    0.0795394451   -2.6799676446   -0.0059275914
 O    0.1517647580   -3.9012912873   -0.0308407479
 N    1.2198603190   -1.8721059396   -0.0211809726
 N    1.1508188600   -0.5899136179   -0.0148359973
 H    1.0624638372    1.7601847173   -0.0163008215
 H   -0.4956866862    1.8707290470   -0.8825797295
 H   -0.4661608374    1.8716554539    0.9010812836
 H   -2.1264540041   -0.0333561943    0.0350136163
 H   -3.2174740517   -2.5195151131   -0.1719253149
 H   -2.0647361849   -3.8066621935   -0.0853726448