17

 C   -0.0162311781    1.4330504798    0.0488116609
 C   -0.0513999079   -0.0637012622    0.0365821063
 C    0.4764654513   -1.0462996192   -0.9833951624
 C    1.1791204189   -0.9510988445    0.3520538405
 C    0.5106393689   -2.2030265935    0.9533650949
 C   -0.4456413451   -2.1115078803   -0.3105991654
 C   -1.1941925242   -0.9892211557    0.5221289141
 C   -0.6670758130   -1.6762843101    1.7951397490
 O   -1.0905188271   -1.8806169889    2.8946833355
 H    0.9308149190    1.8007289689   -0.3613655637
 H   -0.8263313908    1.8588530172   -0.5536532215
 H   -0.1127891637    1.8267759825    1.0672401556
 H    0.8379397853   -0.9067663703   -1.9932381307
 H    2.1414767295   -0.5210171035    0.5963499045
 H    1.1055314826   -3.0702716953    1.2290830008
 H   -0.9451694462   -2.9670333629   -0.7543062769
 H   -2.2315037195   -0.6924081320    0.3844477585