11

 O   -0.0008061789   -0.0315924540    0.3594568841
 C   -0.0267053820    1.1482648015    0.1720785615
 O   -1.1223640291    1.9647862222    0.1206121329
 N   -0.6773048398    3.2899569274   -0.1104071922
 N    0.5684621546    3.2893592751   -0.1937838357
 N    1.0266657722    2.0298378939   -0.0312526239
 C    2.4296584816    1.6802750238   -0.0768875417
 C    2.9925460787    1.7371266384   -1.4312593425
 N    3.4499709481    1.7839436348   -2.4896752084
 H    2.9965975913    2.3406718009    0.5853212113
 H    2.4961421633    0.6578908461    0.3085103047