23

 C   -0.7118219863    1.1056432698   -1.3047409749
 C    0.0985682704   -0.0958588509   -0.8586671488
 O    1.4701085658   -0.0138929505   -1.3078757946
 C    1.9776041715   -0.3880440503   -0.0072054536
 C    3.1028691843    0.5166089261    0.4545838965
 C    0.5574805886   -0.2837149631    0.6208187940
 C    0.3073625404    0.8282914629    1.6359051679
 C   -1.0974661816    0.7930985233    2.2280631590
 O   -1.1890631292    1.8386862458    3.1835599724
 H   -0.3100374825    2.0400997444   -0.9046013644
 H   -0.6839784119    1.1698555644   -2.3973643629
 H   -1.7592447098    1.0104156253   -0.9999828026
 H   -0.3727205913   -1.0112869983   -1.2484017110
 H    2.3341601469   -1.4292313482   -0.0261302041
 H    2.7848424262    1.5607354047    0.5099697927
 H    3.4715312780    0.2078799849    1.4387060572
 H    3.9355364218    0.4523450898   -0.2531944034
 H    0.2185939953   -1.2338335914    1.0460235897
 H    1.0194147365    0.7296754464    2.4643314479
 H    0.4782522944    1.8187083574    1.2021120070
 H   -1.8499281463    0.9146179957    1.4331966379
 H   -1.2746823196   -0.1905908222    2.6943618986
 H   -2.0779326917    1.8354444439    3.5501866594