17

 C    0.0411303997    1.5624675662   -0.0957302681
 C   -0.0143064640    0.0381881998   -0.0362059573
 C   -1.4413793808   -0.5017961760    0.2085913998
 C   -2.0609263365   -0.0061389118    1.4307732793
 C   -2.5758465011    0.4084089779    2.4337740312
 C    0.7559054350   -0.7195209438   -1.1432506579
 O    1.6873763305   -1.2555415457   -0.1522354280
 C    1.0533382848   -0.5978577338    0.8749797019
 O    1.3430374737   -0.6001055670    2.0263562067
 H    1.0603614468    1.9143965177   -0.2797471959
 H   -0.6021315555    1.9389810588   -0.8985965037
 H   -0.3051718308    1.9892175353    0.8483328356
 H   -2.0619618787   -0.2252306176   -0.6546218291
 H   -1.4158693710   -1.5986230613    0.2303581290
 H   -3.0233060414    0.7638177229    3.3289303038
 H    0.2181501319   -1.5274814926   -1.6454892153
 H    1.2806728174   -0.0971785692   -1.8713300018