16

 C   -0.0748881744    1.5432139254    0.0710339403
 C    0.1346482847    0.0681927799   -0.0076048546
 O   -0.7852376552   -0.8006171016    0.6533577660
 C    0.6026008868   -0.9522705207    0.9586629319
 C    1.2379183364   -1.7873169953   -0.1876790790
 O    0.3680001491   -2.7952340628   -0.7755784182
 C   -0.1053180994   -1.8893218304   -1.7206902214
 N   -0.9132720907   -2.0453725329   -2.6629089223
 C    0.7427348875   -0.7401633671   -1.2052159830
 H    0.8339340286    2.0813817199   -0.2156682464
 H   -0.8790965727    1.8517040760   -0.6056874844
 H   -0.3518802435    1.8323296433    1.0881592943
 H    0.8952215203   -0.8895187421    2.0007795203
 H    2.2697436921   -2.1178722262   -0.0833599440
 H   -1.2799474328   -2.9983586323   -2.6879687129
 H    1.3977034834   -0.2096451132   -1.8919827267