21

 C    0.2737237264    0.8537021075   -0.5320952875
 O   -0.0336156918   -0.0935676155    0.4786392398
 C   -1.3144053218   -0.6174218501    0.3451470659
 C   -1.6051700061   -1.6809205444   -0.6969850649
 O   -0.5206946606   -2.2400835822   -1.3820920423
 C    0.3993791350   -2.8135860335   -0.4412534254
 C   -0.3339443045   -2.9305422746    0.9133118388
 C   -1.5706694220   -2.0473693103    0.7695514046
 C   -2.7967633258   -2.3860168594    1.5842965768
 H    1.2866441298    1.2131192662   -0.3354613108
 H    0.2324277246    0.3969094599   -1.5283453366
 H   -0.4177273099    1.7090876473   -0.5022439642
 H   -2.1169969081    0.0961377223    0.5512087075
 H   -2.5091286564   -1.6553581735   -1.2972719674
 H    0.7187320896   -3.7837465380   -0.8370166947
 H    1.2761318858   -2.1659434732   -0.3515255663
 H   -0.6605718415   -3.9585310836    1.1032442570
 H    0.3118513284   -2.6252202892    1.7412256905
 H   -2.6045159433   -2.2731248988    2.6576927805
 H   -3.6383315077   -1.7334993573    1.3314127538
 H   -3.1129015801   -3.4206450897    1.4075504349