19

 C   -0.1034307592    1.5758158519   -0.0069976545
 C   -0.0809057758    0.0463978862   -0.0435177497
 C    0.7912755923   -0.5091310028   -1.1868191879
 C    0.7957477393   -2.0049714859   -1.2626771378
 C    1.7734022566   -2.8889729944   -0.9406748724
 O    1.3734190937   -4.1552749822   -1.1145571162
 N    0.0568089733   -4.1455048693   -1.5916760343
 C   -0.2736058501   -2.8753024452   -1.6653385739
 N   -1.5531781495   -2.4865721989   -2.0354726550
 H    0.9044863887    1.9854947126    0.1244943864
 H   -0.5079958876    1.9906359849   -0.9373124106
 H   -0.7221286611    1.9440203622    0.8169053299
 H    0.2964422769   -0.3466970809    0.9078985880
 H   -1.1000587067   -0.3429676290   -0.1498212074
 H    0.4392504411   -0.0872119342   -2.1398117060
 H    1.8200774018   -0.1494133617   -1.0676486472
 H    2.7832501226   -2.7595448354   -0.5801750753
 H   -2.0786778925   -3.2398696446   -2.4603069188
 H   -1.5785773637   -1.6533019832   -2.6070498874