19

 C    0.1097322765    1.4795286999    0.0420811566
 C    0.0212246170   -0.0549803940   -0.0343822867
 C   -1.3514739187   -0.5453193151    0.0863911538
 C   -2.4756294499   -0.9721335731    0.1444849431
 C    0.6251345194   -0.5754533593   -1.3474066818
 O    2.0370570549   -0.2951213071   -1.4490783808
 C    2.3648051393   -1.7025087750   -1.5235542426
 C    0.8852073438   -2.1058815214   -1.4355569795
 O    0.6118054955   -2.8724375025   -0.2893409139
 H    1.1500694107    1.7872254051   -0.0891853925
 H   -0.4948240580    1.9444953309   -0.7425703590
 H   -0.2482689033    1.8423280013    1.0088220578
 H    0.6125509947   -0.4882593636    0.7806932523
 H   -3.4744419046   -1.3265586644    0.2158935915
 H    0.0757586047   -0.1540167055   -2.2000479477
 H    2.8817556866   -1.9512911220   -2.4567591031
 H    2.9590276250   -2.0394197687   -0.6670706169
 H    0.4798026910   -2.5724960800   -2.3416678168
 H   -0.3432560845   -2.8665143257   -0.1500838938