14

 C   -0.1090513865    1.4377367917   -0.0161511023
 N   -0.1260856415   -0.0119753500   -0.0109347145
 C    0.5533110491   -0.6090445343   -0.9095630724
 N    1.3416651181   -0.0513801243   -1.8913347734
 C    0.5645995638   -2.0884828368   -0.9224910919
 N    0.0031522124   -2.8814486329   -0.0511124246
 O    0.2837544609   -4.1232585655   -0.4979177681
 N    1.0338123718   -4.0356858621   -1.6661831580
 N    1.1996651328   -2.8154756407   -1.9154490371
 H    0.9094857278    1.8417340126    0.0933065295
 H   -0.5312776485    1.8575757795   -0.9444842153
 H   -0.7114732559    1.8104002792    0.8147432461
 H    1.1961079435    0.9173105414   -2.1198602272
 H    1.6550481522   -0.6450637078   -2.6428439908