15

 O   -0.0389125767    1.3889932505    0.0264001971
 C    0.0513219402   -0.0191117380   -0.0439424699
 C   -1.3236244256   -0.6061212899   -0.1331063431
 C   -1.9483209943   -2.0133613519    0.0737733735
 C   -3.2077788228   -1.5279168153   -0.6586492553
 C   -3.0626305074   -1.3373624040    0.8278662923
 N   -2.4377509228    0.0464426211    0.6566626916
 C   -2.5449996552   -0.1395249867   -0.8402954436
 H   -0.7369022005    1.5736636181    0.6710203857
 H    0.6459051120   -0.2643811811   -0.9316089451
 H    0.5733040299   -0.4438330917    0.8310447773
 H   -1.5368084608   -3.0097609997    0.1448505205
 H   -3.9228767225   -2.0956163864   -1.2357888387
 H   -3.6699366495   -1.6421162973    1.6706692739
 H   -2.7157963839    0.6921595023   -1.5126840463