19

 C    0.1032278267    1.4914256748   -0.1470797138
 C   -0.0042991808   -0.0112697176    0.0347724270
 O   -0.1368221456   -0.5199084096    1.1246512206
 C    0.0637561202   -0.8507274168   -1.2337786020
 C   -0.0523060735   -2.3397804334   -0.9555095481
 O    0.0266842336   -3.0074652415   -2.2283300156
 C   -0.0584563897   -4.3558752669   -2.1884322819
 C    0.0369903591   -4.9360407958   -3.5794685342
 O   -0.1918928415   -4.9853216461   -1.1708112208
 H    1.0496239675    1.7503408545   -0.6350454398
 H   -0.6990916013    1.8556932283   -0.7985399539
 H    0.0423634812    1.9861162526    0.8227841360
 H   -0.7307473839   -0.5249971183   -1.9178605698
 H    1.0042771174   -0.6299028087   -1.7552907580
 H    0.7494039936   -2.6923359954   -0.3022035703
 H   -0.9974172486   -2.5867954592   -0.4660197756
 H    0.9841908534   -4.6465107930   -4.0433731582
 H   -0.0337118718   -6.0215346050   -3.5244949471
 H   -0.7663825961   -4.5407621527   -4.2076156544