22

 C    1.2447926168    1.0191181874   -0.8992532641
 N    0.5395856146   -0.0749240116   -0.2440485829
 C    1.2971628665   -1.2385655786    0.1809879705
 C    0.6667508613   -0.3380932850    1.1935228010
 C    1.4270779390    0.5169212750    2.2088322729
 C    2.9505416115    0.5491243618    2.0854803111
 O    0.9996506599    1.8972096475    2.1141508796
 C    1.0395557608    0.0379456395    3.6307766290
 O    1.5323738830    0.9136930245    4.6182369254
 H    2.3057263994    1.1124562953   -0.6315860597
 H    1.1842887881    0.8572041543   -1.9804888855
 H    0.7534729567    1.9660866866   -0.6639912170
 H    0.8620632388   -2.2112870376   -0.0374997395
 H    2.3810386640   -1.1979481526    0.0855478856
 H   -0.2875272588   -0.6764840337    1.6025478290
 H    3.2760878822    1.0393081685    1.1674375487
 H    3.3586669155    1.1005172347    2.9355037268
 H    3.3588677259   -0.4641196231    2.1113710753
 H    0.0439844814    1.9000297486    1.9841819203
 H   -0.0600870315   -0.0441245500    3.6867597379
 H    1.4550901232   -0.9558253491    3.8299064350
 H    1.3409108117    1.8004623879    4.2828095408