15

 C    0.0351015569    1.5124177448   -0.0242073329
 C   -0.0647356578    0.0184752896    0.1169752232
 C   -1.3695147115   -0.7138458817   -0.2149036529
 C   -1.3042659338   -1.9611150944    0.6425844288
 C   -0.2086965296   -1.9911874759    1.4057746072
 C    0.6417824745   -0.7968325615    1.1258133433
 O    1.0991739028   -0.7338406454   -0.2490493950
 H    1.0163180478    1.8631844857    0.3049932801
 H   -0.0984881382    1.8131942228   -1.0695734308
 H   -0.7360036307    2.0143357845    0.5697674161
 H   -2.2465985384   -0.0987624026    0.0264408200
 H   -1.4315505175   -0.9493777604   -1.2843752677
 H   -2.0609550991   -2.7363591946    0.5970492556
 H    0.0648673773   -2.7730423950    2.1032312426
 H    1.3332674273   -0.3862904360    1.8561934325