17

 C   -0.0662359357    1.5414224868    0.0050140962
 C    0.0265793823    0.0163478863   -0.0035640209
 O   -1.2606131563   -0.5743454739   -0.0365605588
 C    0.9934726611   -0.5705710750   -1.1038199484
 C    1.9907080435   -1.2923898115   -0.1808624535
 O    1.1114700032   -1.9136932897    0.8112269053
 C    0.7556812196   -0.5586792342    1.2301189261
 C    2.2435958079   -0.2448993305    0.9290057105
 O    3.1567389544    0.3263136927    1.4335124753
 H    0.9195979780    2.0083611102    0.0942046978
 H   -0.5208841649    1.9023168640   -0.9249399552
 H   -0.6878385038    1.8789830051    0.8396579370
 H   -1.7225785609   -0.2421644271   -0.8140877073
 H    0.4601245477   -1.2855941241   -1.7342052681
 H    1.4618609894    0.1942554168   -1.7294641135
 H    2.7484911853   -1.9556951825   -0.5931325227
 H    0.2795255391   -0.4891718234    2.2053570303