23

 C   -0.1281989357    1.5290151157   -0.0567102059
 C   -0.0205302175    0.0251366223    0.1358470770
 O   -1.3076202365   -0.5369785572   -0.0337894234
 C   -1.3650246116   -1.9558740582    0.0139194050
 C   -1.3235972498   -2.4694409746    1.4540331021
 C   -2.6700204575   -2.3499004007   -0.7238299218
 C   -2.6981044583   -1.8055231594   -2.1659026193
 C   -2.8667479910   -3.7980019349   -0.7176483690
 C   -3.0191598827   -4.9905433014   -0.7484426821
 H    0.8512688784    2.0001824597    0.0692315194
 H   -0.5013656059    1.7634867522   -1.0577377930
 H   -0.8172725665    1.9603161815    0.6749735146
 H    0.6801183956   -0.4097868763   -0.5963984896
 H    0.3793874251   -0.1988530342    1.1369452625
 H   -0.5156709637   -2.3753630407   -0.5510214043
 H   -0.3911239905   -2.1825226095    1.9478001322
 H   -2.1570363630   -2.0497539579    2.0269228380
 H   -1.3976081228   -3.5590523227    1.4764501051
 H   -3.4932527858   -1.8838800390   -0.1641415201
 H   -3.6476708386   -2.0495677823   -2.6486236110
 H   -2.5681420290   -0.7225863611   -2.1543353581
 H   -1.8937488850   -2.2510963959   -2.7598515428
 H   -3.1634123579   -6.0423288851   -0.7657217753