15

 N    0.0132819384    1.2234391920    0.6369336418
 C   -0.0194600737    0.0394163851    0.1775161022
 N   -1.2082470741   -0.5356036059   -0.2970961749
 C   -2.4592685280    0.0391302373   -0.4737258607
 O   -2.7740489750    1.1749923680   -0.2495332807
 C    1.1269933161   -0.9296492872    0.0628489996
 C    2.2527982286   -0.8996182988    1.0203900351
 N    1.2740506298   -2.0003569947    1.0809733899
 H    0.9707797492    1.4625660550    0.8933317976
 H   -1.1461793022   -1.5100841569   -0.5525289913
 H   -3.1628723335   -0.7217937259   -0.8720183695
 H    1.3167284050   -1.2852200581   -0.9491344941
 H    3.2452308052   -1.1848905412    0.6854297791
 H    2.2357315468   -0.1536826138    1.8101266418
 H    0.6286513773   -1.8207878748    1.8485572040