17

 N    0.1739130652    0.7634535901   -1.0010998634
 C   -0.0009514128    0.1093888957    0.1840462020
 O    0.7765895927    0.1536209395    1.1187509857
 C   -1.2367906823   -0.7144214590    0.2161281694
 C   -1.7055242898   -1.8859490754   -0.5820490603
 C   -2.1808227039   -2.6168745444    0.6724120524
 C   -2.2282245135   -1.2122829511    1.3328610863
 C   -3.3061581156   -0.5005002785    0.4971773847
 N   -2.4059028884   -0.5657659757   -0.7074460721
 H    0.9467013449    1.4042470184   -1.0768123297
 H   -0.6083677498    0.8525305976   -1.6300093551
 H   -1.2824300618   -2.2876056842   -1.4933856627
 H   -3.1117233373   -3.1920993013    0.6316783192
 H   -1.3764643567   -3.2323725446    1.0809806039
 H   -2.1264616028   -1.0846691508    2.4068594106
 H   -4.2785613382   -0.9915112367    0.3766941533
 H   -3.4454473700    0.5501035105    0.7614912259