16

 O    0.0047864225    1.4534259819    0.0420477153
 C    0.0177563558    0.0400455600   -0.0139254207
 C   -1.3969855233   -0.4746736556   -0.0040224366
 C   -2.5088748325    0.3571947693    0.0524239449
 C   -3.7860218437   -0.2010276097    0.0577174429
 N   -4.0144078246   -1.5143370121    0.0109185101
 C   -2.9497704991   -2.3150693138   -0.0433027374
 C   -1.6361075804   -1.8520068948   -0.0531053195
 O   -0.5543490162   -2.6828387630   -0.1088690307
 H    0.9152002012    1.7605162144    0.0330405007
 H    0.5244339268   -0.3273351486   -0.9210437224
 H    0.5619626635   -0.3966501361    0.8391382879
 H   -2.3690479298    1.4297697696    0.0916141452
 H   -4.6628573997    0.4395806440    0.1016344658
 H   -3.1421138246   -3.3885000190   -0.0814441571
 H   -0.8587448158   -3.5964960365   -0.1383825484