17

 C   -0.3327606403    1.6570586194   -0.0957309181
 C    0.1544981136    0.2145295718   -0.0956396569
 O    1.3154382713   -0.0988290764   -0.1578920499
 N   -0.8977092513   -0.7055535744   -0.0146350119
 C   -0.8462714379   -2.0942012042    0.0132585467
 N    0.2102771937   -2.7850489487   -0.0274024528
 C    0.0631928801   -4.2207161134   -0.0009299101
 C    0.7950967327   -4.8537186391   -1.1793633488
 O    0.4915822996   -5.9112811411   -1.6650708096
 H    0.5331877280    2.3136359088   -0.1666477754
 H   -1.0003958706    1.8465259921   -0.9432043381
 H   -0.8846177245    1.8848869702    0.8226516752
 H   -1.8259949364   -0.3158352899    0.0280441757
 H   -1.8555237118   -2.5285517775    0.0792084486
 H    0.5568555346   -4.6114604127    0.9033362583
 H   -0.9766857609   -4.5860635970    0.0086534820
 H    1.6545958902   -4.2528319777   -1.5467397349