16

 O   -0.1261550102    1.4935925716    0.0580378074
 C    0.0354485713    0.0838792476    0.0395467108
 C   -1.3657872260   -0.5089353584   -0.0692377290
 C   -1.3857224256   -2.0575288425   -0.0087190304
 O   -0.7538613176   -2.5390519801    1.1780421338
 C   -2.7687943349   -2.5446602466   -0.1027775025
 C   -3.9119968265   -2.9113742543   -0.1191360461
 C   -0.6000859668   -2.6152321825   -1.1377572418
 N    0.0083835117   -3.0148539127   -2.0336813639
 H    0.7470097024    1.8934679859    0.1059218674
 H    0.6460152979   -0.2409151732   -0.8159858207
 H    0.5194281700   -0.2839813035    0.9545001305
 H   -1.9806343895   -0.1418780530    0.7591091397
 H   -1.8398076345   -0.1784070434   -0.9983077830
 H   -1.4104025070   -2.5017966549    1.8831493239
 H   -4.9189579947   -3.2501853701   -0.1493301261