21

 C   -0.0263586376    1.3232387079   -0.0035729442
 O    0.0018590753   -0.0831038669    0.0062841984
 C    0.6472177840   -0.6278771012   -1.1256736678
 C    0.6162596143   -2.1227525438   -1.0235066300
 C   -0.6476872244   -3.0361898656   -0.9510912710
 C    0.5703261302   -3.9832534373   -0.9026390465
 O    0.4525590602   -5.3569627234   -0.8172775297
 C    1.2072461653   -3.1327385538   -2.0500894004
 C    1.2303501679   -2.9977786177    0.1107087452
 H    0.9879761451    1.7538528155   -0.0084400038
 H   -0.5672883641    1.7164032319   -0.8793905357
 H   -0.5422766449    1.6472044907    0.9036240132
 H    0.1433221448   -0.3005096797   -2.0523076253
 H    1.6914064695   -0.2723747294   -1.1835215055
 H   -1.2489588181   -2.9610065825   -0.0427255809
 H   -1.2675952364   -3.0835851999   -1.8507564950
 H    1.3364884942   -5.7356793820   -0.7623320982
 H    0.7182070043   -3.1838318818   -3.0269132829
 H    2.2981276121   -3.1558338623   -2.1387135315
 H    2.3232378088   -3.0113913316    0.1752928218
 H    0.7636671896   -2.9154930873    1.0945591099