17

 O    0.0876344252    1.4145915853    0.0583995945
 C    0.0196270118    0.0386381720    0.0204277455
 C    0.3959691396   -0.7637928297   -1.2632201425
 C   -0.5764354882   -1.8307343053   -0.7500262709
 C   -0.4584469234   -1.8780138564    0.7561502747
 C    0.5873245254   -0.8405268803    1.1771732451
 C   -1.3133859916   -0.7845636107    0.0990097963
 C   -2.6790862687   -0.3362777540    0.2199805665
 O   -2.9674899380    0.8472443812    0.2794289180
 H   -0.8210935325    1.7354603372    0.1394829943
 H    0.0103503112   -0.2706765491   -2.1581900070
 H    1.4458927072   -1.0420893006   -1.4013316478
 H   -1.0413750848   -2.6349422870   -1.3057101054
 H   -0.8351854277   -2.7175474379    1.3261994882
 H    1.6445524131   -1.1218369135    1.1324294296
 H    0.3482515342   -0.4061049980    2.1502885749
 H   -3.4654648129   -1.1201769332    0.2569664558