21

 C    0.0016962357    1.5432922380    0.0743321038
 C   -0.0089036390    0.0460069658   -0.0044378270
 C    1.0925037662   -0.8390095199   -0.5108595771
 C    0.5952122423   -1.7560526370   -1.6161164893
 C   -0.8500087408   -2.0613701235   -1.1913215408
 C   -0.8559001268   -3.0434095452    0.0170006170
 C   -0.7535917510   -1.8131264989    0.9422683721
 C    0.5782909370   -1.0317169121    0.9135274141
 C   -1.2415111746   -0.8784316945   -0.2053644127
 H    0.9911921401    1.9136425013    0.3635388169
 H   -0.2503503503    1.9965433155   -0.8927086592
 H   -0.7196966278    1.9169379475    0.8105333644
 H    2.0897049005   -0.4138936841   -0.5791144546
 H    0.6294997808   -1.2250577675   -2.5760835238
 H    1.1850277755   -2.6733921620   -1.7271610390
 H   -1.5151365243   -2.2921583972   -2.0249385225
 H   -1.8230743384   -3.5421564548    0.1346204658
 H   -0.0613787495   -3.7962110800    0.0533269836
 H   -1.2375769597   -1.8218274796    1.9205375540
 H    1.2526961728   -0.9132924794    1.7549245354
 H   -2.2479862487   -0.4655114823   -0.2420182311