21

 C    0.3695524275    1.4624434288   -0.2442567497
 C    0.0109161436   -0.0164886115   -0.0052704584
 C   -1.5002901536   -0.1793459622    0.1795533433
 C    0.5689505272   -0.8751080426   -1.1846610846
 C    1.8435573603   -1.4746797484   -0.6454862840
 C    1.9747863835   -1.2873179714    0.6671163165
 C    0.8103223923   -0.5448594921    1.2131689855
 C    0.7693515379    0.0567918855    2.5516490899
 O    0.1000063207   -1.1790219806    2.3011528444
 H    1.4504377184    1.5912374001   -0.3634898227
 H   -0.1172782048    1.8340882590   -1.1523208312
 H    0.0449394488    2.0927027192    0.5895120838
 H   -2.0319991088    0.1628772916   -0.7149614439
 H   -1.7668599168   -1.2230323756    0.3637452038
 H   -1.8631204315    0.4076108116    1.0294016733
 H   -0.1327283983   -1.6670273754   -1.4800540123
 H    0.7385488975   -0.2671294545   -2.0811352792
 H    2.5443085966   -2.0147470046   -1.2729205024
 H    2.7782605047   -1.6522569824    1.2957816190
 H    1.6419000069   -0.0029100019    3.2028271901
 H    0.1173154679    0.9091867074    2.7425841087