18

 C   -0.0642198657    1.4627305698    0.0485878152
 C    0.0319529900   -0.0323862197    0.0042690915
 C    0.8900991344   -0.8900569381   -0.9272449877
 C    0.0342749762   -2.0901769480   -0.4402670429
 C    0.4262553335   -2.2446351834    1.0593415310
 C   -0.2580150584   -0.8946666037    1.2416580480
 O   -0.5719191364   -0.2561373068    2.4246572130
 C   -1.0921378021   -1.0642382019   -0.0145181412
 H    0.8934376765    1.9096634971    0.3411246561
 H   -0.3384641546    1.8728931280   -0.9298393011
 H   -0.8116738258    1.7835266455    0.7793494507
 H    0.6939091696   -0.6454108418   -1.9760497366
 H    1.9733532641   -0.9383855375   -0.7582035786
 H   -0.1137856961   -2.9701902746   -1.0615156253
 H   -0.1418705700   -3.0469919132    1.5427812315
 H    1.4909359355   -2.3446636333    1.3021106976
 H   -1.2115146797   -0.7979659597    2.8994299063
 H   -2.1502401912   -0.9783582188   -0.2167854677