19

 O   -0.0703415690    1.4327735823   -0.1217716521
 C    0.0000207870    0.0334515271    0.0352904618
 C    0.2715476992   -0.5579503344    1.4652148815
 C   -1.0848106990   -1.2804418328    1.3835257548
 C   -2.2066688559   -0.3047446108    1.1979956865
 C   -1.3651451073   -0.6546466678    0.0035054349
 C   -1.8279190161   -1.7881365658   -0.8772263004
 O   -2.1885686587   -2.8409722157    0.0339558896
 C   -1.3763238405   -2.7519768807    1.2141452105
 H    0.8157781415    1.7927427237   -0.0105729505
 H    0.6756260909   -0.4163482857   -0.7060926313
 H    1.1307111606   -1.2329337861    1.4926108004
 H    0.3649208182    0.1750573146    2.2723439660
 H   -3.2067983615   -0.7243982892    1.1936198510
 H   -2.1253964273    0.6891516260    1.6250765055
 H   -2.7186834729   -1.5921087014   -1.4823186482
 H   -1.0131997155   -2.1016263184   -1.5503704317
 H   -0.4318987622   -3.3089571244    1.0970664654
 H   -1.9540220815   -3.2208073306    2.0173457763