17

 O   -0.1492754582    1.3041232618    0.1241599754
 N   -0.0042886120   -0.0947613528    0.1465483364
 C   -1.1191292479   -0.6664180667   -0.0288949031
 C   -2.5364143090   -0.2254769356   -0.3378832873
 C   -2.8132841165   -1.6873496349   -0.7780730791
 C   -1.4545531185   -2.1374339985   -0.1494886671
 O   -3.9832618510   -2.2372373280   -0.2051937121
 C   -4.5913794128   -3.2454020208   -0.8638982053
 N   -5.5614744663   -3.8511169353   -0.3329008496
 H    0.7569015216    1.6044657028    0.2528526771
 H   -3.1047550089    0.0310942697    0.5619885374
 H   -2.6633249341    0.5670600100   -1.0778177327
 H   -2.8286973215   -1.8040552332   -1.8670772196
 H   -0.7930110029   -2.7634043106   -0.7523021600
 H   -1.6190155904   -2.6144784718    0.8224543723
 H   -4.1629583322   -3.4381655626   -1.8577867039
 H   -5.9185866795   -4.5604304934   -0.9694596587