27

 C    0.0505332603    1.6285341694    0.0662843634
 C    0.0065240063    0.0991151846    0.0103944448
 C    0.7049879612   -0.4809600357   -1.2242230770
 C    0.6672564903   -2.0119816873   -1.2863348399
 C    1.3645745413   -2.5799571767   -2.5285068540
 C    1.4327772482   -4.1159358764   -2.5875420002
 C    0.0505756436   -4.7756444061   -2.6825476439
 C    2.3202089910   -4.5537618815   -3.7545337871
 O    2.4896187574   -5.9636535491   -3.6944436904
 H    1.0832191580    1.9944946938    0.0880691113
 H   -0.4364537496    2.0710040665   -0.8100406717
 H   -0.4565476470    2.0121150465    0.9573077666
 H    0.4706667251   -0.3143181417    0.9157370851
 H   -1.0383816310   -0.2384498831    0.0264643730
 H    0.2395876195   -0.0684360566   -2.1306595095
 H    1.7502635119   -0.1412281818   -1.2423564285
 H    1.1422382851   -2.4235008784   -0.3846225751
 H   -0.3778716643   -2.3443293832   -1.2575431203
 H    0.8569959776   -2.2065477207   -3.4300398841
 H    2.3866226944   -2.1777191992   -2.5687759830
 H    1.9240952368   -4.4746693140   -1.6716949714
 H    0.1549126122   -5.8562736921   -2.8020925141
 H   -0.5518880046   -4.5870537569   -1.7898378378
 H   -0.5042254697   -4.3912125659   -3.5479835302
 H    1.8506512984   -4.2513854278   -4.7061224292
 H    3.2927470691   -4.0393965924   -3.6908773738
 H    2.9818485284   -6.2412557541   -4.4719458431