21

 O   -0.0090786988    1.4333836078    0.1354291013
 C    0.0102592418    0.0436558800   -0.0384213363
 C    0.3221879399   -0.5192971556   -1.4432629351
 C   -0.8541788041   -1.5372314250   -1.2860586939
 C   -0.4480049979   -2.9733050356   -0.8668931578
 C   -0.7112723202   -3.0816872696    0.6578534298
 C   -0.7786732334   -1.6411790414    1.1709285182
 C    0.5514373544   -0.8137508752    1.1447423207
 C   -1.3181618351   -0.7744644150    0.0018062977
 H    0.9014026700    1.7501036359    0.1250864963
 H    0.0995490838    0.2381716425   -2.1999078125
 H    1.3214752340   -0.9301624909   -1.6275831459
 H   -1.5525129299   -1.5323638623   -2.1237397179
 H   -1.0145825738   -3.7291353758   -1.4183149782
 H    0.6073862321   -3.1524003069   -1.0984843070
 H   -1.6769881353   -3.5697266720    0.8367106367
 H    0.0466939651   -3.6797392882    1.1751650546
 H   -1.3108755872   -1.5575961969    2.1205064153
 H    1.4758847860   -1.3737485948    0.9676031554
 H    0.6742176293   -0.2002050239    2.0404239468
 H   -2.3083519106   -0.3231226269    0.0359956119