21

 C    0.5205788431    1.3083359229    0.5068222379
 C    0.0463090769   -0.1004614698    0.1397708657
 C   -1.4498220029   -0.1819795442   -0.2340525952
 C   -1.9101740277   -1.6207678057   -0.5952612242
 C   -2.6295434214   -2.1726487069    0.6762088084
 C   -2.9929517354   -0.8948011041    1.4197446054
 C   -2.3669729030    0.1668020222    0.9202178430
 C   -3.7662651839   -3.0383758955    0.3817816254
 C   -4.7058510456   -3.7474373456    0.1362031318
 H    1.5946706213    1.3204822936    0.7161142497
 H    0.3338138621    2.0138415847   -0.3109473637
 H    0.0071180481    1.6875005644    1.3961220605
 H    0.6334450459   -0.4701058970   -0.7105348514
 H    0.2437093998   -0.7856488468    0.9745231312
 H   -1.6133565444    0.4956386431   -1.0829249475
 H   -2.6336056992   -1.5864622551   -1.4135141827
 H   -1.0844630266   -2.2638682745   -0.9107697416
 H   -1.9211350135   -2.7514691110    1.2884322017
 H   -3.6680500915   -0.9029081771    2.2672582989
 H   -2.4564720880    1.1741196328    1.3117712797
 H   -5.5348676042   -4.3745755003   -0.0794776529