20

 C   -0.3367408503    1.4474529323    0.0197780740
 C    0.1534415797    0.0156400696   -0.0531865428
 O    1.4015781593   -0.1033389034   -0.7805192477
 C    2.0110868161   -0.8384548477    0.2974783211
 C    0.7752680455   -0.6418157068    1.1993771642
 C    0.9480454831    0.0746988096    2.5647310908
 C    0.7539803304   -1.2957565973    3.2697723566
 C    0.1553574260   -1.8460318124    1.9466583166
 H    0.4009594723    2.0915302386    0.5075365071
 H   -0.5143467780    1.8330097326   -0.9891444449
 H   -1.2787173897    1.5079398460    0.5761802294
 H   -0.6171997534   -0.6228076773   -0.5136106160
 H    2.2179598072   -1.8816991477    0.0186783265
 H    2.9442019624   -0.3703091654    0.6374773150
 H    1.8876596550    0.6080545039    2.7333655486
 H    0.1202608258    0.7599589071    2.7714763286
 H    1.7087190650   -1.7694357537    3.5142577987
 H    0.1198937886   -1.3190028364    4.1586495023
 H   -0.9388978023   -1.7994272188    1.9409381463
 H    0.4597935469   -2.8450198827    1.6216206458