18

 O    0.0175650243    1.4759057286   -0.1160292565
 C   -0.0158347527    0.0782389003    0.0561163940
 C    0.2360066204   -0.6115476752    1.4239458108
 C   -0.7941250866   -0.2004645666    2.5293909820
 C   -1.7987348921    0.8845079841    2.0994700121
 C   -2.3503222777   -0.2020299347    1.1594866817
 C   -1.3860905476   -0.6154614314   -0.0050787723
 C   -0.8154708480   -1.6844968048    0.9864787420
 N   -1.7783097114   -1.2901945414    2.0807138962
 H    0.9363062954    1.7622013171   -0.0950219614
 H    0.6354150910   -0.4180789820   -0.6811798904
 H    1.2586423271   -0.8210431386    1.7381497829
 H   -0.4308820555   -0.2324448333    3.5586460111
 H   -2.5111254629    1.0670993129    2.9092651459
 H   -1.4375150805    1.8213126529    1.6829565471
 H   -3.4167564312   -0.2358504550    0.9288959711
 H   -1.8326306436   -0.8236742893   -0.9764912764
 H   -0.6160675884   -2.7317979735    0.7616016103