22

 C   -0.1187555910    1.3969732862    0.5292723478
 C   -0.0598255683   -0.0876132726    0.1579660158
 C   -1.4203798026   -0.6439163666   -0.2224946595
 C   -1.5923023235   -2.1729646259   -0.3429910950
 C   -2.7014123666   -1.9946899762    0.7153848462
 C   -2.6012134750   -2.7673370807    2.0185737556
 C   -3.5927133109   -2.2660630342    3.0726127253
 O   -2.3702539989   -0.5908884921    0.8729928974
 H    0.8619448747    1.7685556416    0.8408069510
 H   -0.4535140222    2.0047506529   -0.3187435370
 H   -0.8220911537    1.5537064009    1.3519715465
 H    0.6255151803   -0.2456068285   -0.6858576540
 H    0.3329023547   -0.6694757929    1.0010427853
 H   -1.8175632865   -0.0961122844   -1.0908939777
 H   -1.9007951161   -2.5563936856   -1.3165800306
 H   -0.7299581273   -2.7432347704    0.0135317791
 H   -3.7151098945   -2.0969638409    0.2983467339
 H   -2.7743303569   -3.8305204634    1.8032508900
 H   -1.5754883496   -2.6817357746    2.3982277705
 H   -3.4346836303   -1.2010647352    3.2646676345
 H   -4.6276269625   -2.3965718267    2.7371905277
 H   -3.4764413333   -2.8059478208    4.0170201372