13

 N    0.0068884599    1.3050376754   -0.0430672377
 C   -0.0095767447   -0.0570969459    0.0402075414
 N   -1.1446340021   -0.7000799997    0.0313107183
 O   -1.1200381667   -2.0609552200    0.1726835320
 N    0.0245470723   -2.7942714283    0.3300167173
 C    1.1663227915   -2.1633213488    0.3406274668
 N    2.3268475577   -2.8503841603    0.5497568932
 C    1.2833720558   -0.7212217166    0.1580806191
 O    2.3570676912   -0.1314202881    0.0905046077
 H    0.8987007180    1.6968403789   -0.3051462755
 H   -0.8209861186    1.7607552543   -0.3914443729
 H    2.3101002129   -3.8474975824    0.4086764205
 H    3.1610864530   -2.3554174987    0.2730346998