16

 N    0.0820858031    1.3625192315    0.1273340953
 C   -0.0210907799   -0.0165320393    0.0445879346
 C   -1.1605330247   -0.8200758339    0.0623608466
 C   -0.7229365883   -2.1647837433    0.0462518004
 N   -1.5450842402   -3.2797899153    0.1161602943
 C    0.6788867671   -2.1577665743    0.0110472221
 N    1.0675512557   -0.8112981062    0.0087449488
 C    1.6685413308   -3.1758801606   -0.0207407376
 O    2.8775670768   -2.9631224468   -0.0502876437
 H    0.8623031666    1.7595906873   -0.3787791486
 H   -0.7762470083    1.8419499865   -0.1024032648
 H   -2.1811379444   -0.4693665303    0.0863988286
 H   -2.4721129704   -3.1380063442   -0.2575293733
 H   -1.1374001017   -4.1352930112   -0.2310256036
 H    2.0384503526   -0.5488583782    0.0509845979
 H    1.2739092150   -4.2168840519   -0.0141546772