14

 O   -0.0182707876   -0.0132170831   -0.0277167291
 C    0.0373760070    1.1969259852    0.0242155469
 C    1.2788195505    1.9566675834    0.0266044565
 C    1.4942236191    3.2830350915    0.0013002431
 C    3.0310364299    3.3393494283   -0.0001591193
 C    3.3780196628    2.2766476247   -1.0900590611
 C    2.7233334823    1.4195633060    0.0346723624
 O    3.3538962899    2.3244746721    1.0035194257
 H   -0.8850972843    1.8162272445    0.0712944610
 H    0.7959822880    4.1078646179   -0.0236816248
 H    3.5465102910    4.2900451659    0.1219460883
 H    2.8897674685    2.3333976839   -2.0648945155
 H    4.4536749351    2.1096609113   -1.1728430651
 H    2.9020887778    0.3601580883    0.1978733511