23

 C   -0.4354371592    1.2297314225   -0.1311031810
 C    0.3470778516   -0.0776425086    0.0147814338
 C    0.6374039880   -0.7337869399   -1.3273280524
 O    1.3764198071   -1.9256519497   -1.0970629753
 C    1.7215660159   -2.5940283833   -2.2662315813
 C    2.1296863020   -4.0347718255   -2.1259129998
 C    0.8319491891   -3.6712460812   -2.8299813180
 C   -0.4887026556   -4.0020544741   -2.1763850065
 O    0.8336268000   -3.7177327516   -4.2346531816
 H    0.1192139981    1.9631341849   -0.7267736932
 H   -1.4002576732    1.0655477797   -0.6236021871
 H   -0.6344929873    1.6791414249    0.8459815529
 H    1.2991794215    0.1030179823    0.5267443730
 H   -0.2113207686   -0.7869870430    0.6367129377
 H   -0.2992784574   -0.9609130612   -1.8599059751
 H    1.2183366510   -0.0525448342   -1.9713749256
 H    2.2555726900   -1.9919789653   -3.0028285417
 H    2.9590044184   -4.3829943671   -2.7313355313
 H    2.0598038216   -4.4657282277   -1.1327889584
 H   -0.4587629152   -3.7699913431   -1.1092565137
 H   -1.2952104739   -3.4242273579   -2.6390059436
 H   -0.7292575815   -5.0663711000   -2.2884926444
 H    0.7866090076   -4.6434711010   -4.4995666874