20

 C   -0.1025652307    1.5325318554    0.0203450011
 C    0.0646932193    0.0143374181    0.0322965092
 C    1.0070401883   -0.5667771920   -1.0823198084
 C    1.9864798930   -1.3652078959   -0.2023281905
 C    1.0326166949   -2.0450528289    0.8213752826
 C    0.7818874647   -0.5770748522    1.2680925162
 C    2.2940137495   -0.3160992692    0.9249447045
 C    3.2394307350   -0.7520682099    1.9376361216
 N    4.0015980389   -1.0835314643    2.7422654380
 H    0.8566223505    2.0555709239    0.0988399242
 H   -0.5774817547    1.8628335570   -0.9094019300
 H   -0.7319730762    1.8663662084    0.8521123400
 H   -0.9291127130   -0.4410766397   -0.0414151127
 H    0.4788047432   -1.2096840014   -1.7913978331
 H    1.5077919760    0.2217390266   -1.6530985985
 H    2.7948950834   -1.9056575479   -0.6930341989
 H    0.1807141005   -2.6057999463    0.4274944649
 H    1.5629635112   -2.6353302298    1.5700716344
 H    0.3847411963   -0.3280389889    2.2518974052
 H    2.5661931700    0.6905037068    0.5963856101