21

 C   -0.0067404342    1.5059809218   -0.2769896864
 C   -0.0544037558    0.0825234609    0.2901789645
 C   -1.4332806481   -0.5399583008    0.2083474705
 C   -1.8888494667   -1.2356300308   -1.0596223854
 C   -1.6124030956   -2.0277044972    0.1866553507
 C   -0.5673995650   -3.1669374735    0.3435980106
 C   -1.6482682480   -3.9508662966    1.1124059192
 O   -2.0399708753   -3.1566121100    2.2366641821
 C   -2.6220823037   -2.8585943571    0.9559065563
 H    0.9995230683    1.9300395421   -0.2020775297
 H   -0.3023200995    1.5197956845   -1.3313088325
 H   -0.6889682795    2.1692602846    0.2660338555
 H    0.6612408538   -0.5513918845   -0.2485439986
 H    0.2761044317    0.0926011545    1.3369053952
 H   -2.2039312837    0.0144672796    0.7413396726
 H   -2.9196877806   -1.1182017093   -1.3798596647
 H   -1.1774585737   -1.3176247851   -1.8768811651
 H   -0.2957241216   -3.6272513169   -0.6103280773
 H    0.3347451580   -2.9452750917    0.9195209427
 H   -1.7908571576   -5.0226752277    1.1837216628
 H   -3.7042049233   -2.8670901169    0.8858411470