12

 N    0.0965039205    1.3205396314    0.1449395893
 C   -0.0715337098   -0.0296368092    0.0429958563
 N   -1.1703779853   -0.7145790073    0.0204896601
 C   -0.7046302438   -2.0372532441    0.0076134967
 C    0.6467679996   -2.0212874546    0.0119143266
 O    1.2286072970   -3.1984068391   -0.0222313648
 N    0.1329892413   -4.1389972064   -0.0472170146
 C   -0.9806164435   -3.4247326560   -0.0301467506
 O    1.1278471554   -0.7612997797    0.0354189970
 H    0.9380380520    1.6870529508   -0.2748575253
 H   -0.7383136930    1.8447240620   -0.0713712906
 H   -1.9176699803   -3.9629108778   -0.0456612002