21

 O    0.1393728850    1.3961175232   -0.2427617966
 C    0.0865898871   -0.0121200264   -0.0063887882
 C    0.8113826680   -0.4306762685    1.2799860875
 C   -0.1075491938   -0.2915887218    2.5026520020
 C   -1.5264455273   -0.7425884569    2.1600721830
 C   -1.7495923745   -1.7074705042    0.9417727990
 C   -3.2077761435   -1.1809291910    0.8836864908
 C   -2.3227897889    0.0751474470    1.0964662851
 C   -1.3583760945   -0.5085577495    0.0100420469
 H   -0.4279910117    1.8246641791    0.4064867918
 H    0.6103220214   -0.4436350225   -0.8666782362
 H    1.1013844093   -1.4835585338    1.1765253866
 H    1.7326790928    0.1490460163    1.3878510047
 H    0.2875228839   -0.8799336475    3.3380264954
 H   -0.1361397590    0.7483594266    2.8566008191
 H   -2.1079981800   -0.9977820589    3.0521662197
 H   -1.4216213899   -2.7447084281    0.8491276311
 H   -3.7192687219   -1.2619391655   -0.0793116188
 H   -3.8636267861   -1.4603202514    1.7132151042
 H   -2.6669297835    1.1092560892    1.1881847662
 H   -1.7866519928   -0.5408666055   -0.9965748632