17

 N    0.0960272664   -1.0687775495    0.0601185693
 C    0.0369891356    0.0866753182    0.0393953781
 C   -0.0164117869    1.5181288601    0.0038709777
 C    0.4028276455    2.2562667813   -1.2533765392
 C    1.2347174298    2.4134353418   -0.0121650585
 C    0.7827057045    3.3969049643    1.0856376086
 C   -0.7066851410    3.6294788189    0.7648871844
 N   -0.8935244530    2.1483601509    1.0399405346
 C    0.1841860487    2.3762344857    2.1095836904
 H    0.8266855350    1.6117025760   -2.0165753410
 H   -0.2012145773    3.0578117599   -1.6580651905
 H    2.2356000296    2.0016058366    0.0248924574
 H    1.4715387824    4.1982929628    1.3569860339
 H   -1.2274256586    4.1912253479    1.5414714158
 H   -1.0312841881    3.9907964391   -0.2096119723
 H    0.7637184710    1.4870286164    2.3666851324
 H   -0.2569926237    2.8252344496    3.0020067790