22

 C   -0.5824946012    0.9542014955    0.7482875262
 C   -0.0286569757   -0.4421895904    0.4513709931
 N   -1.0666408298   -1.4470072437    0.2894415647
 C   -1.4994774495   -1.8622199314   -0.9353624792
 O   -1.0162078155   -1.4651654812   -1.9818803198
 C   -2.6617227786   -2.8615615442   -0.9253671128
 C   -2.8494594948   -3.6902521797    0.3274840365
 C   -3.6842095470   -3.1772150824    1.4854755801
 C   -4.1883433449   -4.3102622348    0.6277239171
 H    0.2348920789    1.6721234934    0.8713613304
 H   -1.2189214979    1.2955561919   -0.0729838008
 H   -1.1771395947    0.9604601339    1.6683388860
 H    0.5362995256   -0.4331522500   -0.4831712788
 H    0.6482912729   -0.7606498627    1.2528377763
 H   -1.5572807078   -1.7802244312    1.1034741604
 H   -3.5755177790   -2.2875137787   -1.1295551844
 H   -2.5095394369   -3.5026105654   -1.7992713907
 H   -1.9851642121   -4.2892045358    0.6028107875
 H   -3.3668793205   -3.4027047379    2.4980593311
 H   -4.1664855564   -2.2107009076    1.3758684347
 H   -5.0053064058   -4.1011102053   -0.0548949217
 H   -4.2103961693   -5.3065668123    1.0545212940