15

 C   -0.0008817561    1.4841309778   -0.0298590583
 N   -0.0091373325    0.0410611842    0.0296116907
 C   -0.0588036761   -0.8384689651   -1.0424717521
 N   -0.0544497464   -2.1097212891   -0.7351499336
 C    0.0027891120   -2.0955976388    0.6457075803
 N    0.0366844441   -3.0088698038    1.6161208146
 N    0.0873404248   -2.2394792896    2.7264098907
 C    0.0875200575   -0.8831270357    2.5156026906
 C    0.0322071060   -0.7700214308    1.1447241484
 H    0.9117316142    1.8925226970    0.4182703218
 H   -0.0427379754    1.7967081770   -1.0754680336
 H   -0.8663048272    1.9056693156    0.4933795804
 H   -0.0979211220   -0.4476970535   -2.0510878079
 H    0.1217145283   -2.6993282685    3.6202112121
 H    0.1258840189   -0.1845346368    3.3341582358