23

 C   -0.0145618361    1.5605579523    0.0402188375
 C   -0.0324993548    0.0309669457   -0.0307693848
 C    0.7591164095   -0.5211771885   -1.2218905035
 C    0.7640333760   -2.0478074176   -1.3126849111
 C   -0.6173141155   -2.6966141137   -1.6786774452
 C   -0.1784745109   -3.3870311748   -2.9859819622
 C    1.1496919773   -4.0793037910   -2.6105950570
 C    1.5407443622   -2.5882853010   -2.5392702854
 O    0.6047760075   -2.3352132569   -3.6371124855
 H    1.0091873516    1.9403565628    0.1318958265
 H   -0.4492955009    2.0028318514   -0.8630270466
 H   -0.5843445421    1.9289462977    0.8991673018
 H    0.3776198014   -0.3840879203    0.8999583077
 H   -1.0712023108   -0.3193140821   -0.0846026885
 H    0.3557083885   -0.1181209536   -2.1591432045
 H    1.7967866087   -0.1641457557   -1.1532223350
 H    1.1703976220   -2.4693006373   -0.3855442833
 H   -0.9891252668   -3.3982323004   -0.9271015405
 H   -1.3917174951   -1.9493719143   -1.8694827882
 H   -0.9347076769   -3.8397931489   -3.6274347259
 H    1.1991118736   -4.6912194195   -1.7056428961
 H    1.6052539493   -4.5822300365   -3.4640159811
 H    2.5505522522   -2.2184778075   -2.7219954193