19

 C    0.0065399786    1.6053563914   -0.0114212176
 C   -0.1046728509    0.0773684774   -0.0314231456
 C    0.6764192554   -0.5457079945   -1.1797111540
 O    2.0869248742   -0.2726516424   -1.0673862427
 C    2.7076409762   -1.5708031480   -1.2403931770
 O    1.8517123262   -2.2311687835   -2.1438018379
 C    0.6843748847   -2.1111645578   -1.3046467450
 C    1.1865124508   -2.6708013974    0.0179191535
 C    2.4778273211   -2.3374837163    0.0604133877
 H    1.0520034757    1.9104859174    0.0834291989
 H   -0.3880077799    2.0439738396   -0.9346768079
 H   -0.5538281668    2.0301042182    0.8267833249
 H    0.2621680129   -0.3342184532    0.9143897177
 H   -1.1580040065   -0.2192126837   -0.1277443428
 H    0.3267225908   -0.1407735380   -2.1390337510
 H    3.7142099647   -1.4464843276   -1.6337361449
 H   -0.1905059344   -2.5584024108   -1.7716242532
 H    0.5725779184   -3.1191922471    0.7861516583
 H    3.1901660888   -2.4440050439    0.8661759184