21

 C    0.0050258664    1.5242940038    0.0063470884
 C    0.0192267538    0.0080415353    0.0155354873
 C   -1.1899205749   -0.6260060572   -0.6543924818
 C    1.3020780510   -0.8024863901   -0.1815117598
 C    2.4703822717   -0.1421226851    0.5298149394
 O    1.7079781790   -0.0292965512    1.7655926880
 C    0.6085981743   -0.7561992077    1.1704966635
 C   -0.0116452655   -1.7577530262    2.0933793238
 O    0.9570703126   -2.6321589918    2.6431553443
 H    0.7968465069    1.9388787074    0.6327238395
 H    0.1218956524    1.9122525109   -1.0119307944
 H   -0.9498188035    1.8972798389    0.3940323641
 H   -1.2615089692   -0.2946031340   -1.6965715787
 H   -1.1348049049   -1.7185890024   -0.6611774137
 H   -2.1188988892   -0.3372153260   -0.1503439893
 H    1.3726191732   -1.6068452294   -0.9022728008
 H    3.3288336567   -0.8073841552    0.6718736730
 H    2.8143800778    0.8333823626    0.1674789719
 H   -0.5528893640   -1.2161036289    2.8883136032
 H   -0.7420092035   -2.3729132069    1.5613464106
 H    1.6720086388   -2.0626699866    2.9525009714