20

 C    0.0622017636    1.5129385531   -0.0241631033
 N    1.2837860816    0.6795058816    0.0351340454
 C   -0.0398244411    0.0416497922    0.0157187548
 C   -0.4741307762   -0.8048814290    1.2285034672
 C   -1.1665278074   -2.0109565023    0.5428669951
 C   -2.4469516228   -1.4926758043   -0.1320587529
 O   -1.9645735936   -0.6821790539   -1.2231220050
 C   -0.5315073214   -0.7698384364   -1.1812854626
 C   -0.2817022664   -2.2090471417   -0.7106690027
 H   -0.1319683493    2.0959314133    0.8724174182
 H   -0.1834344864    2.0201240217   -0.9542570417
 H    1.7128726073    0.6342352146   -0.8875679143
 H    0.4040614509   -1.1148827995    1.8020825617
 H   -1.1481571698   -0.2678332390    1.9028337555
 H   -1.3198416560   -2.8791559955    1.1843764380
 H   -3.0695504786   -2.3045416414   -0.5305898014
 H   -3.0620710572   -0.8796096567    0.5378090817
 H   -0.1390731335   -0.4587187668   -2.1516401324
 H    0.7655232419   -2.4146702397   -0.4748870862
 H   -0.6631734255   -2.9570090204   -1.4099446551