22

 C   -0.2692643587    1.4763833033   -0.1105154552
 C    0.0308317896   -0.0217667325    0.0024113534
 C    0.7993553905   -0.4697147158    1.2587670266
 C    0.9122035934   -2.0046287931    1.2939345589
 C    1.5429303828   -2.6092814587    2.5524469812
 C    2.0954873537    0.3191543399    1.5868262111
 O    1.4807181509    0.8409791028    2.8075858499
 C    0.3103727207    0.1591719284    2.5578391378
 N   -0.7602829758    0.1096126461    3.2105444522
 H    0.6404833903    2.0833711981   -0.1591650421
 H   -0.8406582385    1.6772458096   -1.0215744015
 H   -0.8633121721    1.8230287125    0.7398381165
 H   -0.9168715023   -0.5723519622   -0.0130588919
 H    0.5950633231   -0.3568849849   -0.8779192569
 H   -0.1003100920   -2.4085673275    1.1792042791
 H    1.4726079292   -2.3237480639    0.4052468765
 H    2.5802004441   -2.2900351316    2.6960013298
 H    0.9764735432   -2.3338815791    3.4465468934
 H    1.5476999089   -3.7010538422    2.4826499328
 H    2.9817415115   -0.2741281780    1.8220282489
 H    2.3574939328    1.1323757785    0.9065671123
 H   -0.7097934855    0.6822249003    4.0553174672