16

 N   -0.0677796107    1.5199007568    0.0313216510
 C   -0.0492245027    0.1103623215   -0.0256354375
 C    0.6491736217   -0.8225439399   -1.0362136677
 N   -0.4364045711   -1.8511731920   -0.8553636163
 C   -1.1981945015   -0.8999072651   -0.0266203526
 C   -0.3528666567   -0.7323754505    1.2224548964
 O    0.4820165345   -1.7614979928    1.6388501014
 C   -0.9675453798   -0.0213909099    2.3195312794
 N   -1.4502659931    0.5323787684    3.2118948118
 H    0.7501710205    1.9025042146    0.4930174938
 H   -0.1611445241    1.9464966464   -0.8834829294
 H    0.6474953972   -0.3874171751   -2.0405643933
 H    1.6514391018   -1.1848244384   -0.7892278182
 H   -0.9102129477   -2.0685306394   -1.7242395967
 H   -2.2771004635   -0.8093077736   -0.0473864607
 H    0.3381731352   -2.4734395212    0.9913037786