18

 C    0.2224731696    1.3090073879   -0.1650240491
 N   -0.2083969778   -0.0230913807    0.2048083154
 C    0.5567902181   -0.6945005822    0.9388711785
 O    0.2010270293   -1.9465395312    1.3257082797
 C    1.1352074637   -2.6397584310    2.1165733691
 C    0.7465125899   -4.0954918950    2.4793092558
 C    2.1916521666   -4.5747105548    2.1373419158
 C    2.3963397219   -3.2248229442    1.4293098379
 O    3.1245260119   -2.8159578197    0.5749358931
 H    1.2012971586    1.5966492360    0.2518901808
 H    0.2785984858    1.3852634801   -1.2566954820
 H   -0.5227964466    2.0407578576    0.1669956198
 H    1.5311509629   -0.3591905443    1.3216122164
 H    1.4187911650   -2.0587400164    3.0067498860
 H    0.3941244641   -4.2615833937    3.4967284246
 H    0.0102379519   -4.4755294386    1.7689574072
 H    2.8382748920   -4.6765675985    3.0145682735
 H    2.3059677433   -5.4631625313    1.5134476676