17

 O   -0.1156970094    0.1263725752    0.7908557725
 C   -0.0108300586    1.0240677169   -0.0052740957
 C    1.1957661841    1.9385471915   -0.0660411484
 C    1.0348621165    3.2437739089   -0.9541029629
 C    0.7264768313    3.9465102023    0.3723426066
 C    0.7248603142    4.9288192602    1.5689036109
 C    0.2544834301    3.4838023180    2.0352183510
 O   -0.6083157374    3.4379717211    0.8559944950
 C    1.4048770493    2.8582938151    1.2044494108
 H   -0.7912656768    1.2167960312   -0.7727516970
 H    2.0805589006    1.3382933307   -0.2933488480
 H    1.9846426271    3.5525170146   -1.3958539744
 H    0.2458728000    3.2567480063   -1.7109834563
 H    1.6968019889    5.2931342392    1.9099397499
 H   -0.0559795378    5.6898741077    1.5994300430
 H   -0.1844247648    3.2041668927    2.9955177538
 H    2.4345319129    2.9913138683    1.5362773492