20

 C   -0.1329649446    1.5440604435    0.0919435207
 C   -0.0070687444    0.0204081749    0.0197933905
 C    0.7324813049   -0.5765275620    1.2215681330
 C    0.8392348685   -2.0967065946    1.1717797336
 C    1.5643002439   -2.7286831432    2.3780079820
 O    0.8362004592   -3.9215326113    2.6239470775
 C   -0.4917941932   -3.5847548774    2.3189193429
 O   -0.4578881874   -2.7122848442    1.2083245674
 H    0.8515516898    2.0243733757    0.1273983425
 H   -0.6652118241    1.9409995455   -0.7780157342
 H   -0.6828764498    1.8540621152    0.9876111581
 H   -1.0010536403   -0.4361155233   -0.0397084041
 H    0.5169122948   -0.2626709519   -0.9028356132
 H    1.7483433599   -0.1594944829    1.2788065203
 H    0.2231562455   -0.2908303925    2.1516873495
 H    1.3218741252   -2.4029707797    0.2329325702
 H    2.6043381763   -2.9926854947    2.1767480088
 H    1.5267112246   -2.0574464498    3.2511948848
 H   -1.0385730713   -4.4965079242    2.0581818934
 H   -0.9772208876   -3.0867421130    3.1790057364