15

 N    0.6781305835   -0.1755033099   -0.5690113322
 C   -0.2183698409    0.3923960061    0.2687803895
 O   -0.0962537969    1.4746810424    0.8051936308
 C   -1.4786120026   -0.4534256095    0.5386886642
 O   -1.5023693286   -1.6835199212   -0.1948661312
 C   -1.6124379327   -2.7504533498    0.6850363019
 N   -1.6649681761   -3.9657324942    0.3424275099
 C   -1.6503641639   -2.1994752452    2.0442057401
 C   -1.5742395557   -0.8707900707    1.9797725295
 H    1.5166338916    0.3305481936   -0.8010328701
 H    0.4765816175   -1.0573878444   -1.0078704126
 H   -2.3351097703    0.1604954480    0.2310510230
 H   -1.6221855576   -4.0622171905   -0.6728507804
 H   -1.7250371042   -2.8296441291    2.9174754609
 H   -1.5595776230   -0.1503468957    2.7845948266