19

 O   -0.2659999455    0.3660975046   -0.8742594937
 C    0.2015182457    0.9039454139    0.0945198670
 C    1.2121866817    2.0439474555    0.0669608604
 C    1.3628456181    2.6262498411   -1.3480051791
 C    2.5533820566    3.5290588891   -1.5361050562
 C    2.9732758428    4.5135522260   -0.7431963510
 C    2.3882648665    5.0439161208    0.5369004639
 C    1.3528552834    4.2765691650    1.3105337689
 C    0.8766331814    3.0435648393    1.1482874665
 H   -0.0753430813    0.5701250848    1.1227309473
 H    2.1639014063    1.5534625897    0.3402942514
 H    1.4191268383    1.7906433245   -2.0506190177
 H    0.4370027539    3.1590488208   -1.6004877922
 H    3.1251726046    3.3529417352   -2.4448753261
 H    3.8531727450    5.0679977973   -1.0663822039
 H    3.2177028637    5.2548284319    1.2317444284
 H    1.9802865905    6.0473344428    0.3276149972
 H    0.9713544240    4.8346293321    2.1647838757
 H    0.1518322043    2.6980075456    1.8851797032