17

 O   -0.6445539772    0.7766095222   -0.7271767704
 C    0.2484565082    0.8252329683    0.0792738332
 C    1.3848535236    1.8144164197    0.0297218295
 C    1.3841470359    2.9140190909    1.1336999445
 C    2.9043253546    2.6348194164    1.0825313330
 O    2.6064635609    1.2774570102    0.6123417019
 C    3.5214169741    3.4106553806   -0.0625152718
 C    2.9214426729    3.2811240151   -1.2458025830
 C    1.6986817366    2.3948032915   -1.3567004246
 H    0.2959846379    0.1460747309    0.9595024946
 H    1.0216106173    3.9096100103    0.8762178884
 H    0.9252911668    2.5498532656    2.0555750654
 H    3.4875765876    2.6332316088    2.0046066841
 H    4.3954694041    4.0316250337    0.0986181512
 H    3.2822251100    3.7802414016   -2.1400271555
 H    1.8746859042    1.5765377068   -2.0661042860
 H    0.8328765124    2.9476049275   -1.7392640544