14

 N   -0.0677685857    1.2536832833    0.0076207837
 C   -0.0260621373   -0.0022593035   -0.0014723826
 O    1.0965048419   -0.8049853606    0.0060971743
 C    0.5584640026   -2.1580380130    0.0212002416
 O   -0.6126214021   -2.0629857770   -0.7391110930
 C   -1.1957751236   -0.9848621884    0.0094195180
 C   -1.1785157378   -1.5451129862    1.4505548854
 O   -1.2464458037   -2.9670750713    1.5130298958
 C    0.0409826955   -2.3554200292    1.4603090237
 H    0.8714516619    1.6552946387    0.0223414578
 H    1.2787574229   -2.8475525313   -0.4112618925
 H   -2.1300380180   -0.6451956781   -0.4256670541
 H   -1.5528389015   -0.9738735184    2.2917024881
 H    0.7080780349   -2.4794105250    2.3052025838