16

 C    0.0221169698    1.4621798087    0.0572420327
 C   -0.0696233076   -0.0307742551   -0.1173187625
 C    0.8270785374   -0.7784770569   -1.1425664567
 N    0.5333374653   -2.2291780557   -0.8768966150
 C   -0.5249692397   -2.1375360080   -0.1900605801
 O   -0.5451424548   -2.3726058551    1.1969163931
 C   -0.6904833137   -0.8853296440    1.2011197765
 C   -1.3380779495   -0.7776779500   -0.1002173234
 O   -2.5647453005   -0.4028834301   -0.5813695337
 H    1.0163849245    1.7588127439    0.4069923198
 H   -0.1631437310    1.9703055524   -0.8961247404
 H   -0.7185826066    1.8336463290    0.7717312157
 H    0.6392577873   -0.4286289431   -2.1695289909
 H    1.8970850171   -0.6680443459   -0.9378955179
 H   -0.8163061660   -0.4328276764    2.1775638217
 H   -3.2420885518   -0.9545275337   -0.1718851090