16

 C    0.0285280245    1.4988035794    0.0196451816
 C    0.0203593266    0.0058927015   -0.0192102282
 C    0.0684241544   -0.8230320066   -1.1091684649
 N    0.0328003157   -2.1125685893   -0.6069609163
 C    0.0669131801   -3.3433209255   -1.3647156268
 C    1.3671140034   -3.5965643440   -2.0048932529
 N    2.3796698724   -3.7995207756   -2.5211900961
 C   -0.0291518514   -1.9964058900    0.7541904405
 N   -0.0435100259   -0.7463086039    1.1392440006
 H    0.8855188114    1.8695820919    0.5916851600
 H    0.0811037861    1.9198222256   -0.9877972163
 H   -0.8739559213    1.8831562306    0.5065313801
 H    0.1302109426   -0.6311432826   -2.1679093046
 H   -0.1618986816   -4.1729121873   -0.6893452325
 H   -0.7072795811   -3.3357241817   -2.1403600103
 H   -0.0664112561   -2.8653456325    1.3959686261