19

 C    0.1885003841    1.6607238575   -0.1245580731
 C    1.6830930634    1.3203409770   -0.0918851663
 O    1.9389731790    0.6447148959    1.1497050806
 C    1.4133009439   -0.1153393532    0.0559818016
 C   -0.1209334702    0.1321485923    0.0527292083
 C   -0.9209557601   -0.3712579672    1.2511871609
 C   -1.4510680446   -1.7188704421    0.7416257103
 C   -1.7040714023   -1.4055307117   -0.7374461391
 O   -0.7439949707   -0.4099620953   -1.1054296866
 H   -0.1630984037    2.3430190360    0.6537213515
 H   -0.1553433912    1.9916772451   -1.1069116622
 H    2.5164608643    1.8386566798   -0.5507541152
 H    1.9635955888   -0.9888851014   -0.2763504159
 H   -0.3060297781   -0.4358455835    2.1502924798
 H   -1.7509007953    0.3146041383    1.4575551291
 H   -0.6851734741   -2.4951741259    0.8434482456
 H   -2.3491982610   -2.0624452815    1.2600654375
 H   -1.5795437375   -2.2724989179   -1.3946899374
 H   -2.7172447548   -1.0060552221   -0.8908701894