18

 C    0.1643460095    1.4037448649    0.0707733900
 C    0.0526800052   -0.0456528910    0.0045814192
 C   -0.0465540007   -1.2431332696   -0.0458121265
 C   -0.1458203544   -2.7029722427   -0.1256588603
 C   -1.5569664209   -3.1304175587   -0.2026200737
 N   -2.6548847413   -3.4823955114   -0.2719861979
 C    0.6502344930   -3.2818419759   -1.2985272543
 C    2.1210731601   -3.5425761897   -1.1254551491
 C    1.1543074822   -4.6976491126   -1.2276525007
 H    0.8811439261    1.7798771653   -0.6670081669
 H   -0.8010356637    1.8811111398   -0.1280890055
 H    0.5007726940    1.7305353603    1.0604919043
 H    0.2596749228   -3.1379373644    0.7995566892
 H    0.3186390251   -2.9162865181   -2.2642984856
 H    2.7763139718   -3.3362832347   -1.9637586302
 H    2.5620123903   -3.3327582537   -0.1565136806
 H    0.9460782064   -5.2668966775   -0.3276240438
 H    1.1414479244   -5.2881864004   -2.1362558577