18

 C   -0.2143648322    1.5168666156    0.0099509514
 C    0.0258024572    0.0252981972    0.0298412782
 C    1.3763223651   -0.5701147288   -0.2333968177
 O    2.4482126973    0.3244374219   -0.3969685408
 C    3.2578266321    0.3679462654    0.7363491815
 O    2.5572635030    0.8571992800    1.8771527472
 C    1.4384652762    0.1426790006    2.2374090160
 N    0.9651880095    0.1885975406    3.4093760775
 C    0.7982752599   -0.6625492152    1.1620383209
 H    0.6783798659    2.0695991259    0.3066873931
 H   -0.4933085844    1.8448543417   -0.9966925323
 H   -1.0266121248    1.7846896993    0.6923768443
 H   -0.8049372267   -0.5729613975   -0.3345108099
 H    1.4681790915   -1.4681219952   -0.8394547937
 H    3.6699039579   -0.6257986612    0.9680761517
 H    4.0592856872    1.0819917524    0.5438576102
 H    1.5535379584    0.7801190468    4.0001799543
 H    0.4046765670   -1.6093095692    1.5091105781