19

 C   -0.7420605234    0.8783837580    0.3092241876
 O    0.0821355722   -0.2389227159    0.0742301679
 C    0.8644300520   -0.1452864751   -1.1156740204
 C    1.8017688186   -1.3647837320   -1.1680206915
 C    1.0885587896   -2.4034001163   -2.0849779036
 C    0.1393424935   -1.5243947007   -2.8867336302
 C    0.0337786303   -0.3009214090   -2.3765462650
 C    1.9994894285   -3.1946821468   -2.9041705254
 C    2.7519172651   -3.8415977999   -3.5829974626
 H   -0.1617141139    1.8151170224    0.3294172095
 H   -1.5362912032    0.9829128817   -0.4446773979
 H   -1.2095615148    0.7349480765    1.2866872525
 H    1.4215154753    0.8048182245   -1.0917647101
 H    2.7508050764   -1.0808971409   -1.6284166660
 H    2.0029566653   -1.7467762943   -0.1659737250
 H    0.4931033582   -3.0961500055   -1.4725322766
 H   -0.3841492073   -1.9040316016   -3.7565945352
 H   -0.6035098771    0.4835790317   -2.7675964131
 H    3.4154197245   -4.4156621268   -4.1808216248