15

 O    1.2455942243    1.0758961396   -0.0930985001
 C    0.5543639416   -0.0838962824   -0.0430603291
 N    0.5804718852   -0.9659173034   -1.0288529226
 N   -0.2289830558   -1.9613789403   -0.5843205357
 C   -0.7460252089   -1.7118493112    0.6399722766
 C   -0.2602473900   -0.4850972807    1.0423786549
 C   -0.5094727061    0.2777427357    2.3153492755
 C   -1.4031078190   -0.4091426742    3.2424430241
 C   -2.1398700299   -0.9836790328    3.9982924670
 H    1.7127687355    1.0936560127   -0.9377045227
 H   -0.3760304033   -2.7651359835   -1.1678987860
 H   -1.4089768698   -2.3996919887    1.1397403146
 H    0.4454072706    0.4818175071    2.8192524165
 H   -0.9250822659    1.2673238743    2.0801126251
 H   -2.7891323985   -1.4779204822    4.6776131422