12

 O   -0.0615296421   -0.0533131389   -0.0019545419
 C   -0.0439932922    1.1436105806    0.0078943187
 N    1.1440063262    1.8961956329    0.0008521648
 C    2.4372646645    1.3947210968   -0.0179123502
 N    3.3257206608    2.3422535537   -0.0198929440
 C    2.5970786248    3.5301529709   -0.0017449218
 C    1.2534322910    3.2738581171    0.0111462296
 C    3.2209617796    4.8063538372    0.0019822953
 N    3.7063757166    5.8566602697    0.0053615263
 H   -0.9395119809    1.7876386706    0.0233359988
 H    2.6205989048    0.3322321683   -0.0288925354
 H    0.3939008569    3.9224722310    0.0262242898