17

 C    0.1081521095    1.5673466046   -0.0508649401
 C    0.0833249751    0.0406052424   -0.0114285810
 N    0.6950669346   -0.5236029274   -1.2126920241
 C    0.7852774354   -1.9720335582   -1.1208155300
 C    1.7787001515   -2.2794859295   -0.0175860430
 O    1.4327851359   -1.6456625035    1.2258883437
 C    0.7514847527   -0.4782240792    1.2696195128
 O    0.6187243891    0.0803695238    2.3249133644
 H    1.1337629637    1.9272853798   -0.1675560629
 H   -0.4834463543    1.9328715822   -0.8965807546
 H   -0.3067287536    1.9719534708    0.8727011190
 H   -0.9702936216   -0.2889504043    0.1010483938
 H    0.1619105200   -0.2400818759   -2.0274979640
 H   -0.1826221005   -2.4606214882   -0.9008232318
 H    1.1612688241   -2.3827439919   -2.0631505877
 H    1.8256370963   -3.3495287322    0.2007124819
 H    2.7755645020   -1.9304098832   -0.3084730063