16

 O   -0.0462561388    1.4900902475   -0.0998939425
 C    0.0028586491    0.0826172861   -0.0135301950
 C    0.2091339607   -0.4442430999    1.4417473229
 C   -1.3410719493   -0.5193931256    1.6052681106
 C   -1.4536977550   -0.4485330900    0.0509044150
 C   -1.8736666134   -1.7677354102    2.2548093013
 O   -2.6303731689   -1.7942991396    3.1891218390
 C    0.8873865552   -0.4804647679   -1.0425469251
 N    1.6038686441   -0.9229094349   -1.8345385693
 H    0.8475484306    1.8376503733    0.0036598117
 H    0.6746341275   -1.4339782294    1.4555254042
 H    0.7515860334    0.2241054561    2.1125703470
 H   -1.7578001112    0.3577430995    2.0999124227
 H   -2.1988300412    0.2262804555   -0.3702533859
 H   -1.5471223365   -1.4379442414   -0.4037713994
 H   -1.4984202762   -2.7114798292    1.7884117229