25

 C    0.0996380457    1.5842452733   -0.1623787692
 C    0.0075017846    0.0659604799    0.0103690602
 C   -1.4171525798   -0.4774144574   -0.1726958697
 C   -1.4875989879   -1.9947826067   -0.0537611440
 C   -1.4381130534   -2.7355764863    1.3227493309
 C   -2.9113697222   -2.3038026694    1.5654514090
 C   -2.8531709772   -2.7620408847    0.0717318299
 C   -3.9824818952   -2.7858025718   -0.9249949383
 C   -2.0121742088   -3.9744706202    0.5811229427
 H    1.1253990618    1.9416693995   -0.0271349184
 H   -0.2302446764    1.8895369197   -1.1618901657
 H   -0.5327286203    2.1051231130    0.5654172280
 H    0.6770247959   -0.4260870783   -0.7075808091
 H    0.3752047230   -0.2136278749    1.0060432487
 H   -2.0814723103    0.0163278943    0.5455778669
 H   -1.7828619659   -0.1871125591   -1.1683030709
 H   -0.8189100132   -2.4433390585   -0.8015252439
 H   -0.6234007100   -2.7290835788    2.0483214012
 H   -3.4951083606   -2.9401279683    2.2377023771
 H   -3.1101847542   -1.2500126830    1.7678808891
 H   -4.3801438289   -1.7794743450   -1.0981902894
 H   -3.6488497960   -3.1842819745   -1.8898386874
 H   -4.8077594827   -3.4136848980   -0.5710167790
 H   -1.3585532738   -4.4596796665   -0.1504857254
 H   -2.5410788044   -4.7092992083    1.1953885169