23

 C   -0.2924467819    1.6380706903   -0.1138882857
 C    0.0736279211    0.1536906991    0.0189097930
 N    0.7092181895   -0.4257443393   -1.1599197778
 C    2.1518193395   -0.7236391961   -1.1355147570
 C    2.9975019605    0.5214491105   -0.8412850835
 C    2.4767734211   -1.8786734195   -0.1780420922
 C    0.0152300950   -0.7313074366   -2.3131800818
 N   -1.3516357833   -0.4645802962   -2.2925066122
 O    0.5456740485   -1.1686325044   -3.3234273790
 H    0.6010647997    2.2421756398   -0.2911315062
 H   -0.9810273563    1.7990624662   -0.9465312502
 H   -0.7700825869    1.9931213713    0.8056086160
 H    0.7633674586    0.0242825542    0.8568964812
 H   -0.8162816470   -0.4295667203    0.2959526283
 H    2.3685209286   -1.0523530996   -2.1526887124
 H    4.0610979594    0.2738364616   -0.9152372318
 H    2.7830209400    1.3176560343   -1.5596078335
 H    2.8246606627    0.9113090197    0.1683624723
 H    1.8955562253   -2.7684309422   -0.4359827725
 H    3.5391507919   -2.1344282499   -0.2434558644
 H    2.2672585883   -1.6229653994    0.8671410716
 H   -1.8534295951   -0.5255142869   -1.4209680755
 H   -1.8188403893   -0.9050499665   -3.0702996366