21

 C    0.4121518098    1.4436935157    0.2252885067
 C   -0.0297605043    0.0065826509   -0.0542108793
 C    0.6270971328   -0.6179566597   -1.3031632815
 C    1.8087371120   -1.4118343094   -0.7492936561
 C    2.2593255398   -2.5993551303   -1.5763616807
 O    2.9381508654   -0.5500962575   -0.4014165020
 C    2.8042179587   -0.8614028989    1.0043252598
 C    1.4755919812   -1.6000640666    0.7551624627
 O    0.2986856439   -0.8795657294    1.0344097868
 H    1.4997891993    1.5394944344    0.1826610427
 H   -0.0158667838    2.1173733483   -0.5253935215
 H    0.0600826111    1.7623910046    1.2104136147
 H   -1.1223911865   -0.0177506408   -0.1295764934
 H   -0.0676806965   -1.2979024888   -1.8062673768
 H    0.9581963050    0.1321718458   -2.0258191580
 H    2.6289781043   -2.2657721322   -2.5514995494
 H    3.0710421601   -3.1355936870   -1.0760087059
 H    1.4316943142   -3.2965256212   -1.7428898242
 H    3.6245890833   -1.5007701921    1.3557008777
 H    2.7368392056    0.0316495399    1.6335598697
 H    1.3780556346   -2.6068752656    1.1680158780