19

 C    0.4796759449    1.3384595669    0.1243408230
 C   -0.2435026221    0.0129944275   -0.0351735468
 O   -0.8997807337   -0.4671869403    0.8676664089
 C   -0.1029628695   -0.6826995207   -1.3391406195
 C   -1.1398302322   -1.6961175336   -1.7738397237
 C    0.2299509101   -2.1971280988   -1.4921096438
 C    1.1818309213   -1.8699973795   -2.6360776463
 O    0.8690236969   -2.5526411958   -3.8290776403
 C    0.8099636764   -0.3469806594   -2.5256488293
 H    1.5636842112    1.1946866500    0.0474777154
 H    0.1953177519    2.0344843906   -0.6727534010
 H    0.2401866825    1.7677955597    1.0975933279
 H   -1.8767046203   -1.9189705876   -1.0111867204
 H   -1.5051931564   -1.6604006093   -2.7956065225
 H    0.4289648792   -2.8904419325   -0.6846880231
 H    2.2272506151   -2.0364475880   -2.3453287919
 H    1.4941623092   -2.2778621392   -4.5075775044
 H    0.3049853204    0.0704772948   -3.4027855403
 H    1.6694294352    0.2785745152   -2.2752417919