15

 C   -0.0372736756    1.5478522672    0.0078252371
 C   -0.0416777562    0.0116293182   -0.0043876707
 N    0.5533272010   -0.4832076049    1.2493148646
 C   -1.4970939898   -0.5346371700   -0.0382547351
 O   -2.2016287951   -0.1266684976    1.1052432454
 C    0.6819460801   -0.4856692029   -1.1939435249
 N    1.2518637126   -0.9083977493   -2.1071686996
 H    0.9806197588    1.9353095420    0.1092173053
 H   -0.4593118650    1.9388577537   -0.9207487449
 H   -0.6441261058    1.8940831146    0.8459474387
 H    0.7641794001   -1.4747349999    1.1744144903
 H    1.4303708154   -0.0087709569    1.4402888171
 H   -2.0219360286   -0.1453033514   -0.9152413349
 H   -1.4559602503   -1.6322821934   -0.1304960897
 H   -1.6074852817   -0.3033842393    1.8491442714