16

 O   -0.0062626409    1.3837131800   -0.0737202965
 C    0.0173421477   -0.0280554592   -0.0111692603
 C    0.9823997428   -0.5548357838   -0.9697341926
 C    1.8204491444   -0.9172787874   -1.7531740402
 C   -0.0551566564   -0.7053148082    1.4111108681
 C   -1.4853489179   -0.0993784481    1.5314982342
 C   -1.3992318342   -0.6742686931    0.0830021603
 C   -0.7151730535   -1.9245732511    0.7075407504
 H    0.9009465145    1.6876366290   -0.1785527072
 H    2.5476384341   -1.2510209607   -2.4517954815
 H    0.7356732168   -0.7172038449    2.1625050869
 H   -2.1637422303   -0.6267374237    2.2056760012
 H   -1.5604536868    0.9810574020    1.6327643499
 H   -2.1616468036   -0.6478529195   -0.6960663179
 H   -0.0866773547   -2.5322794321    0.0550134756
 H   -1.3570455920   -2.5396002292    1.3407994496