20

 C   -0.0249878610    1.4296243801   -0.1784151806
 C   -0.0220237852   -0.0483571647    0.1193634203
 N   -0.0585913704   -0.6279723544    1.2475853711
 O    0.0279723623   -0.7438887958   -1.0417165970
 C    0.0400771672   -2.1449673082   -0.9991718958
 C   -1.0542358174   -3.1096071567   -0.4645086850
 C    0.0618796674   -3.9928396649   -1.0986891306
 C    0.0966399363   -2.9867065038   -2.2896307757
 C    1.1099035851   -3.0884470982   -0.3833357745
 H    0.8749036542    1.7019824246   -0.7383241546
 H   -0.8845931514    1.6851232586   -0.8054851511
 H   -0.0655995931    2.0146977462    0.7416515789
 H   -0.0931692694    0.0613139433    1.9954701909
 H   -1.1703491153   -3.1550388088    0.6176488420
 H   -2.0142540329   -3.0911924054   -0.9876510007
 H    0.0749865768   -5.0775800882   -1.1652517471
 H   -0.7864119003   -2.9559838454   -2.9332730744
 H    1.0245934942   -2.9382609636   -2.8654301011
 H    2.1058692028   -3.0509105568   -0.8331072212
 H    1.1455082000   -3.1323902877    0.7045098961