18

 C   -0.0534716450    1.5108218700    0.1470068550
 C    1.4913142569    1.4383784668   -0.0327818074
 C    2.1059617154    1.1407443180    1.3331375033
 O    1.3452488010    0.1149136628    1.9764336022
 C    0.7929940554   -0.7786593989    1.0217856463
 C    1.8276955080   -1.1544403113   -0.0756296559
 C    1.3147275517    0.0827094946   -0.8353752838
 C   -0.0472249051   -0.0068342966   -0.0781281777
 H   -0.4297524210    1.8984046909    1.0984133542
 H   -0.5444195210    2.0300166749   -0.6808270450
 H    2.0030154249    2.2626875586   -0.5342609079
 H    3.1590338946    0.8370437863    1.2356985584
 H    2.0689763339    2.0177876315    1.9887385534
 H    0.3006594633   -1.5720597733    1.5860889643
 H    2.8776385916   -1.2326007952    0.2222253771
 H    1.5362278462   -2.0716875104   -0.5964458549
 H    1.4031371029    0.1615920071   -1.9199386661
 H   -0.9196306436   -0.5399776260   -0.4603199055