16

 C   -0.0398456305    1.4511756824   -0.0077198398
 C   -0.0079326440   -0.0373627154    0.0027045957
 N   -0.0037409851   -0.7581549353   -1.0943499071
 N    0.0290326637   -2.0416347200   -0.6104490427
 C    0.0445883802   -3.1639961278   -1.4500768815
 O    0.0314090154   -3.1245191668   -2.6456830740
 C    0.0424875611   -2.0119245255    0.7702714621
 C    0.0774127201   -3.2139804119    1.6535577318
 N    0.0198386813   -0.7700241714    1.1765384364
 H    0.8403665458    1.8553203179    0.5020635476
 H   -0.0629498147    1.8207445852   -1.0335595758
 H   -0.9206973194    1.8176651437    0.5286143923
 H    0.0707851540   -4.0955782095   -0.8583816046
 H    0.9737286604   -3.8188677546    1.4826855945
 H    0.0807004927   -2.8719091720    2.6887935357
 H   -0.7954041610   -3.8569026191    1.5008762696