17

 O    0.3560351848    0.9655133337    1.0534937925
 C    0.1094968242    0.0686323226   -0.0270409738
 C   -1.2769880475   -0.5311226141    0.0237998088
 C   -1.5843851750   -1.9824484825   -0.2125994429
 C   -0.4676846806   -2.9617195776   -0.1050511182
 C    0.0342432498   -2.9526909172    1.1306809625
 C   -0.7155508642   -1.9672247619    1.9988634532
 N   -1.7623280786   -1.3738052290    1.1286699604
 H   -0.3582510259    1.6110393517    1.0710338695
 H    0.2361909850    0.5753053064   -0.9970150306
 H    0.8822310292   -0.6978845160    0.0462442269
 H   -2.0514108649    0.1703326857   -0.2936348593
 H   -2.4797793415   -2.2508078681   -0.7693391675
 H   -0.1362019490   -3.5777251815   -0.9317157884
 H    0.8736046424   -3.5396850866    1.4856007664
 H   -1.2028674507   -2.4609839325    2.8499086159
 H   -0.0731211078   -1.1778777929    2.4055896544