15

 O    0.0876086769    1.4408198927    0.0440206349
 C    0.0521786005    0.0370888435    0.0514721728
 C   -1.4026606716   -0.5060853694    0.0316815095
 C   -2.0707977728   -0.0502010598   -1.1871131792
 N   -2.5368339483    0.3343967597   -2.1724793148
 C   -1.4211732292   -2.0590473865    0.1394926638
 O   -0.7009760961   -2.5088142662    1.2658216395
 C   -2.8021140513   -2.5754717849    0.1461926292
 N   -3.8843970421   -2.9740112606    0.2110014064
 H   -0.2195865292    1.7527052791   -0.8151027699
 H    0.6092872557   -0.4027886123   -0.7892015737
 H    0.5241684119   -0.2928498770    0.9781182660
 H   -1.9360779644   -0.0845817507    0.8921196464
 H   -0.9028029785   -2.4742366896   -0.7317032230
 H   -1.2270545715   -2.3486281679    2.0585146223