21

 C   -0.4624607419    1.2602844006    0.3267513184
 C    0.0105731884   -0.1710897338    0.1864626748
 C    1.3940347686   -0.4687908829   -0.3322079108
 C    1.0673139357   -0.7677850316    1.1108570838
 C    1.7022179566    0.0189889178    2.2174146877
 C    0.9247539240    0.2932300267    3.4958938122
 O   -0.3358537871   -0.3046732534    3.6547182662
 C    2.0680648610   -0.6848675023    3.5200068235
 O    1.7417486744   -2.0270507361    3.6845778731
 H    0.3463229194    1.9203987906    0.6534484814
 H   -0.8376223354    1.6429744722   -0.6286489804
 H   -1.2764099627    1.3550891485    1.0564966870
 H   -0.7644827729   -0.8641004970   -0.1331190618
 H    1.5339007237   -1.3001070688   -1.0143356855
 H    2.0428336754    0.3797072172   -0.5293573862
 H    0.9402764272   -1.8182143185    1.3533469473
 H    2.3753628783    0.8158448693    1.9144395775
 H    1.0156011630    1.2615040187    3.9821560675
 H   -0.7918705872   -0.2713897125    2.8060789052
 H    2.9974304067   -0.4107380303    4.0107190637
 H    0.7999917247   -2.0379220942    3.9132896354