16

 N   -0.0557450875   -1.1632014309   -0.1303284091
 C   -0.0429393998   -0.0114852928   -0.0434326311
 C   -0.0047589588    1.4542939432    0.0178078549
 O   -0.5737827230    1.8982170572    1.2538174173
 C    0.1808206071    3.0301761233    1.6578677984
 C    1.6454822655    2.8618306926    1.9976161304
 C    2.1782165650    1.6056373337    1.3088405938
 C    1.4188863415    2.0429204190    0.0147971530
 C    1.1887232226    3.4427228094    0.6473936190
 H   -0.5887407124    1.8472333679   -0.8287997726
 H   -0.4087791040    3.7523584757    2.2080129839
 H    2.0961705366    3.3767606950    2.8381144968
 H    3.2590231442    1.6549653269    1.1629244489
 H    1.9133730773    0.6344656568    1.7375259160
 H    1.9388543949    1.9558108923   -0.9369043220
 H    1.3053866510    4.4152384008    0.1891983624