20

 C    0.1369745821    1.4910959094    0.1998063496
 C   -0.0942255441    0.0001329203   -0.0783099083
 C    0.6608444057   -0.4865866918   -1.2693031569
 C    2.1045302281   -0.7833013956   -1.5635703953
 C    0.9988155368   -1.8336685333   -1.8361800473
 C    0.5862297847   -1.3893726646   -3.2445364976
 C    1.8485392335   -1.0151729875   -4.0403519207
 C    2.0346999849   -0.0134603497   -2.8874151738
 N    0.5023370041    0.0539309314   -2.6946299653
 H    1.1892605744    1.6902172407    0.4273420576
 H   -0.1363530463    2.0883060255   -0.6751472589
 H   -0.4644229438    1.8314043844    1.0479524959
 H    0.1995950069   -0.6014973494    0.7917725302
 H   -1.1651651480   -0.1849264147   -0.2354287374
 H    2.9324584710   -0.9684718318   -0.8910065242
 H    0.9914837512   -2.8097417691   -1.3677739196
 H   -0.3009808964   -1.8194236377   -3.7094393718
 H    2.6136815912   -1.7762137437   -4.2123405891
 H    1.5938670541   -0.5047661814   -4.9733087880
 H    2.5840678697    0.9214423284   -2.9991835091