16

 C   -0.3930647604    1.3227196485   -0.8595292262
 C   -0.0813260711    0.0711945229   -0.0731968756
 C    1.1471802928   -0.6987273056   -0.3588913576
 O    1.0629892511    0.1364365338    0.7948053254
 C   -1.2339965348   -0.6391723272    0.5345999304
 N   -2.4711845768   -0.5697964316    0.0357391193
 N   -3.1729496276   -1.3351147457    0.8620158304
 N   -2.5101873810   -1.8944052137    1.8645309849
 C   -1.2638471067   -1.4625895972    1.6773802112
 H    0.5282429290    1.7632090224   -1.2472458036
 H   -1.0614200219    1.0916224048   -1.6933747552
 H   -0.8937641457    2.0595189125   -0.2245125717
 H    1.1690696978   -1.7696469573   -0.1631859459
 H    1.8216273941   -0.3520024474   -1.1412327049
 H   -4.1630853039   -1.4731567269    0.7397357961
 H   -0.4660915348   -1.7314545923    2.3492821829