14

 N    0.0530402102    1.3467289222    0.1087170679
 C   -0.0370467877   -0.0069572130    0.0345778887
 C   -1.1549880173   -0.7751085880    0.0215322237
 C   -0.8092631188   -2.1895863997   -0.0141187685
 O   -1.5566885156   -3.1456123567   -0.0367579398
 C    0.7334383674   -2.2867887174   -0.0234118706
 C    1.2325968635   -0.8323032940    0.0092089559
 H    0.9269313794    1.7915772857   -0.1167852953
 H   -0.7715255197    1.9052316433   -0.0381913695
 H   -2.1770123949   -0.4192678298    0.0342420036
 H    1.0650282516   -2.8691460569    0.8406282183
 H    1.0573926963   -2.8290387606   -0.9159637252
 H    1.8393068879   -0.5708018397   -0.8669608520
 H    1.8463504776   -0.6101288553    0.8901814429