19

 C   -0.1344352549    1.4286321326    0.0278785667
 C    0.0125468220   -0.0620898590   -0.0241399243
 C    0.9273858593   -0.8962812018   -0.9213424147
 C    0.1005433468   -2.1263097710   -0.4564981510
 C    0.4520246764   -2.2602544833    1.0558650908
 C   -0.2834794263   -0.9377224599    1.2325070868
 O   -0.6103183788   -0.2866722543    2.4056660264
 C   -1.0703011226   -1.1137362131   -0.0562085483
 O   -2.3831202644   -0.9709613160   -0.4250500142
 H    0.7934658349    1.9045624167    0.3655043534
 H   -0.3806854200    1.8348877154   -0.9592778930
 H   -0.9259658738    1.7177982824    0.7238683932
 H    0.7642629962   -0.6621559685   -1.9778684226
 H    2.0035996201   -0.9113845726   -0.7100708788
 H   -0.0014125679   -3.0133562098   -1.0776091829
 H   -0.0820620514   -3.0910399121    1.5309102651
 H    1.5158908494   -2.3105128764    1.3139921140
 H   -1.2589567851   -0.8172312546    2.8807997869
 H   -2.9068766500   -1.6547633444    0.0083087866