20

 C    0.4291137863    1.3655626833    0.3137891675
 C   -0.3171169191    0.1344507316   -0.2321397133
 C    0.2934560486   -0.4183468637   -1.4373917148
 C    0.8104549922   -0.8444654982   -2.4389164273
 C    1.4384989890   -1.3899744027   -3.6370963094
 C    2.0344832515   -2.7878868184   -3.4041261480
 C    2.7519446473   -3.3127211213   -4.6464110650
 N    3.0837669128   -4.6367446707   -4.5947364339
 O    3.0101263134   -2.6148699020   -5.6080388596
 H    1.4626162837    1.1128583463    0.5660770646
 H    0.4512808934    2.1667851970   -0.4298528150
 H   -0.0636361133    1.7439142777    1.2146211759
 H   -0.3596019005   -0.6401858326    0.5447879286
 H   -1.3604611726    0.4038676805   -0.4420882426
 H    0.7126170123   -1.4414671122   -4.4569966229
 H    2.2332039599   -0.7268508452   -3.9947277675
 H    2.7535643748   -2.7511849590   -2.5763724071
 H    1.2526204906   -3.4921891179   -3.0982428285
 H    2.9376149693   -5.1947236405   -3.7720456276
 H    3.6314594704   -5.0193400819   -5.3478852640