17

 C    0.4754421639    1.3878243595   -0.4559576921
 C    0.0488369203    0.0319653245    0.0412513672
 O    1.0641412372   -0.9779237926    0.2360002844
 C    0.3522213090   -0.5071010907    1.3764305854
 C    1.1930360654    0.2369933058    2.3914091434
 C    2.3592510749   -0.4763510954    3.0000970720
 N    2.5754384815    0.6093462580    2.0433190049
 C    0.4511704153    1.1965077689    3.1815661004
 N   -0.1834979090    1.9328418817    3.8071622414
 H    1.3138886533    1.7960299199    0.1107045043
 H    0.7607332915    1.3285999405   -1.5111470822
 H   -0.3635925229    2.0865219966   -0.3749345701
 H   -0.8434181759   -0.3698624391   -0.4405018521
 H   -0.3429979134   -1.2243954026    1.8140371389
 H    2.6422565440   -0.2564905493    4.0242788227
 H    2.5209069546   -1.5004682610    2.6741178906
 H    2.7571473705    0.2048684655    1.1242950610