20

 C   -0.0653911073    1.5867738606   -0.1615769903
 C    0.0109092428    0.0607860090   -0.0171404530
 C    0.8810944271   -0.5643929363   -1.1414603997
 N    2.2008939684   -0.6232524275   -0.5314426241
 C    2.1918418983   -0.5759043324    0.8273768845
 O    3.1684716662   -0.6459840840    1.5567574048
 C    0.7334405782   -0.4179111473    1.2667557182
 C    0.6289961076    0.4225200923    2.5479036613
 O    1.2879733735   -0.2141149655    3.6193657601
 H    0.9315441985    2.0403099319   -0.1672958522
 H   -0.5598231278    1.8539403541   -1.1010830507
 H   -0.6361007091    2.0407969954    0.6531193365
 H   -1.0026082305   -0.3472039760   -0.0627135959
 H    0.5227489949   -1.5650695679   -1.4206845069
 H    0.8915384924    0.0536136111   -2.0449770781
 H    3.0474550716   -0.8295299228   -1.0377567964
 H    0.3858495129   -1.4282141623    1.5239563578
 H    1.0334406647    1.4309360846    2.3679009030
 H   -0.4218941480    0.5397090888    2.8364549122
 H    2.1856684156   -0.3961463557    3.2979759990