16

 N   -0.0162507849    1.3162738695    0.0079489931
 C    0.0795409173   -0.0306556524    0.0010606818
 O    1.1077698836   -0.6794152455   -0.0123166553
 C   -1.3096718319   -0.7147866613    0.0103904517
 O   -2.3193276308   -0.0457755471    0.0240457368
 C   -1.2917868350   -2.2218061288    0.0022657066
 C   -2.7023794756   -2.8293429974    0.0127570931
 C   -2.6761322724   -4.2862163618    0.0048243957
 C   -2.6307614392   -5.4870613477   -0.0021075871
 H    0.8159705305    1.8809055273    0.0028684465
 H   -0.9304868437    1.7387784484    0.0188847624
 H   -0.7153924795   -2.5522480403   -0.8699305720
 H   -0.6985796463   -2.5613981579    0.8595441591
 H   -3.2471836143   -2.4675545819    0.8923984480
 H   -3.2641437225   -2.4583158633   -0.8522492118
 H   -2.6040725351   -6.5484085298   -0.0087896785