22

 C    0.4692718528    0.8218909214    0.5831010511
 C    0.2393663218   -0.4981720895   -0.1688069022
 C    1.1232760034   -1.6210233292    0.3947227032
 C   -1.2275486904   -0.8903355315   -0.1047515766
 C   -2.2857659127   -0.3664745471   -1.0354063429
 C   -2.0098173652    0.6012027980   -2.1649287859
 C   -1.8626139832   -1.8352596358   -1.1270255043
 C   -1.0978487467   -2.2866836621   -2.2539854478
 N   -0.4796124584   -2.6514193422   -3.1626370083
 H    1.5211705745    1.1202782726    0.5323589950
 H   -0.1333147002    1.6340602272    0.1652622237
 H    0.2044403364    0.7199251170    1.6422534604
 H    0.5202664952   -0.3487954327   -1.2173660910
 H    1.0005428574   -2.5466924004   -0.1745672533
 H    2.1802609693   -1.3395329490    0.3559162790
 H    0.8725875535   -1.8291475267    1.4417932137
 H   -1.5679116411   -1.0832833189    0.9112155637
 H   -3.2669391652   -0.2402248287   -0.5851130979
 H   -1.0604348121    0.3979324746   -2.6646753272
 H   -2.7973136841    0.5365934890   -2.9225248756
 H   -1.9866923445    1.6311199560   -1.7941153517
 H   -2.5584928105   -2.5787476822   -0.7530890051