23

 C   -0.0522573833    1.5689979136    0.0232143986
 C   -0.0389576506    0.0410987226   -0.1006650781
 C   -1.4294811635   -0.5791254278    0.0233006270
 C   -1.4890568617   -2.1397437745    0.0501394400
 C   -1.3499108506   -2.0558119404    1.6001559050
 C   -2.0394039068   -0.6717094807    1.4559044816
 O   -3.4548506762   -0.7813771567    1.3596943586
 C   -3.8949615791   -2.0050709754    0.7715715338
 C   -2.9265677184   -2.5589082404   -0.3000615831
 H    0.9542697884    1.9847004667   -0.0857655297
 H   -0.6857163526    2.0206009938   -0.7480795907
 H   -0.4405075680    1.8896307473    0.9956655168
 H    0.3831139574   -0.2410921459   -1.0745579829
 H    0.6394675569   -0.3798797350    0.6514628508
 H   -2.1072323201   -0.1054556134   -0.6968340086
 H   -0.7393491667   -2.6958411880   -0.5197859419
 H   -1.8336492409   -2.8146396786    2.2196048335
 H   -0.3119481816   -1.9516669430    1.9197991183
 H   -1.8371082291    0.1156962501    2.1858434491
 H   -4.0254851593   -2.7581296200    1.5618646166
 H   -4.8857713147   -1.8056896236    0.3534235085
 H   -3.1816575544   -2.1806200434   -1.2967843660
 H   -3.0270660249   -3.6502011071   -0.3322140974