18

 C   -0.6395929689    1.3136353201    0.6599682565
 O   -0.6437116520   -0.0934395241    0.6985241046
 C   -0.6659977548   -0.6770521267   -0.5985987129
 C   -0.7522423279   -2.1531719722   -0.4672554750
 C   -0.0734613810   -3.1733969790   -1.0829623701
 C   -0.6162443579   -4.4145323859   -0.6228101387
 C   -1.6073233641   -4.0904142992    0.2731933668
 O   -2.4433332279   -4.8295115909    1.0464528019
 N   -1.7085527571   -2.7336368783    0.3526509689
 H   -0.6465655147    1.6700250238    1.6929452451
 H    0.2573482751    1.7065855894    0.1554937452
 H   -1.5250002589    1.7127253070    0.1388223498
 H   -1.5267817046   -0.2630219543   -1.1567811511
 H    0.2399451768   -0.4161327777   -1.1678340688
 H    0.7200852102   -3.0513350047   -1.8048416292
 H   -0.3165586687   -5.4094656680   -0.9133874470
 H   -2.2118379267   -5.7565502654    0.9371201610
 H   -2.2557505768   -2.2360742038    1.0343294430