19

 C   -0.0738429055    1.5498808064    0.0067309890
 C    0.0044001318    0.0340668288   -0.0531135715
 C    1.2596214530   -0.6533730936   -0.6937657081
 N    2.0324552035   -0.1857768875    0.5418516409
 C    3.2671946950   -0.8962087978    0.8758325972
 C    0.7232659537   -0.7547555681    1.0952010333
 C    0.8752444859   -1.8942283458    0.1058337597
 N    0.8590790492   -3.1544045643    0.1207266191
 O    1.2257520067   -3.6812485978   -1.1450210258
 H    0.8787828693    1.9797816248    0.3169737910
 H   -0.3412082021    1.9557742836   -0.9747968779
 H   -0.8496941069    1.8635369041    0.7133469374
 H   -0.9414418576   -0.4185982700   -0.3610376415
 H    1.6605368192   -0.5623502975   -1.7013436735
 H    4.0549712655   -0.5593551008    0.1947710860
 H    3.5614930869   -0.6159058345    1.8922110667
 H    3.1996895314   -1.9929976351    0.8208989158
 H    0.5032281605   -0.7783235421    2.1616232867
 H    1.1555573106   -4.6288921828   -0.9887273543