16

 O   -0.2414648855    0.0632185837   -0.3821586302
 C   -0.1418981142    1.2242753948   -0.1383401293
 N   -1.1168422256    2.2690002315   -0.0420913604
 C   -0.1851760010    3.0553682040    0.8065868393
 C    0.8357564157    4.2610982230    0.7080946982
 C    1.9020940387    3.1384870798    1.1320448392
 C    0.9665260799    2.3062467667    0.1659143482
 C    1.2145959609    3.1221670461   -1.1364878848
 O    1.0948552916    4.4782557736   -0.6562583539
 H   -2.0821716790    2.0694688330    0.1914896578
 H   -0.2978833480    2.7893202050    1.8621555535
 H    0.7185464113    5.2046348080    1.2402236150
 H    2.9260249305    3.3314570701    0.8062419510
 H    1.8647724422    2.8382579581    2.1775118482
 H    2.2241067331    2.9456450259   -1.5250060834
 H    0.4825667593    2.9446339167   -1.9266382385