18

 C   -0.0868362666    1.4298888741   -0.3154584244
 C    1.2473262942    0.8242964132    0.0027028048
 C   -0.0206819565   -0.0422126655   -0.0138574003
 C    0.5335005709   -0.8210099502   -1.1986236254
 O   -0.2808185490   -0.8704335759   -2.3697491807
 C    0.0911735749   -0.1150929922   -3.4340698669
 N    1.0696895943    0.6653220118   -3.5925884424
 C    2.0460270798    0.8676009044   -2.5272830497
 C    1.8078356986    0.0864883317   -1.2242226053
 H   -0.5240213462    2.0295428775    0.4761751901
 H   -0.3170513695    1.7863828658   -1.3151350076
 H    1.8348721376    1.1356354910    0.8572811428
 H   -0.5644363987   -0.4832757296    0.8119209124
 H    0.7657093721   -1.8573148306   -0.9445049237
 H   -0.6229707500   -0.2675360743   -4.2419602003
 H    3.0268864181    0.6142573648   -2.9473296957
 H    2.0833193964    1.9438015570   -2.3174995930
 H    2.6879637097   -0.5059536130   -0.9660058946