18

 C   -0.1840280318    1.4294437653    0.3107650147
 N    0.0371554956    0.0196096314    0.0114647890
 C    0.4686322382   -0.4228868317   -1.3058944250
 C    0.8280443532    0.5569009211   -2.4173263782
 C    2.3198807755    0.8665509827   -2.3962679261
 O    2.7816028973    1.2774999291   -1.0964546388
 C    2.5593084556    0.4523671841   -0.0369157819
 O    3.2368011528    0.5540204385    0.9486911708
 C    1.4010973418   -0.5045592805   -0.1313319736
 H    0.5188130841    2.1291638884   -0.1613457515
 H   -1.1994451619    1.6922145100   -0.0016257330
 H   -0.1165687263    1.5622246089    1.3938936861
 H   -0.0193850836   -1.3406896627   -1.6263064029
 H    0.5733602119    0.1209715884   -3.3881700229
 H    0.2501569767    1.4824523468   -2.3269705119
 H    2.8974308066   -0.0116577623   -2.7111446409
 H    2.5751496801    1.6958465403   -3.0598086860
 H    1.5865992843   -1.4370731778    0.3933367621