19

 C   -0.4633061830    1.4324199300    0.0765282152
 C    0.3007036046    0.1282296273   -0.0475595658
 O    1.4101105224    0.3096895964   -0.9088973797
 C    2.2619544967   -0.8143575001   -0.7506829176
 C    2.0489783818   -1.3333147135    0.6959058528
 C    0.9378063272   -0.4249969741    1.2648421261
 O    1.4313928341    0.6789369448    2.0069381004
 C   -0.0971149137   -1.1778915396    2.0927545549
 O   -0.5124914523   -2.2781084031    1.8331919970
 H    0.1710055613    2.2027962387    0.5171474437
 H   -0.7888071574    1.7612148129   -0.9136507724
 H   -1.3501696436    1.3022989137    0.7043766493
 H   -0.3561760237   -0.6680971952   -0.4380756331
 H    2.0047352120   -1.5979844573   -1.4783890645
 H    3.2862874445   -0.4877346934   -0.9479590278
 H    1.7146012311   -2.3726399012    0.7057444004
 H    2.9548137834   -1.2597215457    1.3044799113
 H    2.0650604738    0.3535507532    2.6539965644
 H   -0.4598836791   -0.5979554437    2.9714667556