18

 C    0.0402015397    1.4897340709    0.1034097806
 C    0.0230314212    0.0067266008   -0.0520871008
 C   -0.0542773188   -0.7859895560   -1.1787683125
 C   -0.0682723257   -2.1475096644   -0.7462478855
 C    0.0110849205   -2.1159179472    0.6088525750
 N    0.0700383537   -0.8391348823    1.0656480724
 O    0.0705964783   -3.2873973790    1.2840511048
 C   -0.1717063489   -4.2864446879    0.2406330370
 C   -0.0334579505   -3.5939949034   -1.1599434381
 H    0.9412300667    1.8487159961    0.6188818813
 H    0.0193287172    1.9600262554   -0.8827528312
 H   -0.8253815531    1.8675915354    0.6646352467
 H   -0.1033413917   -0.4083540662   -2.1894322687
 H    0.1092876227   -0.5449856874    2.0256068050
 H    0.5417376689   -5.0969807611    0.4008848988
 H   -1.1863897857   -4.6700326330    0.3902588236
 H   -0.8506270136   -3.9071125339   -1.8189621931
 H    0.9041684491   -3.8771616268   -1.6568186554