17

 C   -0.0697750988    1.5529123125   -0.0226052303
 C   -0.0245234552    0.0557562289    0.0512311191
 C   -0.8667507374   -0.8128262472    0.9852760518
 O   -1.7067010800   -1.8449212175    0.6075888818
 C    0.6165141724   -0.9247924246    1.0476695697
 O    1.0687845868   -1.7980841292   -0.0001435958
 C    0.6249931740   -0.8671817741   -1.0021487020
 C   -0.2559304449   -1.4541206592   -2.0802124576
 O   -0.7031821209   -2.5724108882   -2.0689483800
 H    0.9003931418    1.9737883607   -0.3114612415
 H   -0.8159556951    1.8957605119   -0.7487648079
 H   -0.3415386536    1.9803481271    0.9475991052
 H   -1.3060163073   -0.2272475624    1.7895849192
 H   -1.1945761672   -2.4802034608    0.0847955393
 H    1.2713869594   -0.7968930465    1.9030315834
 H    1.4863261854   -0.3783479312   -1.4838409389
 H   -0.4681525894   -0.7495349001   -2.9162253055