19

 O   -0.1948252192   -0.0434957013   -0.1417614350
 C   -0.0464091855    1.1417652834    0.0096867078
 C    1.2759560729    1.8692058968   -0.0618783793
 C    1.3098902048    2.8517504003   -1.2559795418
 C    2.5213009326    3.7894910041   -1.1569815466
 O    2.6561992981    4.5775248470   -2.3226161242
 C    2.9549853443    3.8082379894   -3.4726656358
 C    2.1339025979    2.5538551381   -3.5771245718
 C    1.3620906273    2.1267946156   -2.5807463394
 H   -0.9214973304    1.8077357716    0.2001367636
 H    1.3955550465    2.4400659132    0.8701079325
 H    2.0839132159    1.1353659141   -0.1321872507
 H    0.3995631555    3.4691939473   -1.2130586312
 H    2.4101456078    4.4895630779   -0.3232811493
 H    3.4323574457    3.1921454075   -0.9818459908
 H    2.7669101819    4.4627256713   -4.3321804517
 H    4.0308533756    3.5529896034   -3.4990828478
 H    2.2021332135    2.0045024753   -4.5124170535
 H    0.7685967149    1.2225510950   -2.6878261550