19

 C   -0.2253612196    1.5100063711   -0.0826173834
 C   -0.0011024391    0.0184794718    0.0255479267
 C    1.3645727666   -0.6131958156   -0.1956578394
 O    2.4676454759    0.2302916466   -0.4074007572
 C    3.1828256952    0.4839358339    0.7742558259
 O    2.3822543148    1.0776851983    1.7606939756
 C    1.4158584206    0.1653732618    2.2693438900
 C    0.7204481118   -0.6331021174    1.1749573525
 O    0.1296220825   -1.8205053929    1.6281414764
 H    0.6349514539    2.0721085509    0.2824823270
 H   -0.3985397411    1.7947022747   -1.1255100507
 H   -1.1048244248    1.8115728803    0.4961654296
 H   -0.8159488209   -0.5991046525   -0.3428896242
 H    1.4168235544   -1.5426900347   -0.7580761733
 H    3.6262148794   -0.4515197398    1.1629857286
 H    3.9661382952    1.2001989876    0.5201658495
 H    1.9038418231   -0.5548397673    2.9491722352
 H    0.7082731988    0.7549302596    2.8592182202
 H    0.8319508731   -2.4212367465    1.9048732509