19

 C   -0.1191342215    1.5782119686   -0.0421052971
 C    0.0697831673    0.0626273735    0.0866542960
 C    0.7189508416   -0.5456142612   -1.1546831811
 C    0.7685163589   -2.1008025829   -1.2724912427
 N   -0.0635315511   -1.9770165801   -2.4704626042
 C   -0.6312636222   -2.9502569757   -3.3646651449
 C   -0.1698157266   -0.6096734993   -2.4230071013
 O   -0.7632007460    0.1778787797   -3.1178934839
 H    0.8460650369    2.0874880643   -0.1398397267
 H   -0.7132449870    1.8179660351   -0.9279589352
 H   -0.6245372008    1.9871430841    0.8378976656
 H    0.6851979006   -0.1683592916    0.9654922808
 H   -0.9023690786   -0.4191704328    0.2545431568
 H    1.6854549031   -0.0732412680   -1.3579222546
 H    1.7576572586   -2.5356702736   -1.4564619923
 H    0.2827485268   -2.6389220246   -0.4492270678
 H   -1.2970832706   -3.6447317650   -2.8369189778
 H   -1.2116692319   -2.4091531560   -4.1160257925
 H    0.1460443426   -3.5351540844   -3.8719370272