20

 C   -0.1199785984    1.5657127717    0.1311381836
 C    0.0059019290    0.0527924063   -0.0012046661
 C    0.7524111251   -0.5765915949    1.1767515228
 O   -1.3297088333   -0.4507658546   -0.0895395999
 C   -1.5067409415   -1.6834689155   -0.6332916503
 C   -0.5867789052   -2.5544625977   -1.1855799284
 N   -1.2954860388   -3.6582648922   -1.6214227863
 C   -2.6248115525   -3.4989357855   -1.3526267507
 C   -2.7944200414   -2.2804865216   -0.7372145745
 H    0.8687551394    2.0301893685    0.1907174890
 H   -0.6522979069    1.9834711509   -0.7272577280
 H   -0.6773482196    1.8205625960    1.0380542847
 H    0.5295604303   -0.1824911252   -0.9399635605
 H    0.7693633115   -1.6660660701    1.0959999790
 H    1.7858351927   -0.2167927882    1.2112873260
 H    0.2618358594   -0.3104260601    2.1184253568
 H    0.4811165665   -2.4979287260   -1.3013176188
 H   -0.8842669221   -4.4641905961   -2.0555577275
 H   -3.3430097837   -4.2572079126   -1.6198463964
 H   -3.7212518707   -1.8457302031   -0.3992193746