16

 O    0.0050849789    1.3925968634    0.0401795066
 C    0.0525051160    0.0022301559    0.0419424878
 C   -0.4466637145   -0.7750772200    1.2373395949
 C   -1.2461289434   -0.7595322602   -0.0516782002
 N   -2.4138760052    0.0810505897   -0.0761864821
 C   -3.3146800700   -0.0599464475   -1.2177283908
 C   -3.7133741490   -0.5529963345    0.1298724272
 H   -0.9367577605    1.6168500702    0.0879807282
 H    0.9181748051   -0.3729500648   -0.4950333622
 H    0.0510811431   -1.6967779525    1.5190339944
 H   -0.8426752163   -0.1921232293    2.0618470939
 H   -1.2891204745   -1.6775133851   -0.6413608175
 H   -3.7290169940    0.8632328693   -1.6118150007
 H   -3.0616565009   -0.8042955221   -1.9699761250
 H   -3.7282317855   -1.6293038980    0.2857812071
 H   -4.4220113192    0.0065330556    0.7335906283