24

 C    0.1435563434    1.4365575383   -0.1842497699
 C    0.2034741495   -0.0994061039   -0.0476437384
 C    0.8603009012   -0.7275604122   -1.2805368396
 C    0.8596536283   -0.4885807962    1.2689315812
 N    2.0109241289   -1.0354256890    1.1792053166
 O    2.5751656751   -1.3674730448    2.4271147019
 C    0.0795239509   -0.2044587429    2.5473951231
 C   -0.3116481959   -1.5081317611    3.2715720069
 C    0.7998282848    0.7801914861    3.4882345509
 H    1.1538139024    1.8509908323   -0.2675912092
 H   -0.4130849408    1.7168186262   -1.0841457787
 H   -0.3465283979    1.9112043893    0.6711025992
 H   -0.8341675173   -0.4617865981    0.0114697090
 H    1.8915264810   -0.3835051225   -1.3947436528
 H    0.8855435354   -1.8175435809   -1.2063536215
 H    0.3026143951   -0.4522597506   -2.1816349256
 H    3.4103192213   -1.7676397260    2.1648685631
 H   -0.8539373500    0.2767273698    2.2316130998
 H   -0.8757038345   -2.1738763676    2.6103184841
 H    0.5735448744   -2.0426598847    3.6191386905
 H   -0.9441063883   -1.2787100572    4.1356767562
 H    1.0327781768    1.7190022774    2.9760373551
 H    0.1559311606    1.0145051941    4.3427649161
 H    1.7332401157    0.3571888841    3.8613500119