18

 N    0.4045527373    1.0908757839    0.7178192199
 C   -0.1070365434   -0.0177253025   -0.0688086174
 C   -1.5994281203    0.0604847256   -0.4076601786
 C   -1.6735616925   -0.7654515598   -1.6787292953
 C   -2.3517017821   -2.0993821470   -1.7881026256
 C   -2.8601641354   -0.8962460198   -2.5683851028
 O   -0.4077217512   -0.6429498258   -2.3355128354
 C    0.5308630721   -0.1975642697   -1.4583088043
 O    1.6654180336    0.0208072554   -1.7730982084
 H    1.4143307797    0.9923509560    0.7946573805
 H    0.2581192299    1.9594715451    0.2081325217
 H    0.0950482575   -0.9470405854    0.4817369790
 H   -2.2491646953   -0.3168119035    0.3830488463
 H   -1.8768765722    1.1029059684   -0.6097128309
 H   -1.8360447136   -2.8704659565   -2.3488267776
 H   -2.9311769401   -2.4541844525   -0.9424211112
 H   -3.7863284558   -0.4249154699   -2.2567881793
 H   -2.6777558384   -0.8836754520   -3.6367918605