16

 C   -0.0447515010    1.5021667857   -0.0481786284
 C   -0.0556500551    0.0153698050   -0.0477634121
 C   -0.0560335276   -1.0373050934   -1.1304888862
 C    0.8312213338   -1.8913778536   -0.1971583226
 N    0.8537709447   -0.8447217412    0.8526186856
 C   -0.2500398501   -1.9037092448    0.8483204052
 C   -0.4501823936   -2.8363443028    1.9677584737
 O    0.4534173450   -3.3963756708    2.5410674112
 C   -1.1496901655   -1.0214517132   -0.0463962960
 H    0.9460587588    1.8858123276   -0.3136062405
 H   -0.7671379760    1.8866843143   -0.7757201491
 H   -0.3102473455    1.8948481729    0.9390990563
 H   -0.1557423842   -0.9599049853   -2.2035844760
 H    1.6426814625   -2.5950987464   -0.3378343599
 H   -1.5145762766   -3.0102695682    2.2444151855
 H   -2.2206003995   -0.9231482559   -0.1556005868