16

 O    0.0534328717   -0.0572262956    0.3042108201
 C    0.0284840948    1.1342486139    0.0812427470
 C   -1.2932923783    1.8821479543   -0.0967126232
 C   -1.1673129822    3.1357125627   -0.9892442391
 C   -0.0207489528    4.0452696504   -0.4897882250
 C    1.2350246896    3.2709655535   -0.2019746582
 C    1.2575335908    1.9532702331    0.0329348419
 C   -0.9553841795    2.7631654423   -2.3940115795
 N   -0.7982133043    2.4803014674   -3.5033322747
 H   -2.0411659828    1.1833415648   -0.4760574283
 H   -1.6216333036    2.2040383481    0.9006077646
 H   -2.1081080035    3.6962532538   -0.9527381267
 H    0.1817516893    4.8339063120   -1.2209829221
 H   -0.3522572970    4.5576905540    0.4246185343
 H    2.1626341696    3.8379322465   -0.1849260427
 H    2.1838149882    1.4207981489    0.2223659715