15

 O   -0.7834037324    1.4085319951    0.4827929816
 C    0.1534804649    1.0895173240   -0.1919353024
 C    1.4067232948    1.9473337766   -0.3998001275
 O    2.3147280396    1.5739215271   -1.1004063909
 O    1.3542775640    3.1021249604    0.2655832837
 C    2.5116836661    3.9361541920    0.1385104932
 C    2.6383656484    4.7564128703   -1.1569483723
 O    2.6183460049    5.9897925747   -0.4073723769
 C    2.3348625472    5.2947774260    0.8251734474
 H    0.2231493675    0.1338309250   -0.7483012569
 H    3.3981848658    3.3622674919    0.4098848970
 H    3.5635717780    4.6270311829   -1.7265519425
 H    1.7747684282    4.6592210649   -1.8264362620
 H    1.3124800238    5.4684545196    1.1818394790
 H    3.0503550092    5.5427823295    1.6159834895