10

 N   -0.0802262338    1.2959492210    0.2214842216
 C   -0.0647676726    0.0615129846   -0.0283041381
 O    1.0637082981   -0.5941188139   -0.4829091864
 C    1.0791831204   -1.9302452458   -0.7527915040
 O    2.0576404124   -2.4727961258   -1.1418639948
 O   -0.0777492159   -2.6292794742   -0.5591912241
 N   -1.2716279101   -2.0422960007   -0.0994227141
 C   -1.2352219718   -0.7904513252    0.1388624451
 H    0.8291855423    1.7271429405    0.0457853618
 H   -2.1545789291   -0.3384335504    0.4929514930