21

 C    0.1710051190    1.6137890348    0.0714522563
 C    0.0561045877    0.0891100451   -0.0090553996
 C    0.5864352011   -0.4671344390   -1.3255707533
 O    1.9853532516   -0.1689415476   -1.4738295597
 C    2.6607952610   -1.3785874951   -1.7546675566
 O    1.7027868501   -2.2859393032   -2.2414875630
 C    0.5425223122   -1.9840162462   -1.5012371407
 C    0.0856513926   -2.9722113387   -0.4584802614
 C   -0.6685611431   -2.8017556752   -1.7689285944
 H    1.2130843065    1.9243260831   -0.0400662893
 H   -0.4101244475    2.0967565962   -0.7219644430
 H   -0.1988151988    1.9862066465    1.0312783533
 H    0.6083634056   -0.3745811310    0.8161570111
 H   -0.9947353670   -0.2115885980    0.0989108791
 H    0.0563949359    0.0119905424   -2.1629814841
 H    3.4154393895   -1.2138135516   -2.5304230109
 H    3.1371827328   -1.7671587405   -0.8371273816
 H    0.6865887238   -3.8676343195   -0.3466726953
 H   -0.3771738135   -2.6135507703    0.4537448937
 H   -1.6342440871   -2.3069372260   -1.7462921834
 H   -0.5772228324   -3.5866723164   -2.5111327971