18

 O   -0.1141713937    1.3815777361    0.1071238877
 C    0.0404331251    0.0041646681    0.0745270600
 C    0.8803262547   -0.8058161467   -0.9779355001
 N    0.8042742243   -1.9393908054    0.0326820323
 C    0.8465493974   -0.8435931095    1.0868338994
 C   -0.6647925087   -2.2065841729   -0.0901480811
 C   -1.4750323550   -2.4807438994    1.1840389985
 O   -1.9183781527   -1.1026784784    1.2512345169
 C   -1.2743946652   -0.7869944784   -0.0068588787
 H    0.7497109199    1.7884132137    0.2299563929
 H    0.4523369395   -1.0280246325   -1.9601170681
 H    1.9085714442   -0.4504496152   -1.0807046305
 H    1.8803697210   -0.5100313729    1.2076671058
 H    0.4064772573   -1.0734449130    2.0563504287
 H   -0.8508214284   -2.8470240844   -0.9515901872
 H   -2.3200029232   -3.1631826733    1.0336402805
 H   -0.9141838203   -2.7937768191    2.0720326411
 H   -1.9765097862   -0.3969032871   -0.7480913080