25

 C   -0.2689125220    1.5533050025   -0.1123008863
 C   -0.0406646714    0.0354275684    0.0062525102
 C    0.7842645157   -0.4885582992   -1.1463442958
 C    1.9948912988   -0.8896207301   -0.7672095460
 C    2.2256703328   -0.7153818435    0.7160077770
 C    3.2695125286    0.3810584170    0.9958488130
 C    0.7682974572   -0.4678126763    1.2611296917
 C    0.7022828212    0.4747316477    2.4689792680
 C    0.1854019657   -1.8328888105    1.6783495678
 H    0.6758008833    2.1056547070   -0.1229054703
 H   -0.7917528248    1.7828847718   -1.0471661643
 H   -0.8804317231    1.9361007906    0.7104577851
 H   -1.0342723697   -0.4347211466    0.0150448984
 H    0.4141897219   -0.4873806467   -2.1669810345
 H    2.7675315571   -1.2670040813   -1.4299802845
 H    2.6148676883   -1.6436454379    1.1578524746
 H    2.9584084439    1.3494595247    0.5919935837
 H    3.4539388087    0.5001375818    2.0678694107
 H    4.2231484023    0.1215071857    0.5233501318
 H    1.0991692019    1.4695029544    2.2540585640
 H   -0.3323613215    0.5970056986    2.8088084859
 H    1.2716790499    0.0655761371    3.3111808367
 H    0.7543931793   -2.2661262720    2.5085338865
 H   -0.8559503923   -1.7326418691    2.0042144847
 H    0.2115358583   -2.5419743742    0.8448092318