15

 O    0.0836605454    0.0093338694    0.0060736464
 C    0.0447390209    1.2221974721    0.0104369396
 N   -1.0892956928    2.0160386581    0.0284564776
 C   -0.7558907552    3.3799511712    0.0292372098
 C    0.5744757725    3.5454980848    0.0128656280
 C    1.1920262876    2.2005567411    0.0001202115
 C    2.4687456273    1.7956634665    0.7270930467
 C    2.4502763474    1.8013477674   -0.7613432864
 H   -2.0206146424    1.6364831700    0.0391873065
 H   -1.5416217243    4.1207054624    0.0422132780
 H    1.1055568893    4.4847235853    0.0097746678
 H    3.0040080151    2.5806173488    1.2490848621
 H    2.4299103283    0.8356282042    1.2303090471
 H    2.3988560635    0.8451896216   -1.2707758769
 H    2.9724695672    2.5903303171   -1.2904497278