14

 N    0.0754609128   -1.1340872417    0.1331291397
 C    0.0490354459    0.0195631835    0.0787755281
 C    0.0082412177    1.4769537890   -0.0183181270
 N   -0.3303876662    2.1921408837    1.2445246645
 C    0.8423717141    3.0910908252    1.1042549433
 C    2.0654097219    2.5396248499    1.8578596397
 O    2.4067663675    1.6880872341    0.7254884422
 C    1.3696950084    2.2435810352   -0.0779056229
 H   -0.6265038890    1.7546704440   -0.8698996227
 H   -1.2295502972    2.6564122853    1.2149067047
 H    0.6508014021    4.1637648658    1.0939609885
 H    2.8642240401    3.2651232397    2.0518406334
 H    1.8377287868    1.9642744904    2.7593054215
 H    1.7107157952    2.5825128260   -1.0576600031