25

 C    0.0148518219    1.5601121836    0.1648684698
 C   -0.1530641639    0.0465924711   -0.0625944939
 C    0.5744130847   -0.4415600230   -1.2303813986
 C    1.1828949149   -0.8125433609   -2.2020812783
 C    1.9116529641   -1.3050867256   -3.3667712770
 C    2.0392924445   -2.8431491697   -3.3865352199
 C    2.7134950653   -3.4099612868   -4.6480892312
 C    4.1787932582   -2.9708473738   -4.7833563039
 C    2.6076731094   -4.9411461950   -4.6644245421
 H    1.0673369751    1.8157296632    0.3152408138
 H   -0.3478551400    2.1247345551   -0.6984141112
 H   -0.5474862528    1.8797440272    1.0475542536
 H    0.1831612729   -0.4953070552    0.8310686016
 H   -1.2199184058   -0.1890307034   -0.1706487232
 H    1.4055089617   -0.9749284424   -4.2847139283
 H    2.9075509898   -0.8457729362   -3.3910690351
 H    2.5933368914   -3.1666673454   -2.4958182342
 H    1.0342012634   -3.2705837693   -3.2935750172
 H    2.1636605446   -3.0263826819   -5.5205808618
 H    4.7669575921   -3.3074631081   -3.9208197107
 H    4.6335956472   -3.4012646102   -5.6816832761
 H    4.2819782232   -1.8839153999   -4.8532566793
 H    1.5645505986   -5.2703756122   -4.6138021674
 H    3.0489650103   -5.3594497792   -5.5751782352
 H    3.1364476591   -5.3789018519   -3.8090939444