19

 C    0.0900388405    1.3813530714   -0.3812628853
 C   -0.0140728729   -0.0692548281    0.1023545231
 C    0.7638652175   -0.2837578897    1.4152372689
 C   -1.4863508546   -0.4312305296    0.3433104989
 O   -2.2615950253    0.3214560861    0.8772330547
 N   -1.8131990444   -1.7278158225   -0.0636806919
 C   -3.0893897240   -2.3283807109   -0.0397790019
 N   -3.0133210301   -3.6858052309   -0.3265365456
 O   -4.1241925235   -1.7414937950    0.1413270894
 H    1.1386012784    1.6775312494   -0.4804208298
 H   -0.3971477039    1.5145246533   -1.3517223390
 H   -0.4005653926    2.0466523514    0.3330839022
 H    0.4045632135   -0.7343846782   -0.6646871995
 H    0.3471131232    0.3474435147    2.2055784108
 H    0.7145552526   -1.3243879826    1.7522891204
 H    1.8173720988   -0.0201093213    1.2822347581
 H   -1.0740872066   -2.2620887759   -0.4931596917
 H   -2.2111095884   -4.2008037833    0.0044312169
 H   -3.8938964583   -4.1587066783   -0.1863179487