17

 C   -0.0120889875    1.5229095165    0.0614804025
 C    0.0286467963    0.0050036168   -0.0198944963
 C    0.7622975090   -0.5189251460   -1.2618261731
 C    1.0449578062   -1.9920997410   -1.1258289081
 C    0.9599235962   -2.6088376855    0.0498352564
 C    0.6254041383   -1.8628949569    1.3119796431
 O    0.6749972181   -0.4585630183    1.1621193457
 H    1.0038366400    1.9256598224    0.1216196068
 H   -0.5013965243    1.9436314981   -0.8223922749
 H   -0.5605256503    1.8443284872    0.9508986336
 H   -1.0029225657   -0.3886770560   -0.0398810160
 H    0.1528044940   -0.3288573736   -2.1548562290
 H    1.6981732945    0.0403970307   -1.4051998218
 H    1.3133832801   -2.5442588426   -2.0226202733
 H    1.1293007829   -3.6782238428    0.1444382032
 H   -0.3686851221   -2.1794924095    1.6816140887
 H    1.3443881642   -2.1089295094    2.1032145224