19

 C   -0.0468038898    1.5397755027   -0.0078258570
 C    0.1447753325    0.0611218378    0.0179121817
 O   -0.7811113853   -0.7517233615    0.7616158631
 C    0.6306756520   -0.8837984601    1.0193855257
 C    1.2758203540   -1.7881669823   -0.0735854643
 C    0.2910118840   -2.2523339831   -1.1168223139
 C   -1.1123086797   -2.8383482683   -0.9289447005
 O   -1.2394251143   -4.0729329341   -1.6313369406
 C    0.7456659826   -0.8114427287   -1.1311813999
 H    0.8720793930    2.0431517541   -0.3258272024
 H   -0.8411230483    1.8155471218   -0.7110900245
 H   -0.3230110187    1.9052209877    0.9846592627
 H    0.9650203903   -0.7510131329    2.0417776036
 H    2.2784518540   -2.1861358762    0.0199402828
 H    0.8013046859   -2.7972323564   -1.9111617318
 H   -1.3567521856   -2.9578273408    0.1295356386
 H   -1.8621120340   -2.1724324803   -1.3641759593
 H   -0.7261891136   -4.7322701421   -1.1542738367
 H    1.2845881310   -0.3832606973   -1.9675159373