19

 C   -0.1962880399    1.3843723749    0.1053318928
 N   -0.1927357596   -0.0679684495    0.1285431341
 C    0.6369358623   -0.6336912640    0.9099410369
 N    1.5723304856   -0.0769813774    1.7678536719
 C    2.4115517209   -1.0423501283    2.4825284973
 C    2.3528100792   -0.8751330120    4.0013555067
 C    1.8579089311   -2.3776917346    1.9926620662
 O    0.4977405597   -2.5844060989    2.3643248817
 C    0.7832255742   -2.1177285990    1.0278495154
 H    0.8175502598    1.8122967271    0.0400246722
 H   -0.7686764992    1.7349601367   -0.7574758893
 H   -0.6737376611    1.8063768058    1.0037256235
 H    1.4398072159    0.8487708503    2.1401110434
 H    3.4550669618   -0.9541574923    2.1452307695
 H    1.3357282239   -1.0560117130    4.3571416620
 H    3.0296007240   -1.5817573331    4.4918121914
 H    2.6588922328    0.1343701530    4.2950565545
 H    2.4931389553   -3.2582523902    1.9696455339
 H    0.4878971035   -2.7690957854    0.2140297160