18

 O    0.0258315626    1.3752270433   -0.1260213184
 C   -0.0004917133   -0.0164364866   -0.0245262851
 C   -0.4473633557   -0.6851524834    1.2648928647
 C   -1.3414292183   -0.6591033524    0.0428356465
 C   -2.6310833568    0.1222068525    0.0264107240
 C   -3.7510102319   -0.8007434614    0.5218775902
 N   -3.7216770313   -2.1187125093   -0.1092147128
 C   -2.6381422740   -2.5042744247   -0.6296126216
 O   -1.4293440430   -1.8787026780   -0.6782353223
 H    0.7715518335    1.6970291261    0.3913693261
 H    0.7485463015   -0.5487519645   -0.6105992232
 H    0.0225461461   -1.6241197264    1.5343058770
 H   -0.7297779449   -0.0434326844    2.0933813485
 H   -2.5383278252    1.0226673304    0.6364833484
 H   -2.8408243317    0.4431814425   -1.0007699533
 H   -3.6822907853   -0.9359430065    1.6095725021
 H   -4.7327317398   -0.3550976546    0.3290187747
 H   -2.5700034424   -3.4611104626   -1.1435219855