15

 O    0.1708506742    1.3601211486    0.3312894381
 C    0.0044907756   -0.0040569101    0.0832648629
 C   -1.4419031406   -0.4857770762   -0.1927684527
 O   -2.0354864228    0.2652683624   -1.2374249799
 C   -1.4759298545   -0.2631298537   -2.4499733993
 C   -0.4607027717   -1.2953887353   -1.8995526687
 O   -1.1786812009   -1.7687969796   -0.7460923347
 C    0.6336184234   -0.4470196803   -1.2501402647
 O    1.6806672154   -0.0604299166   -1.6976487602
 H    0.9994182416    1.6241959302   -0.0906460380
 H    0.4039290210   -0.6286780519    0.8997985507
 H   -2.1172938149   -0.5498225860    0.6584184428
 H   -2.2569918019   -0.7540734035   -3.0400887630
 H   -1.0116922353    0.5351438768   -3.0362638434
 H   -0.1590383185   -2.1037518147   -2.5601546998