20

 C    0.0549017640    1.7161159547   -0.0371933410
 C    0.1942903832    0.2007164896    0.1504970795
 C    0.7082835026   -0.4887745258   -1.1106648330
 C    0.7990707885   -2.0356909574   -1.2333573916
 C   -0.3116349556   -2.9518105724   -0.6396153649
 C   -0.9642720886   -2.9779980124   -2.0543188505
 N    0.0416781073   -1.9741923460   -2.5387497135
 C   -0.2841026596   -0.6140438002   -2.2928625751
 O   -1.1409259762    0.0784365003   -2.7661150428
 H    1.0242576877    2.1763957532   -0.2582987206
 H   -0.6208655974    1.9383793786   -0.8671392615
 H   -0.3406961982    2.1875504994    0.8673066737
 H    0.8799362099   -0.0174379189    0.9789666923
 H   -0.7780156236   -0.2198285127    0.4323995021
 H    1.6539236361   -0.0304530566   -1.4240961795
 H    1.8011886180   -2.4674383071   -1.2718007478
 H    0.0388822668   -3.9147121722   -0.2641254164
 H   -0.9275836997   -2.4812599583    0.1301645850
 H   -0.8641140242   -3.9291263309   -2.5821291865
 H   -1.9946883310   -2.6250395749   -2.1413066379