17

 N    0.9373360694   -0.0690768642    0.6421627671
 C   -0.1705461754    0.1578499954   -0.0991828614
 O   -0.3770760852    1.1524515851   -0.7692401637
 C   -1.2190455234   -0.9586439894   -0.0447348287
 O   -0.7227266423   -2.1183969998    0.6260991440
 C   -1.7776065827   -2.7613327364    1.3468609503
 C   -2.8074565901   -1.6839664132    1.6082434259
 N   -2.1967277525   -0.4690658694    2.1835575099
 C   -2.4581428472   -0.5457514533    0.7317581789
 H    1.6170738161    0.6663550622    0.7387450594
 H    0.9653362875   -0.8783534227    1.2392134385
 H   -1.5010652599   -1.1885048624   -1.0821565688
 H   -2.2226617369   -3.5718323023    0.7502120327
 H   -1.3427819074   -3.1879605042    2.2560067583
 H   -3.8316389056   -1.9518854047    1.8433123842
 H   -2.9187967408    0.0992377931    2.6196140376
 H   -3.1883951336    0.1043203061    0.2666068757