20

 C   -0.9833559838    1.0621207190    0.2080481058
 N   -0.0716161075   -0.0645055908    0.0794122428
 C    0.9261203739   -0.2347193000    0.9996972823
 O    1.0740085712    0.4236764564    2.0081055864
 C   -0.0658595595   -0.7857549886   -1.1600422431
 C    0.1105306252   -2.2743814457   -1.2603050116
 C   -0.5612704788   -3.0208897176   -0.1000983317
 C   -1.9144572937   -2.3270301585   -0.4478712046
 C   -1.2331094738   -1.6129229378   -1.6227826513
 H   -0.7501661492    1.8462489692   -0.5241761498
 H   -2.0152456661    0.7366264012    0.0468191413
 H   -0.8727210536    1.4713407812    1.2121333431
 H    1.5952031018   -1.0696678428    0.7203931927
 H    0.4100903871   -0.2491335766   -1.9828432488
 H    0.8669112747   -2.6922920531   -1.9142030784
 H   -0.5974858758   -4.0971022884   -0.2803377475
 H   -0.1539153348   -2.8489043260    0.8995175560
 H   -2.6756935625   -3.0383206521   -0.7730489012
 H   -2.3453127379   -1.6814499959    0.3224538373
 H   -1.6725810968   -1.4492083130   -2.5994724796