18

 C    0.0398695428    1.5055387552   -0.0192739357
 C   -0.0434820241    0.0044510753    0.0863712850
 C   -1.3674862397   -0.6945704569   -0.2469662783
 C   -1.3607194418   -1.9359496603    0.6099926458
 C   -0.2869648527   -1.9818924591    1.4216198092
 C    0.0154722407   -2.9762120432    2.3821046249
 C    0.3057679273   -3.7948363729    3.2174911932
 C    0.6187214511   -0.8112597840    1.1535152203
 N    1.1930796604   -0.7345448742   -0.2085666025
 H    1.0307937834    1.8542725212    0.2806166147
 H   -0.1321074750    1.8338369084   -1.0510338636
 H   -0.7106151823    1.9879330772    0.6164445445
 H   -2.2233951514   -0.0504577972   -0.0012507967
 H   -1.4585769030   -0.9220213782   -1.3179725216
 H   -2.1264862303   -2.7001681815    0.5555378137
 H    0.5532100422   -4.5247580179    3.9477692424
 H    1.2344804143   -0.4043459478    1.9485939316
 H    0.9972337981   -1.5993298340   -0.7101486567