21

 C   -0.3436158066    1.4194311291    0.0275203672
 N   -0.0384269038   -0.0008566136   -0.0123135258
 C   -0.1467127258   -0.7839859324    1.2046566797
 C   -1.5934174061   -1.1183522334    1.5952983547
 N   -1.5981353859   -1.9153169660    2.8137724024
 C   -1.6927852741   -1.1785441185    4.0725895763
 C   -2.8521913404   -1.9559343372    3.5567736452
 C    0.3749704656   -0.5683415937   -1.1827801699
 O    0.4903111888    0.0046896597   -2.2458537137
 H    0.2711588245    1.9225924811    0.7836611536
 H   -0.1228578215    1.8319042639   -0.9570952823
 H   -1.3983131286    1.6017878422    0.2622439708
 H    0.4019775722   -1.7210945916    1.0710158318
 H    0.3393417524   -0.2431291847    2.0271993557
 H   -2.1858167807   -0.1912082317    1.6991944060
 H   -2.0532375511   -1.7074848393    0.7933137698
 H   -1.0906121114   -1.5600280591    4.8917964270
 H   -1.7639705527   -0.0925269595    4.0249728713
 H   -3.6950376671   -1.3884221573    3.1652660671
 H   -3.1121850699   -2.9165427464    3.9916080122
 H    0.6046327322   -1.6443798615   -1.0526285091