18

 O    0.1761513339    1.4752684810   -0.1324349915
 C    0.0708293099    0.0833421586    0.1158285658
 C   -1.3735685758   -0.4414357230    0.0687590317
 N   -2.1645644412   -0.2257245024    1.2880979815
 C   -2.5169841902    1.1851747363    1.5334032646
 C   -3.5025738351    0.2887464266    0.8792092399
 C   -3.6106294200    0.3637452981   -0.6299949963
 C   -2.1704689746    0.1586212024   -1.1020749348
 O   -1.7142178700    0.4552674685   -2.1789081256
 H   -0.0279648050    1.6008798044   -1.0667605669
 H    0.6755567359   -0.4906740499   -0.5991459895
 H    0.4747569580   -0.0920748170    1.1168186404
 H   -1.3299481635   -1.5291783322   -0.0944106242
 H   -2.6344673940    1.4358169890    2.5832660048
 H   -2.0224361907    1.9472214117    0.9376306607
 H   -4.3442384974   -0.0981884480    1.4447283079
 H   -4.2309185379   -0.4470209973   -1.0330006884
 H   -4.0104553322    1.3041805431   -1.0177135102