20

 O   -0.0270534437   -0.0129745041    0.2419880015
 C   -0.0469606728    1.1998902680    0.1389537287
 C   -1.3821809998    1.9573089920   -0.0004140171
 O   -1.7116466391    2.2684188727   -1.3405599810
 C   -1.1956788098    3.4671782344   -1.8983059396
 C    0.2549348830    3.3582146006   -2.4087366914
 C    1.3570083325    3.8652049919   -1.4640235655
 C    1.2515790760    3.3721894355   -0.0122557329
 N    1.1063827376    1.9353522632    0.1367050488
 H   -2.1434873726    1.2557431098    0.3457508653
 H   -1.4205710520    2.8552027988    0.6346749692
 H   -1.8585824741    3.6745134800   -2.7438742952
 H   -1.3084519326    4.3025099723   -1.1875305761
 H    0.4240417157    2.3067628884   -2.6637355192
 H    0.3382038630    3.9159074858   -3.3485871844
 H    2.3320983196    3.5780183977   -1.8765535478
 H    1.3477816230    4.9629191506   -1.4362452799
 H    2.1432515271    3.6818485295    0.5430028776
 H    0.4083787719    3.8604963395    0.4835098771
 H    1.9425425172    1.3684244733    0.1551294220