20

 C   -0.1183448764    1.4686641793    0.0764353603
 C   -0.0115492120   -0.0424701745    0.0078790798
 O   -1.3482838516   -0.5746762070    0.0016539230
 C   -1.4510285864   -1.9045392536   -0.0429840544
 N   -0.4681681003   -2.7188230433   -0.0779339214
 C   -1.0123088750   -4.0591546948   -0.0542708760
 C   -1.7161931070   -4.4691777269    1.2133621453
 C   -2.5307749085   -3.9828789123    0.0341075388
 C   -2.8503685559   -2.4978229818   -0.0257755083
 H    0.8819076631    1.9118231176    0.0833435848
 H   -0.6633696011    1.8612598085   -0.7867639792
 H   -0.6409477199    1.7826909387    0.9845175585
 H    0.5073878331   -0.3781337051   -0.8963042569
 H    0.5296262104   -0.4591609106    0.8640729382
 H   -0.4825441346   -4.7976125038   -0.6444470972
 H   -1.7741726668   -5.5282532654    1.4427870491
 H   -1.6021447882   -3.8228353029    2.0789833062
 H   -3.1739233251   -4.6863714518   -0.4795471370
 H   -3.4273165432   -2.1222879490    0.8261405138
 H   -3.3988555046   -2.2183002810   -0.9329960477