19

 O    0.2425115315    1.2479001115   -0.4706807471
 C    0.0408166250   -0.1013671691   -0.0666135516
 C    0.6472847998   -0.4540087031    1.3185605931
 C   -0.5449544242   -0.7845306275    2.2376823556
 C   -1.5902534027   -1.3729509636    1.2637729505
 C   -2.9822693906   -1.4661411338    1.8494294985
 O   -3.6072840644   -2.4920435176    1.9484762813
 C   -1.4871624526   -0.4338452203    0.0463744859
 O   -2.2178360009    0.7496785461    0.3299343142
 H    0.0776717656    1.8035787264    0.2993502102
 H    0.4961198476   -0.7005409707   -0.8592682577
 H    1.2999387823   -1.3276125723    1.2251001468
 H    1.2716239241    0.3635178564    1.6916735813
 H   -0.2861291234   -1.4755546009    3.0432557980
 H   -0.9489628941    0.1248571580    2.6956980009
 H   -1.2949552837   -2.3823059012    0.9574243130
 H   -3.3975653029   -0.4999873830    2.2042552048
 H   -1.8693866170   -0.9084236976   -0.8671985578
 H   -1.9364593793    1.3934534523   -0.3325470700