14

 O    0.0033388074    0.0404707031    0.0038511481
 C   -0.0111560098    1.2350698230    0.0103284616
 C   -1.1458850516    2.2743510600    0.0315961725
 C   -0.6785248214    3.0707771423    1.2648478088
 O    0.7751414228    3.0373841345    1.1722864947
 C    1.0819908043    2.3105944457    0.0005132645
 O    0.7424823684    3.0493397785   -1.1546602190
 C   -0.7132035149    3.0835186748   -1.2060085471
 H   -2.1675700572    1.9042978108    0.0440275072
 H   -1.0127584622    4.1143360254    1.2499634207
 H   -0.9920880406    2.6066369417    2.2060438766
 H    2.1330569729    2.0372735330   -0.0156458127
 H   -1.0531493004    2.6290873043   -2.1427714497
 H   -1.0467090576    4.1268291228   -1.1709701862