17

 C    0.2267715335    1.4306948270    0.1133675577
 C   -0.0310085683   -0.0406681961    0.0968912190
 O    1.0234127705   -0.8968728034   -0.3108781658
 C    0.4987905892   -1.1313969145    1.0024546734
 C    1.3751264697   -0.9448331498    2.1764104623
 O    2.4229468562   -0.3457052266    2.1687421991
 C   -0.8090277882   -1.8863444846    0.8971327997
 C   -1.9470031088   -1.0013886725    1.3423275200
 C   -1.3503297555   -0.7843607796   -0.0236098196
 H    1.2044900232    1.6314912811    0.5576369150
 H    0.2239811603    1.8266850375   -0.9083040862
 H   -0.5471889940    1.9547076659    0.6816788081
 H    0.9610246862   -1.3892612598    3.1091636377
 H   -0.9122230923   -2.9556585212    0.7651501683
 H   -2.9262817088   -1.4700783962    1.3588298977
 H   -1.7952462788   -0.2682695872    2.1297919053
 H   -1.9180534741   -0.9131340798   -0.9366166415