21

 C   -0.1310011930    1.5287299799    0.0912742027
 C   -0.0129505719   -0.0104929050   -0.0127040234
 C   -1.4170358009   -0.6284570658   -0.0459433819
 C    0.7808377441   -0.4245366318   -1.2706684644
 C    2.2489917840    0.0179109082   -1.2479272038
 C    2.9028077966   -0.2855023510    0.0679987397
 C    2.2109177470   -0.5296051025    1.1877076299
 C    0.7330813403   -0.4849139378    1.2495107716
 O    0.1436472377   -0.7606902353    2.2769729674
 H    0.8453346122    2.0166877274    0.1679462695
 H   -0.6420894468    1.9282803626   -0.7914960251
 H   -0.7113427649    1.8044377682    0.9763850264
 H   -1.9881873793   -0.2325823319   -0.8924387581
 H   -1.3673048073   -1.7173450203   -0.1489341202
 H   -1.9554348180   -0.4079723741    0.8776484784
 H    0.7510038106   -1.5184790452   -1.3530771077
 H    0.2806062997   -0.0309058217   -2.1633019051
 H    2.8049711250   -0.4697617635   -2.0576365111
 H    2.3382556255    1.0961837434   -1.4483262923
 H    3.9907096760   -0.2965857985    0.0947242058
 H    2.7031915537   -0.7620587652    2.1271950420