16

 C    0.1089827733    1.4773082369    0.0148516501
 C    0.0608380329   -0.0372804352    0.0046559577
 O    0.7686528649   -0.5485071210   -1.1124719237
 C    1.2645978068   -1.8138359479   -0.7159302462
 C    2.5545892113   -1.7831248887    0.0699757473
 C    1.2194828605   -1.8224572458    0.7761002337
 O    0.7000485563   -0.5616171339    1.1565388273
 C   -1.3517769810   -0.5365704389   -0.0409699120
 N   -2.4396629062   -0.9236612552   -0.0759936638
 H    1.1542378597    1.7894912426    0.0482722743
 H   -0.3634556238    1.8706744253   -0.8873488723
 H   -0.4172609170    1.8604095380    0.8913223489
 H    0.9790320049   -2.6402954828   -1.3549055117
 H    3.1544587125   -2.6872920402    0.0828915025
 H    3.1030622860   -0.8488738086    0.0919578540
 H    0.8961199688   -2.6561382444    1.3870708638