19

 C   -0.0872066020    1.6483535011    0.0704267620
 C   -0.2618265417    0.1821624725   -0.3014305989
 C   -0.0460537246   -0.8822114316    0.7405208765
 C   -1.4383522921   -0.5956651554    0.2309575490
 C    1.3437150202    2.0864113141    0.1121336039
 N    2.0901954964    2.1839949235    1.1924927752
 C    3.3360827746    2.5739990071    0.7554822122
 C    3.3476959368    2.7154155385   -0.6049854737
 N    2.0663617493    2.4002805483   -1.0063572179
 H   -0.6560819172    2.2778560238   -0.6271246871
 H   -0.5024899736    1.8222176402    1.0673285150
 H    0.0579919557   -0.0666187378   -1.3105933171
 H    0.4307545256   -1.8090136579    0.4416645151
 H    0.2118706544   -0.5527345272    1.7411633908
 H   -2.1261764188   -0.0808003440    0.8940611073
 H   -1.9118991527   -1.3250115346   -0.4171247521
 H    4.1494730053    2.7351321814    1.4465839965
 H    4.1110154199    3.0070809576   -1.3068705040
 H    1.7241727045    2.4098540904   -1.9524085129