19

 O   -2.4510099609    1.5056497676   -1.3393479142
 C   -2.3460192782    0.0912492857   -1.2906328193
 C   -1.6258862820   -0.3933554180   -0.0249659803
 C   -1.5173345290   -1.9066117838    0.0399694585
 O   -0.7113607276   -2.3191896480   -1.0229972607
 C   -1.2883673021   -2.6814190335    1.3868806224
 C   -2.7439578849   -2.4162277137    1.8194569036
 C   -2.7505912274   -2.8384360532    0.3376340443
 O   -1.7682919782   -3.9079519735    0.6837164851
 H   -1.5652915228    1.8605754069   -1.4649453252
 H   -3.3770803363   -0.2802125130   -1.2982720357
 H   -1.8457297422   -0.3128749678   -2.1798106754
 H   -0.6043568273    0.0084589059   -0.0190234539
 H   -2.1382111971    0.0163139660    0.8479877861
 H   -0.6789614979   -3.2848437714   -0.9436809764
 H   -0.3846837030   -2.7799458221    1.9899079340
 H   -3.1458478941   -3.1724463709    2.4929154942
 H   -3.0482280221   -1.4053912597    2.0908817225
 H   -3.5844562469   -3.1262551437   -0.3038818998