19

 C    0.0366468799    1.5216067995    0.0584738720
 C    0.0247276464   -0.0052194760    0.0390643541
 C    0.7483920495   -0.5789522117    1.2628864669
 O   -1.3445080561   -0.4032269251    0.0104685662
 C    0.6373085454   -0.5213896990   -1.2811243055
 O    2.0757563472   -0.3940669541   -1.4257349432
 C    2.2810595203   -1.8077165131   -1.6420969574
 C    0.7856159099   -2.0378983269   -1.4023061568
 O    0.0567468185   -2.9759484041   -1.2617792928
 H    1.0612484262    1.8965170064   -0.0141677403
 H   -0.5442307671    1.9151103329   -0.7803022435
 H   -0.4093870526    1.8892953617    0.9869014897
 H    0.2895844122   -0.1924492977    2.1764947236
 H    0.6793233761   -1.6720395029    1.2890087911
 H    1.8060522064   -0.3013814368    1.2538241715
 H   -1.3745027937   -1.3676876098   -0.0376462629
 H    0.1007309603   -0.0643699726   -2.1232657821
 H    2.6302470415   -2.0373171700   -2.6568951515
 H    2.9573012499   -2.2635084507   -0.9089943492