18

 C   -0.0506903806    1.5048735758   -0.0741269509
 C   -0.0034275316   -0.0043802335    0.0860003645
 O   -1.3279180127   -0.5014418401   -0.0489492827
 C   -1.4437504078   -1.8936995385   -0.0170056959
 C   -1.4394327099   -2.4722027071    1.4113315903
 C   -2.7444599316   -2.2576847631   -0.7288456515
 O   -3.5675537978   -1.4812277541   -1.1278854118
 C   -2.9406819651   -3.7177116780   -0.9094418618
 N   -3.0834956957   -4.8550954448   -1.0619282587
 H    0.9547845555    1.9258508892    0.0176340811
 H   -0.4556702754    1.7732961020   -1.0533722156
 H   -0.6868231294    1.9517476217    0.6946382156
 H    0.6440337986   -0.4580595076   -0.6819624961
 H    0.4157973936   -0.2724544310    1.0676142615
 H   -0.6331075553   -2.3744771781   -0.5954738410
 H   -0.4805977622   -2.2668811635    1.8925709519
 H   -2.2339725608   -2.0082127199    2.0019487772
 H   -1.5856514816   -3.5556157096    1.4021104939