16

 C    0.0157990406    1.4606108632    0.1394473975
 C   -0.0074273824   -0.0179381460   -0.0585273048
 C    0.7129729260   -0.9373392011   -1.0700901191
 C    0.0517268110   -1.8359185316   -0.0122294705
 O    0.5115411490   -0.8986033505    1.0414850591
 C   -1.2612447140   -0.9844036570   -0.0816352887
 O   -2.0793919843   -0.9743826227    1.0374620684
 C   -2.0838112348   -1.0393426151   -1.2864945564
 N   -2.6961647151   -1.0738300860   -2.2655101393
 H    1.0340715102    1.8062727988    0.3387563957
 H   -0.3552418758    1.9621607080   -0.7593532075
 H   -0.6243855051    1.7408768847    0.9812416513
 H    0.3412978819   -0.9733569469   -2.0953389812
 H    1.7999365980   -0.9045781640   -1.0060132793
 H    0.1574332162   -2.9022980540    0.1818888119
 H   -1.4576081814   -0.9525742098    1.7826171327