15

 C   -0.0056900444    1.4706872895   -0.1327186220
 C   -0.0809669422   -0.0161968940   -0.0344040539
 O    0.6098720853   -0.7636559467   -1.1565152881
 C   -0.0112089163   -1.8424189498   -0.5213457871
 N    0.6415744956   -2.7000373216    0.1442203793
 C    0.2924906141   -2.2787594390    1.5492947178
 C   -0.3111026394   -0.8641605876    1.3428132556
 C   -1.1542247369   -0.9921000898    0.1179599669
 H    1.0260181091    1.8170492507   -0.0240277152
 H   -0.3845924734    1.8057681433   -1.1029575546
 H   -0.6078784336    1.9270791965    0.6577347026
 H   -0.4095338252   -2.9372756767    2.0833881587
 H    1.2433131904   -2.2794433591    2.0905797613
 H   -0.6230744613   -0.2593559956    2.1919201020
 H   -2.2196762617   -0.9869037900   -0.0716411231