15

 N   -0.1514315030    1.4525266488    0.1633914905
 C   -0.0064371688    0.0760581442   -0.0139620953
 C   -1.0561838160   -1.0130939550   -0.0873552966
 C   -0.4007176597   -1.6698887457   -1.2983274162
 C    0.9047337577   -0.9935954456   -0.8146185412
 O    1.2053912606   -1.6854703228    0.4271025860
 C    0.0721361535   -1.0442791364    0.9932787601
 C   -0.1664047401   -1.0696783254    2.3949849942
 N   -0.3673490709   -1.0714131666    3.5345288434
 H    0.7110571194    1.9172472413    0.4227383609
 H   -0.5606827839    1.9183530986   -0.6382387453
 H   -2.0979530801   -0.9524506235    0.1989144257
 H   -0.3788798534   -2.7607360958   -1.3629009921
 H   -0.7685289645   -1.2317197850   -2.2295933910
 H    1.7783602592   -0.8398917012   -1.4434466529