23

 C    0.0338041369    1.6311403077   -0.1039366442
 C    0.0149301183    0.1008414518   -0.0430236709
 C   -1.3918163415   -0.5033912071    0.0795395876
 C   -1.4022121615   -2.0662079522   -0.0546494224
 C   -2.5962427915   -2.5037952925    0.8129726913
 C   -2.5437269712   -3.4194772037    2.0899685614
 C   -3.2031239608   -2.2476350638    2.9130040156
 C   -2.7596172522   -1.3583721705    1.7741591875
 C   -2.0546438221   -0.2822955985    1.4446817789
 H    1.0554006660    2.0112772113   -0.2040251338
 H   -0.5433490325    1.9982547056   -0.9600441457
 H   -0.3968823445    2.0779709314    0.7982505474
 H    0.4885959453   -0.3007697419   -0.9485890745
 H    0.6256675081   -0.2466113403    0.8011047436
 H   -2.0094479386   -0.0653986233   -0.7214131447
 H   -1.4566067523   -2.3961653999   -1.0968492889
 H   -0.4676892298   -2.4582763198    0.3670857305
 H   -3.4931939250   -2.7247524801    0.2209913194
 H   -3.0898220633   -4.3653787567    2.0549752412
 H   -1.5157773666   -3.6032311511    2.4132517201
 H   -4.2900591999   -2.3709804497    2.9722274556
 H   -2.8193685950   -2.0319472925    3.9131342379
 H   -1.8770751763    0.5981428456    2.0520863072