19

 C    0.3312466159   -2.0616001521   -1.9009614028
 C    0.1759251374   -1.7762752206   -0.4071399278
 O    1.0300434720   -0.7142494043    0.0196839042
 C   -1.2712091461   -1.4822140944   -0.0526026176
 C   -2.1632255303   -2.5327065676    0.5207454147
 N   -1.7472268012   -1.3904814820    1.3271826842
 C   -0.8010666692   -1.6237002610    2.4140800727
 C   -1.5223759733   -1.8209014774    3.6768256814
 N   -2.0749986235   -1.9927683529    4.6762100049
 H    1.3831295077   -2.2333221226   -2.1424083892
 H   -0.2474083655   -2.9419669261   -2.1971697169
 H   -0.0240625854   -1.2119561070   -2.4969144795
 H    0.5277952865   -2.6472734467    0.1555157043
 H    0.7889866721    0.0773150240   -0.4752862592
 H   -1.7237265404   -0.7245806862   -0.6952170183
 H   -3.2177493997   -2.5757194594    0.2650914362
 H   -1.7085068456   -3.4998420852    0.7354743882
 H   -0.1440715909   -2.4953683635    2.2684351064
 H   -0.1488140105   -0.7496649348    2.5029745940