21

 C    0.6456093330    1.4473115387   -0.0571279862
 C   -0.1003561243    0.1109141568   -0.1236174592
 C    0.3880591726   -0.7737602567   -1.3090200912
 C    0.9897944541   -2.0359369755   -0.6357062738
 C    2.1675370683   -2.5659419014   -1.3318872120
 N    3.0840595028   -2.9947762823   -1.8897870581
 N    1.3096280571   -1.5926357294    0.7192253750
 C    1.6411979686   -2.6596813627    1.6451396190
 C    0.1689015796   -0.7709871859    1.1118815215
 H    1.7163442146    1.2786963623    0.0973415959
 H    0.5220603198    2.0154749830   -0.9848933799
 H    0.2749176229    2.0662246187    0.7665226805
 H   -1.1730457787    0.3050631813   -0.2135503419
 H   -0.4148769819   -1.0504010977   -1.9948833005
 H    1.1537202952   -0.2554789006   -1.8903460873
 H    0.2316418570   -2.8447784137   -0.6274903508
 H    2.5123206071   -3.2118874175    1.2813307421
 H    1.8932933024   -2.2316695875    2.6195612158
 H    0.8098142064   -3.3760023238    1.7882353525
 H    0.4118270543   -0.1915484506    2.0082681752
 H   -0.7170261912   -1.3935807755    1.3473601335