19

 C   -0.0771759549    1.5840534332    0.0634186116
 N    0.0019051057    0.1378116411    0.1197687642
 C   -1.2374824570   -0.6755226011    0.4351341452
 C   -0.2872317503   -1.6934192618    1.1245922583
 C    0.6919687845   -2.6626213158    0.4600053501
 C    1.5196516040   -1.8761555127    1.4750046569
 N    0.3862018411   -1.9323371965    2.5568783083
 C    0.4557775955   -0.4185246360    2.7340519148
 C    0.6858563667   -0.5456441255    1.2246965831
 H    0.9268734000    1.9960118889   -0.0783468085
 H   -0.6884470773    1.8904850073   -0.7920970833
 H   -0.5120837305    2.0362436102    0.9725572935
 H   -1.9338767657   -0.1622504935    1.1132421924
 H   -1.7815019498   -1.0313541610   -0.4451493340
 H    0.5539691327   -3.7270190197    0.6670979448
 H    0.9117439944   -2.4722126073   -0.5921676413
 H    2.5551456342   -2.0126562257    1.8029274578
 H   -0.4836404436    0.0108762031    3.0966243488
 H    1.2912056502   -0.0929495871    3.3612612473