19

 C    0.0540443160    1.5987905373   -0.1324094975
 C    0.1510277104    0.0790592630   -0.0448217962
 O   -1.1563575985   -0.5034983530   -0.0541208512
 C    1.0267521660   -0.5764110927   -1.1327309594
 C    1.3620292682   -1.9212385522   -0.4951390073
 O    1.5864889235   -1.6182654528    0.8816810729
 C    0.8079188685   -0.4917277316    1.2569095462
 C    1.7118434134    0.4752304877    2.0089670230
 O    1.3118903812    1.3945075512    2.6748411749
 H    1.0400089862    2.0700367119   -0.1667218557
 H   -0.4810043185    1.8808664892   -1.0468465436
 H   -0.4848995715    2.0024355313    0.7274355057
 H   -1.6177767658   -0.1762520754   -0.8342843174
 H    0.4958297479   -0.6620755514   -2.0848276695
 H    1.9380010510    0.0103081109   -1.2928353001
 H    0.5223256421   -2.6208582243   -0.6025392941
 H    2.2681773732   -2.3904343555   -0.8867719511
 H   -0.0106319296   -0.7795686355    1.9286082779
 H    2.7947392363    0.2431286619    1.8962126326