21

 C   -0.3956022223    1.2419023166   -0.1484500404
 C   -0.0265010999   -0.2159009670    0.0710592428
 C    1.2432587927   -0.7634608211   -0.6362029655
 O    1.7411208314   -1.3182674601    0.6024973228
 C    0.6764738028   -0.6885419977    1.3830905387
 C    1.2603587324    0.3981737623    2.2788711368
 C   -0.0848593578   -1.7344226494    2.1845099940
 C    1.0655092861   -1.7446250331   -1.6930205125
 C    0.9019497487   -2.5450819758   -2.5751220200
 H    0.4517878582    1.9124684069    0.0226677823
 H   -0.7390628880    1.3963207505   -1.1769200969
 H   -1.2078542731    1.5490836888    0.5187642152
 H   -0.8875824191   -0.8530539477   -0.1454013459
 H    1.9045560060    0.0406726790   -0.9923892673
 H    1.8507577366    1.1171411558    1.7055035161
 H    0.4713417405    0.9422862162    2.8091687573
 H    1.9199528909   -0.0572730560    3.0241706460
 H    0.5619755483   -2.1800300177    2.9473364145
 H   -0.9467394225   -1.2831151219    2.6889748309
 H   -0.4418323801   -2.5343125303    1.5303766607
 H    0.7651326382   -3.2560298482   -3.3520988496