15

 C   -0.0402430807    1.4857061289    0.0108225223
 C    0.0004956451   -0.0301274044    0.0023316148
 O   -1.3586953467   -0.4953497721    0.0106998756
 C   -1.5251986397   -1.8242925092    0.0048810071
 C   -2.7285049572   -2.4993362148    0.0107603376
 N   -2.3408062031   -3.8004958280    0.0001253212
 N   -1.0114490690   -3.9336763525   -0.0099497137
 N   -0.5079732159   -2.7227338840   -0.0078958996
 H    0.9781858824    1.8850198304    0.0048125927
 H   -0.5661268897    1.8656147944   -0.8697044942
 H   -0.5519182067    1.8560668254    0.9037020429
 H    0.5108718023   -0.4181467896   -0.8865285017
 H    0.5249863452   -0.4276506877    0.8786873209
 H   -3.7545414449   -2.1788544950    0.0205077828
 H   -2.9167176515   -4.6270150917   -0.0002204686