18

 O    0.8296023347    1.1365195062    0.1720784335
 C    0.2829668728   -0.0864976672   -0.0561583099
 C   -0.3649799027   -0.6480148576   -1.1290306479
 C   -0.6917239761   -1.9863181790   -0.7410719097
 C   -0.2356769499   -2.1969364866    0.5370154775
 N    0.3604410571   -1.0079443955    0.9459868300
 C   -0.3150117113   -3.3609488326    1.4402451824
 C   -0.2788422581   -4.7569804709    0.8721826888
 C    0.8948900557   -4.2537984546    1.6683972705
 H    0.7026666122    1.6723578268   -0.6163529338
 H   -0.5803240870   -0.1663536980   -2.0703146293
 H   -1.2222634298   -2.7118991424   -1.3386569793
 H    0.8228888502   -0.8522316945    1.8250489674
 H   -0.9543539972   -3.2347567342    2.3131941513
 H   -0.9255086237   -5.5035288128    1.3188809375
 H   -0.1517707198   -4.8556397690   -0.1994127390
 H    1.8026006253   -4.0118671462    1.1271542069
 H    1.0531405675   -4.6533525119    2.6642754331