16

 O    0.1022546210    0.0237298783    0.2799134331
 C    0.0476827197    1.1846386750   -0.0078286926
 O   -1.1162778158    1.9049892050   -0.0694648593
 C   -0.8220130601    3.3124697059   -0.0884412575
 C    0.6346281760    3.4061846630   -0.5771427896
 C    1.6563831136    4.2922692543    0.1840827129
 C    2.7435853367    3.2945679672    0.5499418826
 C    2.3585160572    2.0503780026    0.2644966954
 N    1.0938252277    2.0270608112   -0.3568473065
 H   -1.5372426220    3.8014366953   -0.7517214477
 H   -0.9408923878    3.7135344185    0.9261633659
 H    0.6645873140    3.6278978835   -1.6496031981
 H    2.0188668614    5.1077619686   -0.4481395789
 H    1.2228539808    4.7572798089    1.0816626426
 H    3.6796969827    3.5671716785    1.0155865721
 H    2.8606010649    1.1108809841    0.4443968357