25

 C    0.0368419332    1.6388769384    0.2520394129
 C   -0.0243574062    0.1163389543    0.1034860550
 C    0.7658169840   -0.3992998900   -1.1070069792
 C    0.7446677043   -1.9201989130   -1.2469601718
 C   -0.4765719402   -2.6122293924   -1.9282175176
 C   -1.7137177824   -1.8411521923   -2.3460983870
 O    0.3305194810   -2.9862767202   -3.0684918137
 C    1.5479120364   -2.5610718098   -2.4155240859
 C    2.4214412868   -1.7143571385   -3.3206425761
 H    1.0705073109    1.9839557024    0.3672496365
 H   -0.3813138699    2.1404550368   -0.6278013339
 H   -0.5265034429    1.9781613333    1.1269053804
 H    0.3670643431   -0.3572990271    1.0136579127
 H   -1.0712046330   -0.2009604471    0.0247469390
 H    0.3910711433    0.0813339850   -2.0187358206
 H    1.8104606497   -0.0737506163   -1.0075824569
 H    0.9895924814   -2.3635482826   -0.2766832889
 H   -0.7855155079   -3.5115206584   -1.3734456096
 H   -1.4600285159   -0.9094053855   -2.8583790035
 H   -2.2993505841   -2.4546136368   -3.0386079946
 H   -2.3461648270   -1.6108334708   -1.4826594060
 H    2.1212087603   -3.4381225598   -2.0776821938
 H    1.8981013519   -0.8186693680   -3.6647754739
 H    3.3379663967   -1.4103395154   -2.8034642561
 H    2.7088265664   -2.2983872661   -4.2008822773