16

 O   -0.7045080223    0.9519930337    0.1379446816
 C   -0.3669226929   -0.4198001054   -0.0351845582
 C    0.5198212837   -0.6397433671   -1.1752127931
 C    1.2809703619   -0.8250652250   -2.0956980087
 C    2.1815714418   -1.0157143414   -3.2048635194
 O    2.5079600214   -2.0955424749   -3.6394066122
 C    0.2353265980   -1.0353529404    1.2344519947
 C    1.1282027627   -0.2379627846    2.1047330343
 N   -0.2435393573   -0.5718839484    2.5345040789
 H    0.0802578872    1.4800275290   -0.0440306705
 H   -1.3219470683   -0.9248598882   -0.2327294430
 H    2.5642293092   -0.0719697206   -3.6435017557
 H    0.3871282855   -2.1092160438    1.1564693379
 H    1.9220581507   -0.7273210274    2.6603782216
 H    1.3389144867    0.7906562597    1.8240744843
 H   -0.8331389679    0.2459321548    2.3844715975