17

 C   -0.3838792689    1.6214471571   -0.4428691801
 C   -0.0097464964    0.1901596970   -0.1098021591
 C    0.7638840236   -0.6493169080   -1.2051637082
 C    1.8902053048   -0.7338167715   -0.1856626510
 C    3.0546351220   -1.1160978281    0.4157998072
 N    3.0805399209   -0.5790000241    1.7029545313
 C    1.9560766198    0.0815382131    1.8593833102
 O    1.5600294599    0.7528990912    2.9562309192
 N    1.2077223773    0.0309393331    0.7342856532
 H    0.4669212143    2.1554306019   -0.8762241926
 H   -1.2081136897    1.6348006766   -1.1633702631
 H   -0.7076767464    2.1581140594    0.4540974825
 H   -0.8594251059   -0.3503292753    0.3178886295
 H    0.2855044693   -1.5939545826   -1.4753853799
 H    0.9816448745   -0.0866757819   -2.1174275776
 H    3.8708626030   -1.7175601252    0.0501613640
 H    2.2690255080    0.6444259772    3.6026235247