21

 C   -0.3140470914    1.5595349416    0.0415498749
 C    0.0538478097    0.1009218510    0.0833117284
 C   -1.0505463947   -0.9898822248    0.0584338211
 C   -0.3357151824   -1.7354084419    1.2290315529
 C    0.7787450155   -0.6552244206    1.2452605847
 C    1.8716511321   -0.8663497881    0.2122085780
 C    3.3489456702   -0.6904844714    0.3405712030
 C    2.7545092170   -2.0409349579   -0.0477813843
 O    1.1363850925   -0.2230972619   -0.8346360298
 H    0.5633242017    2.1875722762    0.2220546385
 H   -0.7202865916    1.8177569759   -0.9432960350
 H   -1.0744196530    1.7921495098    0.7940339086
 H   -2.0470379117   -0.6198283409    0.3151349769
 H   -1.1037980906   -1.5231390646   -0.8927599038
 H   -0.9252990932   -1.7545579145    2.1483946780
 H    0.0069488464   -2.7512257670    1.0173821900
 H    1.0604076540   -0.2034004714    2.1967126736
 H    3.8466554218   -0.1238106858   -0.4392503329
 H    3.7766222224   -0.5769845229    1.3318235697
 H    2.7769757494   -2.8479492749    0.6779016509
 H    2.8682526661   -2.3549569860   -1.0798132932