18

 C   -0.0275716917    1.4908018930    0.0630200134
 C    0.0179467570   -0.0003312860   -0.0025154074
 C    0.2793536568   -0.9810714156   -1.1918131256
 C   -0.6230159475   -2.0183499475   -0.5419120850
 C    0.8646233416   -2.0009455923   -0.2269281350
 C    0.6060929213   -1.0252218546    0.9671156780
 C    1.3114472569   -0.8425280764    2.2705506584
 C   -0.8882472165   -1.0479674865    0.6446517686
 H    0.9257209742    1.9383773024   -0.2438110494
 H   -0.8112354788    1.8981897066   -0.5872666939
 H   -0.2387896843    1.8295136939    1.0834968501
 H    0.5023015876   -0.8157409113   -2.2381260650
 H   -1.2213876303   -2.7948582000   -0.9997183638
 H    1.6176247904   -2.7592709297   -0.3993874997
 H    2.3631113947   -0.5662044555    2.1260369736
 H    0.8391866893   -0.0494980210    2.8611306016
 H    1.2877284179   -1.7590388948    2.8725570760
 H   -1.7344665685   -0.9078851647    1.3060117452