16

 N    0.1071043055    1.2413792740   -0.3281155883
 C   -0.0355034251   -0.0049597514   -0.1507067106
 N   -1.2461113825   -0.6679012909    0.0782832279
 C   -1.1643295775   -2.1297556723    0.2813349751
 C   -2.4113962883   -2.8231221642   -0.1838844449
 C   -3.5569588631   -2.1471995505   -0.1539552052
 N   -3.5762197152   -0.8177263223    0.2502837341
 C   -2.4589263034    0.0166149109    0.2691733992
 O   -2.5762418950    1.2072440010    0.4214488341
 H    1.0918653690    1.4423830894   -0.4975488367
 H    0.7858041298   -0.7322111177   -0.1748440333
 H   -0.2958947245   -2.4922928426   -0.2757847755
 H   -0.9683176860   -2.3491357912    1.3446194190
 H   -2.3647671110   -3.8546761276   -0.5029056705
 H   -4.5157318222   -2.5651286579   -0.4362987077
 H   -4.4424652506   -0.3057121966    0.2887605534