14

 O    0.0164565974    1.3285933064    0.4085561679
 C   -0.0439415689   -0.0856087458    0.4189144487
 C   -1.4946227532   -0.5287780247    0.1181485106
 O   -2.4000894616    0.1880267950    0.9392944784
 C   -1.8678676686   -0.2019181180   -1.3379131731
 O   -1.2216068956    0.5398810364   -2.0369467751
 C   -1.6614858909   -2.0094453940    0.3995807786
 O   -1.4548688509   -2.8575289708   -0.4300764305
 H   -0.0868359995    1.5856882212   -0.5189562395
 H    0.6420941852   -0.5416838206   -0.3037903979
 H    0.2377137229   -0.4071855069    1.4261623173
 H   -1.9840434294    1.0556527755    1.0697439782
 H   -2.8272840487   -0.6346499310   -1.6824675681
 H   -1.9753172383   -2.2406651428    1.4398600946