16

 O    0.1317521467    1.3973527202    0.2424472251
 C   -0.0120356682    0.0013309997    0.0523338306
 C   -1.4451306744   -0.4326389373   -0.1235475857
 C   -2.2226284960   -0.1055568443   -1.3450940793
 C   -1.3584526647    0.2714326897   -2.5372685293
 C   -0.4764879639   -0.9596794790   -2.1431339514
 N   -1.5674540644   -1.4635385738   -1.2022020943
 C    0.6417625848   -0.4381809084   -1.2751290729
 O    1.8028745511   -0.2770345122   -1.5509467447
 H    1.0710669514    1.5947375063    0.1344158356
 H    0.4451526064   -0.5634448219    0.8808043875
 H   -2.0253469937   -0.6724687015    0.7606796981
 H   -3.3009953323    0.0072894356   -1.2928716568
 H   -1.8723008781    0.0853076534   -3.4818166981
 H   -0.8982169882    1.2622871404   -2.5574600267
 H   -0.1868737765   -1.6569833570   -2.9254080776