17

 C   -0.0021128176    1.5295212435    0.0251472217
 C   -0.0012628835    0.0341308397    0.0876849648
 C    1.1578158380   -0.8507050277   -0.3023151104
 C    0.5629184811   -0.9670580264    1.0866465242
 O    1.2868259618   -0.7353691255    2.2435266421
 C   -0.7502940886   -1.6996890180    1.0057404523
 C   -1.8851615740   -0.7800789866    1.2538115893
 N   -1.2537773788   -0.7513848473   -0.0800179772
 H    0.9611418243    1.9272987205    0.3573967363
 H   -0.1808503143    1.8776061698   -0.9981781815
 H   -0.7805893936    1.9547109348    0.6671796830
 H    1.0210603604   -1.6351647832   -1.0423761211
 H    2.1190704502   -0.3451265465   -0.3331025929
 H    2.0103697185   -1.3701795814    2.2854281748
 H   -0.8822666532   -2.7733058327    0.9065292396
 H   -2.8854144783   -1.2025805509    1.2394670616
 H   -1.7507128123    0.0653209480    1.9239899934