18

 O    0.0006175663    0.0151860341   -0.0799346191
 C   -0.0232114207    1.2098099479   -0.0325561866
 C   -1.1186296650    2.2757789736   -0.0301225805
 C   -1.4727380016    2.8261467050    1.3792660479
 C   -0.3371527906    3.8708892854    1.1750375881
 C    0.9444997124    3.7320369690    1.9958745676
 C    1.7132407180    2.5398224582    1.3708225188
 C    1.0443515583    2.3195001232   -0.0093587990
 N   -0.0461228691    3.3461729340   -0.2107897467
 H   -1.9209073511    2.1871923881   -0.7657466185
 H   -2.4717461154    3.2617733526    1.4321664931
 H   -1.3577038834    2.1247984657    2.2100078711
 H   -0.6984014193    4.9020149265    1.1531336166
 H    1.5339431305    4.6495843758    1.9029288729
 H    0.7374264071    3.5870685074    3.0602775070
 H    2.7783108650    2.7574143051    1.2680311215
 H    1.6329409227    1.6357638867    1.9812182746
 H    1.7586223660    2.2775422118   -0.8358663488