20

 C    0.1770663584    1.3903298488    0.0542506724
 O    0.0373892735   -0.0091542325    0.0218888614
 C    0.6780338195   -0.6516314453    1.1024648088
 C    0.5232338467   -2.1684307947    0.9400332053
 C    1.2182410375   -2.6617825448   -0.3338552827
 C    1.0086699887   -2.8429129368    2.2102855410
 C    1.6805788238   -4.1468197771    2.2625100534
 O    2.4246902196   -2.9356185295    2.4118890910
 H    1.2340804973    1.6971505063    0.0101706265
 H   -0.3443745733    1.7924097162   -0.8179241993
 H   -0.2663994209    1.8250797975    0.9644366761
 H    1.7484463345   -0.3865379110    1.1339569219
 H    0.2334344490   -0.3226959252    2.0580705990
 H   -0.5545714130   -2.3681778789    0.8622257013
 H    0.9387850126   -2.0231594832   -1.1738773588
 H    2.3055819246   -2.6247196621   -0.2142151275
 H    0.9323968202   -3.6889371233   -0.5777928215
 H    0.4693922914   -2.5360230563    3.1098678559
 H    1.5955994283   -4.7561755952    3.1615544086
 H    1.8731708516   -4.7002455429    1.3463516271