13

 N   -0.0102578371    1.4788014701    0.0187511864
 C    0.0202791623    0.0336549207   -0.0300340322
 C    0.8350899647   -0.4882479023    1.1845091375
 O    2.1590926066    0.0261059339    1.1631435964
 C    0.2212131753   -0.0345810545    2.4497703495
 N   -0.2862460021    0.2803338958    3.4365995297
 C    0.8540344703   -1.9698048478    1.1584112153
 N    0.9005211917   -3.1196889320    1.0628081529
 H    0.9100392490    1.8649389872   -0.1565095390
 H   -0.6524864443    1.8538498206   -0.6681830975
 H   -0.9991169703   -0.3583468246    0.0375348522
 H    0.4853510171   -0.4123304990   -0.9271568482
 H    2.6547041168   -0.4556274080    0.4891935969