14

 O   -0.0151311131   -0.1854606017    0.2769910281
 C   -0.0225137149    1.0149344268    0.1334344378
 C    1.1637230464    1.8299643056    0.0524576099
 C    2.1352637468    2.5444980339   -0.0152736961
 C    3.3374770081    3.3495158595   -0.1130013825
 C    4.1314600182    3.1634233743   -1.4561755029
 N    4.1684469974    4.5021222078   -2.0531693886
 C    3.5414919832    5.2629794655   -1.2619392716
 O    3.0090487145    4.7678772843   -0.1144751987
 H   -0.9683560583    1.5871695532    0.0519259245
 H    3.9717569988    3.1675410924    0.7604516710
 H    5.1455401979    2.7977622795   -1.2737409827
 H    3.6346353333    2.4598162185   -2.1291071296
 H    3.3734637216    6.3244306104   -1.4043532785