24

 C    0.0243718940    1.5814891894   -0.0090096327
 C   -0.0292277140    0.0524825835    0.0218419260
 C   -1.4694033876   -0.4485978835    0.1363569805
 N   -2.3174043997    0.0338282963   -0.9501168670
 C   -2.4853683833   -0.8453195500   -2.1025903603
 C   -3.5939233770   -0.6442398638   -1.1296356759
 C    0.8593689523   -0.5933716140   -1.0933298394
 C    1.9923887079   -0.7868731288   -0.0510084573
 C    0.9532503587   -0.5500918248    1.0772314023
 H    1.0549770452    1.9416359084   -0.0951473865
 H   -0.5520877903    1.9687477933   -0.8528740781
 H   -0.4002132118    2.0037939525    0.9095218857
 H   -1.4705885921   -1.5538245760    0.1937384318
 H   -1.9006598818   -0.0806255132    1.0775556648
 H   -2.5036974339   -0.3600122402   -3.0743211503
 H   -1.9853527252   -1.8124872938   -2.0861188618
 H   -3.8269982852   -1.4773831414   -0.4674500022
 H   -4.4397819363   -0.0077203923   -1.3743891534
 H    0.4566727494   -1.5510057033   -1.4361606729
 H    1.0762937206    0.0226889436   -1.9699569740
 H    2.5123212525   -1.7476140958   -0.0539148024
 H    2.7437160029    0.0055074701   -0.0979648697
 H    1.2441230635    0.1023421938    1.9054750366
 H    0.5786615411   -1.4907651200    1.4942832660