17

 C   -0.0480388898    1.3931484263    0.0077135704
 N   -0.0358342558   -0.0463221626    0.1086393709
 C   -1.2083282711   -0.8510380349   -0.1485434355
 C   -0.6436947270   -2.2874718445   -0.0013111638
 N    0.7614874438   -2.1039642642   -0.2932430717
 C    1.1320045841   -0.7732877985   -0.0509684699
 O    2.2606355756   -0.3416387824   -0.0041967167
 C   -0.8962373567   -2.8745927172    1.3846349442
 O   -0.0274663133   -3.2957000658    2.1000854248
 H    0.9812570625    1.7372929465    0.1219282494
 H   -0.4323472716    1.7320221456   -0.9654502356
 H   -0.6668022228    1.8353327355    0.7963747689
 H   -2.0154417602   -0.6459201594    0.5660466352
 H   -1.6083140390   -0.6859081797   -1.1604791602
 H   -1.1360664803   -2.9615500982   -0.7168149572
 H    1.3994029808   -2.7878413915    0.0913404519
 H   -1.9703436891   -2.9134899651    1.6795957550