16

 C   -0.0475927252    1.5456605546    0.4191407975
 C   -0.1755057179    0.0383498247    0.2606881470
 C   -1.3664250555   -0.5375891103   -0.4112657110
 N   -0.0469743347   -0.5852003667   -1.0615688800
 C    1.3495534372    2.0212272688    0.1790674003
 N    2.1380123222    2.4355326859    1.1350975359
 O    3.3297114752    2.7515136923    0.4650162693
 C    3.1087185667    2.4879953590   -0.8216878044
 N    1.9231531840    2.0402279517   -1.0807714949
 H   -0.7067458075    2.0474417763   -0.2985315685
 H   -0.3552591663    1.8449738052    1.4252789212
 H    0.3021191271   -0.5316545332    1.0552719105
 H   -1.7592530546   -1.5008828849   -0.0987927662
 H   -2.1159556686    0.1541134179   -0.7891821903
 H    0.0330397890    0.1335063281   -1.7772154961
 H    3.9211691790    2.6725315007   -1.5093098401