16

 C    0.0825428109    1.4272356123   -0.0369911980
 N    1.2840050616    0.5658090349    0.0599055437
 C   -0.0309704608   -0.0430011563    0.0139686031
 C   -0.6808652210   -0.8863412883    1.0803625083
 C   -1.5798172742   -1.4997979962    0.0655497082
 C   -0.6635311435   -0.9507750595   -1.0754286951
 N    0.3335649671   -2.0111155808   -1.3366528729
 C    0.3539278120   -2.6876304956   -0.2599820244
 N   -0.6164220233   -2.3719580483    0.7513915562
 H   -0.1186357047    2.0295085164    0.8451942710
 H   -0.1383684124    1.9200619691   -0.9809571161
 H    1.7460435201    0.4803045333   -0.8424295346
 H   -0.8348724318   -0.6447269027    2.1240347473
 H   -2.6392068390   -1.7253035869    0.0769160886
 H   -1.0711959919   -0.5006179777   -1.9778388645
 H    1.0526544410   -3.4932573139   -0.0607610807