20

 C    0.0026507052    1.5131752648   -0.1145121928
 C    0.0107150484   -0.0164892027    0.0695569712
 C    0.6922522782   -0.3847636933    1.3166045780
 N    1.2131714382   -0.6745934272    2.3070955908
 C   -1.4033299341   -0.6159217699    0.0442051124
 C   -2.1915402190   -0.5598343411   -1.2951075043
 C   -2.7272861915   -1.9724379679   -0.9871897576
 O   -2.7922150683   -2.8094539566   -2.1157616119
 C   -1.5647654593   -2.1605388886    0.0284884519
 H    1.0184848179    1.9155366875   -0.1186588401
 H   -0.4748228612    1.7670335050   -1.0646888046
 H   -0.5536298285    1.9976068012    0.6929848743
 H    0.5849198923   -0.4662106126   -0.7515670288
 H   -1.9890981502   -0.1752183975    0.8574110116
 H   -2.9113330936    0.2463448736   -1.4482477414
 H   -1.5169626497   -0.6101241466   -2.1563339342
 H   -3.6957084823   -1.9225973396   -0.4691994393
 H   -3.1511568581   -3.6605285479   -1.8448116343
 H   -0.7166732995   -2.6426288582   -0.4683641658
 H   -1.7663927746   -2.6677063024    0.9740456248