16

 O    0.0699483482    0.0083789433    0.5199802734
 C    0.0825790566    1.2140683274    0.3758996677
 N    1.1741366464    1.9278919695    0.0255150280
 C    2.4981912940    1.4545037039   -0.3838457145
 C    2.8179000676    2.9132620936   -0.7609017782
 C    4.0933386228    3.6387552199   -0.6178620906
 N    3.4939043247    3.3965526043   -1.9495350991
 C    1.3897328477    3.3284335936   -0.3647676309
 H   -0.8054253620    1.8614104254    0.5284313297
 H    3.0887818060    1.0182360072    0.4287538050
 H    2.4665260400    0.7474588650   -1.2219553415
 H    4.1006363127    4.6795509114   -0.3052604762
 H    4.9724906045    3.0697558410   -0.3249966620
 H    3.9739019996    2.6351241194   -2.4240181623
 H    0.7746793758    3.6653582379   -1.2066673196
 H    1.3102837753    4.0450844072    0.4601690611