17

 O   -0.0580535454    1.4307530717    0.2559117282
 C   -0.0189113015    0.0529352826    0.0370179019
 C   -0.3882515738   -0.7972653696    1.2064836712
 C   -1.3291835311   -0.7040549782    0.0272864807
 C   -2.7438860867   -0.1484015054   -0.0217207318
 C   -3.1143092580    0.1092871999   -1.4422965562
 C   -3.1742188226   -1.3271439346   -0.9365043593
 C   -1.7766364604   -1.8842307615   -0.8137668184
 O   -1.2575175395   -2.9231345650   -1.1176154542
 H   -0.3452669440    1.8561274793   -0.5591213768
 H    0.7696064934   -0.3023149249   -0.6262151850
 H    0.1281504175   -1.7405893826    1.3485080481
 H   -0.6776586467   -0.2733470498    2.1111193603
 H   -3.2941496048    0.2436050247    0.8223777999
 H   -4.0896820799    0.5514559406   -1.6204303206
 H   -2.3559640457    0.3985054234   -2.1650399286
 H   -4.0962314407   -1.8932520406   -0.9573370794