17

 C    0.0950881947    1.5191796056   -0.0365313681
 C    0.0489110489    0.0184532344    0.0203148986
 N    0.0466656218   -0.6966471151    1.0790600011
 O    0.1201952464    0.0581373948    2.2526726082
 C    0.0514667442   -0.7398908340   -1.2787034821
 C    1.3145055132   -1.5375469463   -1.6480268232
 C    0.0635856600   -2.2621934435   -1.2796271303
 C   -0.6319753615   -0.0936924466   -2.3714063998
 N   -1.1786180614    0.4258891340   -3.2489236982
 H    0.9066686436    1.8477870154   -0.6943893166
 H   -0.8343227732    1.9109182454   -0.4636059190
 H    0.2374271694    1.9422300407    0.9558070622
 H    0.0996859857   -0.6230428073    2.9330501251
 H    1.6257981333   -1.5205108881   -2.6858370836
 H    2.1135153091   -1.4915149373   -0.9175296258
 H    0.0012790326   -2.7188385032   -0.3008861275
 H   -0.4987853768   -2.7491346389   -2.0668578511