13

 C   -0.0255367627   -1.2186043051   -0.0113902828
 C    0.0100400090   -0.0169152986    0.0093972917
 C    0.0457077352    1.4114985397    0.0429610414
 C    0.4937253497    2.1819990833    1.2728461424
 O    1.2495913473    1.4597589201    2.2243881848
 C    2.3892104253    1.0995742912    1.5720977055
 N    2.5607311764    1.4967209199    0.3760478923
 C    1.3602065650    2.2134992177    0.0315710717
 H   -0.0566057353   -2.2795299191   -0.0380849124
 H   -0.7555929683    1.9125445752   -0.4936163947
 H   -0.1017395210    2.9739371507    1.7074571145
 H    3.0736128243    0.4956938427    2.1534495847
 H    1.4560459751    3.0439572923   -0.6563546790