18

 C   -0.0969430746    1.3904736636    0.0059469661
 O    0.1420207860    0.0052086262   -0.0946617797
 C    0.7762116587   -0.5495580302    1.0519590086
 C   -0.1753522104   -0.8296427008    2.1979039643
 C   -0.2890144578   -2.1315546795    2.4585715443
 C    0.5753021217   -2.9866748984    1.5660621316
 C    1.2844891831   -1.9484560424    0.7255326938
 N    2.2110281454   -2.1169641106   -0.1264213746
 O    2.5223843049   -3.4765753723   -0.2753341769
 H    0.8332070887    1.9500149096    0.1937201896
 H   -0.5151133844    1.7129337296   -0.9506919214
 H   -0.8148589548    1.6405063096    0.8017195815
 H    1.6062904865    0.1112520205    1.3509994701
 H   -0.7030087744   -0.0384738364    2.7166832373
 H   -0.9241110495   -2.5597234341    3.2263751596
 H    1.2961704027   -3.6035892108    2.1174488167
 H   -0.0033587919   -3.6866702224    0.9486207306
 H    3.2224714601   -3.4544309012   -0.9365674416