16

 C   -0.0160855342    1.4873584091    0.0472467815
 C   -0.0012415711   -0.0022958742   -0.0457473448
 C   -0.0420842883   -0.8192554521   -1.1643058900
 C   -0.0000323095   -2.1385721964   -0.6559354455
 C    0.0638614966   -2.1123251684    0.7220963447
 N    0.0630461974   -0.7898542813    1.0968862820
 C    0.1027861983   -3.4675464808    1.1683634051
 C    0.0591071639   -4.2032366314    0.0177513210
 O   -0.0039749046   -3.4202810907   -1.1098059016
 H    0.8906820466    1.8823305686    0.5234011098
 H   -0.0783875357    1.9212540701   -0.9530867934
 H   -0.8740723568    1.8581172582    0.6227802174
 H   -0.0945189051   -0.4819738807   -2.1867400095
 H    0.1017006545   -0.4303271034    2.0338358841
 H    0.1547843704   -3.8643790447    2.1696974189
 H    0.0652093676   -5.2654737518   -0.1616692497