16

 C    1.0721290991    0.9184090745    0.6283503320
 C    0.2214235608   -0.2343867906    0.1927016901
 C    0.1267352667   -0.7951900701   -1.0404561373
 O   -0.7561390548   -1.8069497963   -1.0520789805
 N   -1.2937788235   -1.9381676916    0.2167625930
 C   -0.7119367237   -1.0165257694    0.9510756355
 C   -1.1028986325   -0.9159618855    2.3741483271
 C   -0.1406201332   -0.6398468617    3.4542735188
 O   -1.0218331618    0.3782212234    2.9855923790
 H    1.9240971211    0.5890360599    1.2346385450
 H    1.4762868219    1.4508154859   -0.2365847157
 H    0.4940228886    1.6202803024    1.2332235544
 H    0.6078854414   -0.5801451071   -1.9825374149
 H   -1.9979480735   -1.4834932885    2.6212770073
 H   -0.3483735318   -1.0175771861    4.4541282044
 H    0.9117997951   -0.4968638394    3.2180923121