23

 C    0.1903208571    1.6082782229    0.5036214646
 C    0.3253810386    0.1091803533    0.2549106824
 C    1.0380731670   -0.4694727189   -1.0401204638
 C    1.6303679952    0.4390917159   -2.1130101105
 C    1.9462331800   -1.3567729067   -0.1225848105
 C    3.3149772656   -0.8919300752    0.4278854744
 C    3.3927008363    0.5675887668    0.7652506730
 C    2.6214741864   -0.3288772673    1.6880684598
 C    1.2491300097   -0.7907792451    1.1441251531
 H    1.1398660956    2.1458417751    0.4887975256
 H   -0.4620606482    2.0674958945   -0.2478503555
 H   -0.2656582821    1.7873016548    1.4840663379
 H   -0.6867695636   -0.3084036714    0.2960977683
 H    0.3274446557   -1.1318585464   -1.5468484247
 H    2.3625009906    1.1531365467   -1.7322863002
 H    2.1346990850   -0.1618829079   -2.8783324490
 H    0.8408730433    1.0099839358   -2.6149785548
 H    1.9201515608   -2.4280410032   -0.3277085609
 H    4.2172295919   -1.4893922935    0.3633998149
 H    4.3578740621    0.8740787073    1.1594595791
 H    2.9203562611    1.3310991028    0.1641844947
 H    2.9171918230   -0.4339238060    2.7257074893
 H    0.7326345390   -1.4638833043    1.8300799728