18

 O    0.1032930156    0.0762910499   -0.4164408658
 C    0.1167619734    1.2652134701   -0.1777259611
 N    1.1974424676    1.9568018458    0.2680345615
 C    1.5632863647    3.3862219326    0.1239485295
 C    2.9202155613    2.9937055404    0.7765692357
 C    2.6307453434    1.5869647103    0.1665866672
 C    3.0363792254    1.6122403964   -1.2991315155
 C    2.6159109047    2.6510307904   -2.0221212757
 C    1.7581906100    3.7189900450   -1.3708185163
 H   -0.7847310669    1.9113965727   -0.2441973415
 H    0.9168445267    4.0979156679    0.6426699837
 H    3.8176684644    3.5069554855    0.4321893526
 H    2.8548760834    2.9953332240    1.8655133929
 H    2.9253437576    0.6893133799    0.7078530540
 H    3.6493425029    0.8169667927   -1.7079025404
 H    2.8542812518    2.7542011270   -3.0763192002
 H    0.7820865326    3.7841009755   -1.8717769347
 H    2.2204409512    4.7095763639   -1.4775514159