16

 O    0.2065580471    1.3396493032   -0.1831044443
 C    0.1055794700   -0.0390282901    0.0507062170
 C    0.1828829886   -0.5012642538    1.5285630881
 N   -1.2992264838   -0.6119722979    1.5369333405
 C   -1.3550053822   -0.6034498831    0.0786931286
 C   -2.4916777278    0.0084244358   -0.7520339481
 O   -2.5837737502   -1.2284069729   -1.5389057511
 C   -1.6523990578   -1.8599487683   -0.7536275425
 O   -1.3012134441   -2.9962771231   -0.7935879795
 H   -0.3017847187    1.7994810499    0.4953703261
 H    0.7850133406   -0.5248945642   -0.6496647114
 H    0.7149783239   -1.4527888367    1.6425215497
 H    0.5868728428    0.2270086748    2.2402677825
 H   -1.6890710079   -1.4308875948    1.9915466073
 H   -3.4199056834    0.1923648652   -0.2069863324
 H   -2.2214272570    0.8580426160   -1.3815005904