19

 C   -0.1402284446    1.5769534276   -0.0333837552
 C    0.0335015824    0.0687300900   -0.0114008096
 C    1.2041066629   -0.6443982975   -0.7399569648
 O    1.3723267221   -0.5841232673   -2.1076715785
 C    2.1764011786   -0.1578039103    0.3801835776
 C    0.8818990901   -0.6560527282    1.1062800185
 C    0.9156046861   -1.8940231670    0.1499347094
 C    0.6282563538   -0.6566166006    2.5138438657
 C    0.4057382343   -0.6434174359    3.6963738537
 H    0.7911807620    2.1280087031    0.1151770847
 H   -0.5588846657    1.8893530397   -0.9956990220
 H   -0.8394520785    1.8878278248    0.7498766766
 H   -0.9322773172   -0.4217527259   -0.1766984327
 H    2.1617223138   -1.0822098091   -2.3456208199
 H    3.0702355346   -0.7643594123    0.5500792385
 H    2.4043718815    0.9060195312    0.4390647673
 H   -0.0357921361   -2.4068304139   -0.0098930684
 H    1.7402277461   -2.5936764804    0.3097607598
 H    0.2121069437   -0.6358796780    4.7401816291