18

 C   -0.1731138215    1.5646932264    0.0487358008
 C    0.0255645449    0.0440010020   -0.0034122610
 C    0.8482474849   -0.4540169778   -1.1759321319
 C    1.8324988114   -1.2773911874   -0.8123038059
 C    1.9174462449   -1.4267086180    0.6694991411
 C    2.2353268236   -0.1620759381    1.4241109480
 C    0.7794925260   -0.5461755803    1.2079729934
 C    0.0115688333   -0.9402849382    2.3515123724
 N   -0.6267246689   -1.2463640584    3.2675257293
 H    0.7839072529    2.0922968968    0.1021935640
 H   -0.6998736462    1.9145719777   -0.8446122073
 H   -0.7689435888    1.8471999288    0.9217586570
 H   -0.9700711235   -0.4199999090   -0.0403214362
 H    0.6331944662   -0.1422659692   -2.1919198973
 H    2.5295061087   -1.7658114197   -1.4830210010
 H    2.1492939331   -2.3829675054    1.1238453803
 H    2.6038476239   -0.2562784791    2.4393199694
 H    2.6265063251    0.6799293688    0.8642752350