14

 N   -0.0562288528    1.1293422578    0.8719783181
 C   -0.0145417298    0.1123923458    0.0964629741
 C    1.2387158449   -0.4846940618   -0.3653497791
 C    1.5387534437   -1.5222984657   -1.1579594962
 O    0.7581612174   -2.4031611913   -1.8254112106
 C   -0.5899929128   -2.4060090338   -1.8203663977
 C   -1.4817649070   -1.6124710922   -1.2107201905
 C   -1.3726851792   -0.4458298486   -0.3219118486
 O   -2.3879952794    0.0781499710    0.0829310723
 H    0.8903625536    1.4417260206    1.1051531159
 H    2.1251529422    0.0187844838    0.0138343609
 H    2.5755396433   -1.7708247887   -1.3528751333
 H   -0.9315194725   -3.2255125160   -2.4432331173
 H   -2.5179345619   -1.8718888608   -1.4029390581