14

 C   -0.0580514750    1.5025802544    0.0111158193
 C    0.0059696320   -0.0107773382    0.0029805100
 O   -1.3513992215   -0.5040930784    0.0117620782
 C   -1.4906913193   -1.8242562210    0.0065176198
 N   -0.5150298000   -2.6957580001   -0.0058622338
 O   -1.1400431162   -3.9249467612   -0.0066225486
 N   -2.4983250494   -3.7959471794    0.0053839466
 C   -2.7385143179   -2.5178734827    0.0136147580
 H    0.9555567205    1.9135211277    0.0046945719
 H   -0.5875868853    1.8747887371   -0.8700724866
 H   -0.5727397611    1.8658880011    0.9047276000
 H    0.5134379688   -0.3974810568   -0.8877613773
 H    0.5281157904   -0.4063836516    0.8812403972
 H   -3.7418109662   -2.1235622510    0.0239416154