18

 C   -0.0282523803    1.5480640366   -0.1369354024
 C   -0.0012790419    0.0306155136   -0.0608343841
 C    1.2154776592   -0.6441553160   -0.8150427316
 C    1.8713273543   -0.6562915004    0.5429684834
 C    2.8672655504   -0.0821299416    1.2233363293
 C    2.3310241553    0.3408226337    2.5590943638
 O    2.9211050370    0.7923058107    3.5138350486
 N    0.9354815478    0.1818235332    2.4702359220
 C    0.5835026265   -0.5674037822    1.3008388727
 H    0.9416909895    1.9765207838    0.1334782015
 H   -0.2774866589    1.8800654486   -1.1496432184
 H   -0.7742399772    1.9592290433    0.5498557001
 H   -0.9737235987   -0.3940393933   -0.3229528728
 H    0.9605152962   -1.6344542029   -1.2020824232
 H    1.7080057488   -0.0637824112   -1.5976015386
 H    3.8591014439    0.1931036682    0.8937145230
 H    0.4076685295    0.1457679934    3.3287314321
 H    0.0929578185   -1.5190582676    1.5323329648