16

 C   -0.0143039657    1.4979319421    0.0492143038
 C   -0.0203637260    0.0029999313    0.0097296047
 C   -0.0349726663   -0.8008109076   -1.0929187930
 N   -0.0210164622   -2.1279395939   -0.6742930323
 C   -0.0004086363   -2.1857229460    0.6835674487
 N   -0.0652390197   -3.3932672230    1.3677827950
 C    0.0087775811   -0.8770428358    1.1552469057
 C    0.0640789622   -0.5295812239    2.5201948684
 N    0.1124951346   -0.2708512851    3.6512431613
 H    0.8783283246    1.8844148564    0.5539440823
 H   -0.0367057976    1.9155797196   -0.9609229112
 H   -0.8807847677    1.8880673697    0.5948869830
 H   -0.0430813054   -0.5542566549   -2.1417949190
 H   -0.1350282528   -2.9282178902   -1.2720567949
 H    0.6472194391   -4.0607574059    1.0956209502
 H   -0.0352045519   -3.2530768128    2.3702462174