17

 O    0.1620531520    1.3760670522   -0.3094902438
 C    0.0275322550   -0.0058013355   -0.0254553808
 C    0.6437259862   -0.4493200797    1.3344912541
 C   -0.5654611657   -0.5369080972    2.2842569134
 N   -0.9830636033    0.8588525955    2.5971716140
 C   -1.9234075413    1.1346255738    1.7867081022
 N   -2.4409041018    0.1037847266    0.9430669035
 C   -1.4237256832   -0.5296883762    0.0346402141
 C   -1.6899301238   -1.0916655747    1.3804100448
 H   -0.0004179898    1.8621714488    0.5055387931
 H    0.5255361694   -0.5095743379   -0.8596977726
 H    1.1005914829   -1.4395861959    1.2324757737
 H    1.4131816037    0.2479775739    1.6764226958
 H   -0.3763147217   -1.0965166522    3.2009125947
 H   -2.3923437974    2.1130443794    1.7283359164
 H   -1.8699687007   -0.9265198300   -0.8709568895
 H   -2.2487915604   -1.9969085007    1.5895189369