14

 O    0.0808723928   -0.0067247073   -0.4999112717
 C    0.0212739886    1.1316118188   -0.1445915835
 C   -1.1028769136    2.0983146192    0.2827442791
 N   -0.0920050424    3.1762050904    0.5104593771
 C    0.4652104928    3.1602984241    1.9060096941
 C    1.7041700714    2.3365917437    1.4630870053
 C    1.0415008233    2.2640065436    0.0657398104
 H   -1.7949439626    2.3410505837   -0.5318031851
 H   -1.6892932043    1.8021042353    1.1600982239
 H    0.6820031893    4.1674252899    2.2710763330
 H   -0.1882914158    2.6642568476    2.6325657287
 H    2.6387476068    2.8996602478    1.4648632000
 H    1.8710195775    1.3809756420    1.9640009035
 H    1.6366975162    2.5468093612   -0.8069708047