23

 C    0.0657424526    1.5852273278    0.0919952692
 C    0.0050832087    0.0551313203    0.0501120801
 C    0.6226943604   -0.5201099199   -1.2303094146
 C    0.6446823618   -2.0592907245   -1.2986130363
 C   -0.7633616467   -2.6498320117   -1.4714813518
 C    1.6032465066   -2.5045460540   -2.4405687645
 O    2.8710193842   -1.9203031290   -2.3031887207
 C    1.7536070398   -4.0120927639   -2.5102725793
 O    2.8310542341   -4.5449976982   -2.3796055587
 H    1.0999914380    1.9410318120    0.0307131263
 H   -0.4842468693    2.0262897288   -0.7468669743
 H   -0.3686685009    1.9769086229    1.0170721561
 H    0.5355480132   -0.3553376424    0.9196751571
 H   -1.0392728151   -0.2641366180    0.1519683402
 H    0.0814602152   -0.1324108991   -2.1063228077
 H    1.6523456418   -0.1609392282   -1.3175448279
 H    1.0797774719   -2.4338407456   -0.3614133042
 H   -0.7813411273   -3.7384623100   -1.3669347932
 H   -1.4468897622   -2.2475018912   -0.7197830102
 H   -1.1755305040   -2.3996534724   -2.4565434330
 H    1.1431552829   -2.1924315574   -3.3978038471
 H    3.4929785229   -2.6626116613   -2.2369769113
 H    0.8390482513   -4.6062963547   -2.6950110244