18

 O   -0.0623571608    1.4989015217    0.1896413204
 C    0.0938496033    0.1220452087    0.0643741715
 C   -0.3615816238   -0.8036716053    1.1653248176
 C   -1.1324770121   -0.7365040493   -0.1382177298
 N   -2.3634125421    0.0090697120   -0.1153850602
 C   -3.2435240451   -0.0854358055   -1.2671833727
 C   -3.6444382554   -0.7124289197    0.0373930322
 C   -3.6795977505   -2.1422497599    0.1684749829
 C   -3.7229118078   -3.3357583068    0.3099606481
 H   -1.0170323219    1.6473593519    0.2577099592
 H    0.9955497019   -0.1301449651   -0.4848041120
 H    0.2029218731   -1.7054757888    1.3750919440
 H   -0.8251139494   -0.3381401745    2.0283758494
 H   -1.0840878270   -1.5935216159   -0.8082091087
 H   -3.7197095819    0.8373053532   -1.5865735499
 H   -2.9613609451   -0.7648616858   -2.0683379870
 H   -4.3639027487   -0.1816775589    0.6564589066
 H   -3.7612935167   -4.3902611120    0.4301666383