16

 C   -0.0341737407    1.5109787062   -0.0281009278
 C   -0.0401112095    0.0126934081   -0.0123249370
 C   -1.1631508039   -0.7337360204   -0.0986073186
 C   -1.1016557043   -2.1703088009   -0.0778196016
 O   -2.2952820664   -2.8282184700   -0.1707166197
 C    0.1027758348   -2.7590014333    0.0296634268
 O    1.2551125312   -2.0360406387    0.1183822360
 C    1.2585720098   -0.6518265775    0.1041750952
 N    2.3532597563   -0.0064952409    0.1896745866
 H    0.5745303731    1.8832883721   -0.8583537868
 H   -1.0482419558    1.9079157590   -0.1172984568
 H    0.4290381877    1.9023230479    0.8832969378
 H   -2.1410006441   -0.2712948840   -0.1858202407
 H   -2.1420451545   -3.7788739546   -0.1486654897
 H    0.2874863776   -3.8256742712    0.0566909540
 H    3.1433381986   -0.6476664218    0.2631219724