20

 O    0.5743073368    0.5782322161   -0.8677674399
 C    0.1498952173   -0.4473378814    0.0148590726
 C    0.6068109328   -0.3186479631    1.4560949154
 C   -0.1658241756    0.6381684917    2.3412662931
 C   -0.5049455949   -0.8305013144    2.3477829622
 C   -1.6626605676   -1.2820403400    1.4639110074
 C   -1.3780582342   -0.6166152620    0.1209598261
 C   -2.2889687510    0.3765410751   -0.5041160217
 N   -2.1718942890   -0.9897660208   -1.0488789043
 H    0.4386037149    1.4179475379   -0.4144015691
 H    0.5733300079   -1.3666468530   -0.4123655679
 H    1.6501724697   -0.5063397144    1.6817487705
 H    0.3587964221    1.0322273918    3.2044763489
 H   -0.8677020862    1.3355200687    1.8939763499
 H   -0.2764348221   -1.4055541280    3.2377848123
 H   -1.6424755945   -2.3723957272    1.3482455122
 H   -2.6470958301   -1.0158422504    1.8622122349
 H   -3.2425428819    0.6022395091   -0.0333849541
 H   -1.8487319023    1.1891721617   -1.0740976906
 H   -1.5777228720   -0.9588089572   -1.8765481580