13

 C    0.0398371981   -1.1900539794   -0.0042804454
 C    0.0144534506    0.0131881288    0.0025201490
 C   -0.0025681474    1.4247243082    0.0108733910
 C   -1.0976347837    2.2391225141    0.0290407584
 O   -0.7299110834    3.5425086168    0.0320099567
 C    0.6237061597    3.5812084649    0.0155869914
 C    1.1463180474    2.3204810258    0.0019322899
 C    2.5109604404    1.9596523830   -0.0168967892
 C    3.6715315165    1.6413690717   -0.0330736251
 H    0.0635835244   -2.2514416375   -0.0098513847
 H   -2.1553500765    2.0381417543    0.0408882134
 H    1.0766162590    4.5580232348    0.0156353984
 H    4.6949610649    1.3593779444   -0.0477078137