20

 C   -0.0224835518    1.5756033274    0.0065308222
 C    0.0427603710    0.0470229934   -0.0067256865
 C    0.7371166677   -0.5041779085   -1.2608128133
 C    0.6436057927   -2.0346239265   -1.3155968417
 C    0.9524502711   -2.6664131318    0.0157395780
 C    0.9764794078   -1.9910495461    1.1659783709
 C    0.7266412873   -0.5075040983    1.2621386040
 O    1.9469392800    0.1784029677    1.5792203244
 H    0.9821433007    2.0063683681    0.0224344120
 H   -0.5487429442    1.9512475043   -0.8771455196
 H   -0.5500254184    1.9419574118    0.8938931925
 H   -0.9848908196   -0.3462349161    0.0039973986
 H    0.3016941221   -0.0633818200   -2.1640392968
 H    1.7933239710   -0.2001114284   -1.2487123124
 H   -0.3668703586   -2.3372626633   -1.6308224919
 H    1.3177558550   -2.4369431798   -2.0821025344
 H    1.1541393573   -3.7357525624    0.0173244923
 H    1.2284526038   -2.4968650117    2.0948243603
 H    0.0766430960   -0.2997595332    2.1215262331
 H    2.6390252291   -0.2096710566    1.0338225382