27

 C    0.0760232495    1.5652401584   -0.1266877219
 C   -0.1757416462    0.0711099967    0.1092675945
 C    0.6423463900   -0.5258636083    1.2782277954
 C    0.0438918323   -0.0662824955    2.6208949660
 C    0.8273572398   -2.0786778151    1.1630112874
 C   -0.5155907758   -2.8169971598    0.9986489760
 C    1.7418401303   -2.4061386630   -0.0359573077
 C    1.5225932660   -2.5978630620    2.4384333759
 O    1.8380845323   -3.9758469750    2.2710782288
 H    1.1288732784    1.7528327730   -0.3659460149
 H   -0.5248279805    1.9347401108   -0.9638822922
 H   -0.1766013583    2.1733663835    0.7477127338
 H   -1.2447683063   -0.0917952033    0.2967159488
 H    0.0514053857   -0.4610641164   -0.8195635577
 H    1.6546690666   -0.0990743650    1.2132183692
 H   -0.9200167548   -0.5480385018    2.8178049889
 H    0.7034761906   -0.2757071525    3.4671205165
 H   -0.1295935963    1.0136576960    2.6149108522
 H   -0.9930884020   -2.5760913894    0.0448345576
 H   -0.3494706121   -3.8965303392    1.0321454863
 H   -1.2194168957   -2.5648333134    1.7990778476
 H    2.7034195158   -1.8872188648    0.0523837854
 H    1.9442980214   -3.4779967905   -0.0757261360
 H    1.2892909457   -2.1131625687   -0.9869308358
 H    2.4371143296   -2.0086088937    2.6212046667
 H    0.8621421725   -2.4657680102    3.3060285936
 H    2.1786006519   -4.3067725108    3.1064492556