19

 O   -0.0334341068   -0.0989936264   -0.0094972374
 C    0.0198168156    1.1094971820    0.0270064737
 C   -1.2581209452    1.9670308581    0.0741459971
 N   -1.5371135980    2.7913720183   -1.1037418942
 C   -0.5392419311    3.8028992884   -1.4467342110
 C    0.7199921447    3.2757876029   -2.1284819811
 N    2.0245297429    3.7407160377   -1.6210579126
 C    1.6338394281    2.3336506705   -1.4329475609
 C    1.3483557426    1.8621319019   -0.0124697096
 H   -2.0976708634    1.2833468550    0.2268893395
 H   -1.1992004114    2.6355106818    0.9441504649
 H   -1.7352298755    2.1985308583   -1.9032813209
 H   -1.0159883288    4.5426803908   -2.1010834698
 H   -0.2542584838    4.3309743002   -0.5311400585
 H    0.6271056364    3.1392435941   -3.2055471699
 H    2.6952803817    3.8274745653   -2.3804602985
 H    2.1178929783    1.5872534246   -2.0588247771
 H    1.3102464999    2.7354371567    0.6451632001
 H    2.1392697235    1.1932961097    0.3364541061