17

 O   -0.0230659251    1.6487697265    1.0233609704
 C    0.0349040758    0.3616781627    0.4652852926
 C    0.6116714877    0.1623853568   -0.9805255038
 C    1.4694979760   -1.0411952395   -0.4737060395
 C    1.2366019015   -0.4880791196    0.9280748012
 O    1.8764933153   -0.4240457723    1.9412070389
 C   -1.3077154658   -0.3129704507    0.6961747815
 C   -2.4250097498   -0.1751320473   -0.2418395978
 O   -1.6717074566   -1.3918299133   -0.1625595161
 H    0.6814737043    1.7028209635    1.6826623678
 H   -0.1086219588   -0.0678497720   -1.7640337959
 H    1.2199988191    1.0233823857   -1.2616431696
 H    0.9448929245   -1.9889701619   -0.6242996861
 H    2.5080353712   -1.1332176255   -0.7953226004
 H   -1.5379523848   -0.4688036474    1.7505409122
 H   -3.4453832161   -0.2367207643    0.1310310657
 H   -2.2944592184    0.3971829186   -1.1578362910