19

 C   -0.0158020205    1.2124611525   -0.4741757786
 C    1.2962468289    2.0104291491   -0.4140159935
 O    2.3434316629    1.2035238806   -0.9577500652
 C    3.6356793139    1.4308950357   -0.4746487925
 O    3.8498769719    1.1230519926    0.8846408804
 C    3.6124642927   -0.2389082882    1.2564493040
 C    2.1720909978   -0.4827852584    1.3359786255
 C    0.9917659797   -0.3046194525    1.1790794650
 C   -0.2741667593    0.2671224664    0.7396779269
 H   -0.8588439144    1.9071634243   -0.5549603800
 H    0.0086616822    0.6259004820   -1.3977491855
 H    1.2044179938    2.9260978536   -1.0166431101
 H    1.5334137741    2.3004907841    0.6156754484
 H    4.2801871722    0.8128865197   -1.1162122844
 H    3.9255494770    2.4884479824   -0.5554298322
 H    4.0889499164   -0.9222701389    0.5365174469
 H    4.1134445232   -0.3722185084    2.2202768605
 H   -0.7253457372    0.8381382100    1.5614060498
 H   -1.0073412652   -0.4986212164    0.4623808144