18

 C    0.2049284720    1.5978764121    0.0473191126
 C    0.0449779240    0.1124688244    0.1211765388
 C   -0.8445176917   -0.6161158932    1.0858956892
 C    0.6280789755   -0.9400366399    1.0440909548
 C    1.0389481084   -1.7054443979   -0.2181978819
 C   -0.0043961698   -2.0438775609   -1.2265105214
 C   -1.3469494530   -2.5317186139   -1.0695764134
 C   -2.4459397635   -3.0229299055   -1.0780261526
 N    0.5032461756   -0.6394740372   -1.1317905500
 H    1.1951493672    1.8666959619   -0.3333977079
 H   -0.5421041768    2.0327381700   -0.6273676637
 H    0.0751138584    2.0508255664    1.0349043771
 H   -1.1146851636    0.0006481867    1.9393415314
 H   -1.6071605648   -1.3234041783    0.7969443020
 H    1.2875645043   -0.8257918167    1.8941529211
 H    2.0513730656   -2.0790482545   -0.3480242392
 H    0.4462471352   -2.4742078620   -2.1220235509
 H   -3.4232956032   -3.4371678719   -1.0461174360