20

 C   -0.0441341129    1.4915241873    0.0407943017
 C   -0.0513454152   -0.0232428714   -0.0370955513
 O    0.7454445117   -0.4080429200   -1.1644948146
 C    0.8539972409   -1.7266006417   -1.3883031225
 N    1.5340104170   -2.1634576042   -2.3563159114
 C    1.6022776665   -3.5867775702   -2.5302423282
 C    1.3403692435   -4.1148370627   -3.9618713781
 O    2.5987514230   -4.8177490658   -3.9814205531
 C    3.0135997261   -4.1819574812   -2.7560030097
 H    0.9756288033    1.8651884844    0.1651457424
 H   -0.4606992398    1.9251923698   -0.8721229081
 H   -0.6447468098    1.8254169826    0.8917629656
 H    0.3666203451   -0.4648973779    0.8774599468
 H   -1.0737853812   -0.4045519375   -0.1612166226
 H    0.3111306580   -2.3621135311   -0.6701890461
 H    1.0325927836   -4.1442608395   -1.7707876632
 H    0.4872477451   -4.7898845836   -4.0955679229
 H    1.2987574184   -3.3115029960   -4.7079669505
 H    3.7761418221   -3.4109045924   -2.9225596138
 H    3.3733277246   -4.9056704988   -2.0155834804