20

 C   -0.0381646941    1.6123058488    0.0072986671
 C   -0.0247375263    0.0811384714    0.0037310166
 N   -1.3577745362   -0.5047101272    0.0130970852
 C   -2.1302096938   -0.8216524136    1.1064614455
 C   -1.6975707627   -0.6689494159    2.5237815127
 N   -3.2895016790   -1.2904462982    0.7168077414
 N   -3.3005820955   -1.2872999142   -0.6630774437
 C   -2.1476757391   -0.8167014875   -1.0691557505
 C   -1.7378421572   -0.6575326225   -2.4925291856
 H    0.9859608853    1.9974445646   -0.0000301185
 H   -0.5576715131    2.0023655438   -0.8723216433
 H   -0.5435074844    1.9983630786    0.8968797825
 H    0.5017903388   -0.2917831987   -0.8795041054
 H    0.5158693903   -0.2957488466    0.8767179736
 H   -1.4744627296    0.3725559748    2.7813817276
 H   -2.5099814168   -1.0154955476    3.1639895371
 H   -0.8046535622   -1.2642809761    2.7478108435
 H   -1.5189793079    0.3851601603   -2.7489668748
 H   -0.8485851670   -1.2517083422   -2.7335405318
 H   -2.5603914394   -1.0013049722   -3.1211823394