18

 C    0.0270213488    1.4862384206    0.1349585130
 C    1.3206268050    0.7437130968   -0.0705567302
 C    1.7440251397    0.0766758550    1.2446775676
 C    0.3940097438   -0.7001182508    1.2535511748
 O    0.6109655288   -2.1031931088    1.0650918055
 C    0.1559173316   -2.6827429215   -0.0771216157
 N   -0.4614195369   -2.1985255928   -1.0672374786
 C   -0.7858919179   -0.7743898377   -1.0698926646
 C   -0.0226070695   -0.0005237530   -0.0386680947
 H   -0.2009893007    1.9457471857    1.0954707715
 H   -0.3259840101    2.0556529855   -0.7202409631
 H    1.9668184944    0.9456067232   -0.9164706099
 H    2.5746173464   -0.6235290978    1.1427853513
 H    1.9340551595    0.7459179840    2.0898921878
 H   -0.2558290551   -0.5895965247    2.1288201509
 H    0.4048983145   -3.7424842244   -0.0524014998
 H   -0.6034567541   -0.3789997437   -2.0767143927
 H   -1.8685076379   -0.6782174255   -0.9008404630