20

 C   -0.3224926648    1.4943475094   -0.0171363514
 C    0.0701487263    0.0268008819    0.0448183812
 C    0.9327300317   -0.4717434936   -1.1496354223
 N    2.2255569817   -0.8376869207   -0.5635783653
 C    2.1199737888   -0.6545922534    0.6915384148
 O    0.9392184698   -0.1920389781    1.1885123416
 C    3.1601915023   -0.8974287356    1.7066305851
 C    4.1101992559   -2.0652214694    1.5111449612
 C    4.6130031333   -0.6684942486    1.3330366171
 H    0.5624731370    2.1213198822   -0.1662001548
 H   -1.0087181014    1.6638785687   -0.8535164158
 H   -0.8193594591    1.8080783018    0.9050709247
 H   -0.8162641548   -0.5965722542    0.2005108477
 H    0.4870977888   -1.3370928890   -1.6533432751
 H    1.0638907686    0.3098142132   -1.9080736705
 H    2.8532487041   -0.6588320016    2.7171017660
 H    4.4039805424   -2.6192258384    2.3955479399
 H    3.9526974137   -2.6590435153    0.6187748138
 H    4.7937033653   -0.3255282078    0.3213341631
 H    5.2592172003   -0.2438776514    2.0929764790