19

 C   -0.0310997649    1.5140078708   -0.1224967209
 C   -0.0334626263    0.0191933914    0.0735810485
 O    1.2178718554   -0.6625859670   -0.1383859137
 C    0.6702589052   -0.6695508397    1.1638767159
 C    1.3187181527   -0.1233069499    2.4472831645
 O    1.2605191999    1.2430389002    2.7695155487
 C    0.4484603216   -1.1458375647    3.2387392444
 C    0.1947497979   -1.9168644648    1.9071397538
 O   -1.1186564257   -2.3111763051    1.5885671424
 H    0.8273628986    1.9723509751    0.3706595817
 H    0.0030361633    1.7511221585   -1.1910438865
 H   -0.9504244887    1.9538445751    0.2818457923
 H   -0.8866417469   -0.5118679002   -0.3494558817
 H    2.3798341420   -0.3890004763    2.4788041298
 H    0.3343489379    1.5068689848    2.7819341685
 H    0.9179714787   -1.6779758686    4.0673520440
 H   -0.4840702948   -0.6837974952    3.5784966188
 H    0.9080355224   -2.7416318600    1.7738822665
 H   -1.2851369182   -3.1725164644    1.9831448430