17

 C   -0.0178076060    1.4492315298   -0.0303608542
 N   -0.0127671345   -0.0041201042    0.0348106974
 C   -0.0180235316   -0.6341585977    1.2568858257
 N   -0.0273756027    0.0023269605    2.3634000751
 C   -0.0022266205   -0.7072157138   -1.1685963696
 C    0.0038865999   -0.1522384182   -2.4189519105
 O    0.0137559988   -1.1325728736   -3.3713528791
 C    0.0138773202   -2.3148236280   -2.7199390025
 C    0.0044259220   -2.1342531413   -1.3747700513
 H    0.8747902321    1.8106120231   -0.5544026355
 H   -0.9058854213    1.8038157265   -0.5665627518
 H   -0.0261707038    1.8320957247    0.9881075095
 H   -0.0133198701   -1.7225532643    1.1659871951
 H   -0.0298341393   -0.6512947930    3.1418423233
 H    0.0026226680    0.8589358284   -2.7831331328
 H    0.0211619702   -3.1968380816   -3.3390141107
 H    0.0024885988   -2.9187816473   -0.6367992181