12

 N    0.0338824735   -1.1398866516   -0.1423558099
 C    0.0087750910    0.0131157508   -0.0745454048
 C   -0.0492381062    1.4803081301    0.0209701043
 C   -0.6165689328    1.9610975938    1.3976009204
 O    0.2760412530    2.9935752247    1.7665833059
 C    1.5142333144    2.5970991755    1.2422037807
 O    1.2442963681    2.0637171524   -0.0454255246
 H   -0.6399507022    1.8598826511   -0.8189392847
 H   -1.6236087444    2.3729017575    1.3217391481
 H   -0.6080694058    1.1395788192    2.1258956192
 H    2.1606497562    3.4705099576    1.1345561544
 H    1.9907383552    1.8324838289    1.8795584811