18

 C   -0.0619946379    1.5654946609    0.4070956742
 C    0.0394736934    0.0510371120    0.3848093958
 O    0.9679960218   -0.5734423504    0.8698491554
 N   -0.9924007216   -0.5941613302   -0.2329564504
 C   -2.3739195180   -0.2087048469   -0.5666429113
 C   -2.7556629068   -1.7172276876   -0.5642120531
 C   -1.2978420494   -2.0298067110   -0.1412175159
 C   -0.4711360320   -2.8727971753   -1.0993821520
 O   -0.9470125277   -3.5778530558   -1.9516571395
 H    0.9016901433    1.9750643784    0.7085916308
 H   -0.3466497457    1.9658674026   -0.5704158702
 H   -0.8216842342    1.8850590653    1.1294719006
 H   -2.8625950541    0.3880489729    0.2114296769
 H   -2.4733397947    0.3096414934   -1.5258678861
 H   -3.5191681150   -1.9968133186    0.1604999603
 H   -3.0067262817   -2.1327173974   -1.5398351283
 H   -1.1569580816   -2.4228162864    0.8754579061
 H    0.6239996317   -2.7751996758   -0.9534673634