19

 N   -0.0095376838   -1.0645488075    0.5027461366
 C   -0.0403865798    0.0588812045    0.2325770735
 C   -0.0510911636    1.4868893443   -0.1254984386
 N   -0.8974430234    2.2477020804    0.8162267858
 C    0.0222966608    2.8561407428    1.7910331811
 C    1.3041188037    3.2342338663    1.0189639972
 C    2.6510415394    2.7277558524    1.6036124639
 C    2.5395972283    1.4573262303    0.7133485317
 C    1.3769611631    2.1312418196   -0.0772784817
 H   -0.4788928850    1.5545565068   -1.1303490939
 H   -1.3680217740    2.9795499266    0.2950585275
 H   -0.4631388170    3.7014020481    2.2843696236
 H    0.2506167216    2.1124450356    2.5652534286
 H    1.2734915783    4.2724013642    0.6778377788
 H    3.4939808280    3.3636648783    1.3234412295
 H    2.6819201043    2.5737659264    2.6856535127
 H    3.4224155962    1.1991680526    0.1256942170
 H    2.2237941324    0.5651830267    1.2583063003
 H    1.6770757106    2.4741890816   -1.0683372436