23

 C   -0.3009218514    1.5135318725    0.1203235391
 C   -0.1259528773    0.0164134249   -0.1032932745
 C    1.1745811562   -0.5158832042    0.4989572782
 O   -1.2569916960   -0.6324685938    0.5039357259
 C   -1.6241340733   -1.8616002486   -0.0759708530
 C   -2.6513978018   -2.6720515599    0.7420161769
 C   -3.4402950772   -2.9307510590   -0.5735253068
 C   -2.6670820140   -1.7604542895   -1.2432722265
 O   -3.3577227907   -0.5322282834   -1.1990780849
 H    0.5449506990    2.0672743436   -0.2975377666
 H   -1.2165697278    1.8713343525   -0.3589392134
 H   -0.3623312621    1.7319763027    1.1911357124
 H   -0.1395523898   -0.1877440343   -1.1839769666
 H    1.2687195544   -1.5968228518    0.3590958227
 H    2.0402302309   -0.0411984324    0.0261315497
 H    1.2063154546   -0.3065456652    1.5727772802
 H   -0.7456504359   -2.4558626595   -0.3545095964
 H   -2.2797407942   -3.5312422634    1.3038702139
 H   -3.1951436326   -2.0123198270    1.4223283885
 H   -3.2018150319   -3.8975168235   -1.0259637241
 H   -4.5236215020   -2.8063446544   -0.5390996303
 H   -2.3062579560   -1.9337622579   -2.2637591960
 H   -2.9485895611   -0.0252345386   -0.4830291985