19

 O   -0.0092453418    1.3419855241    0.3004405072
 C   -0.0594395362   -0.0239236090   -0.1025096351
 C   -1.4777133731   -0.4939014396    0.0095522379
 C   -2.0297012471   -1.0879152357    1.2800473925
 C   -1.8778713534   -1.9591977765    0.0554717726
 C   -2.9543757813   -1.9249563481   -1.0494655601
 C   -3.8267876159   -0.6855087616   -0.7554818310
 C   -2.4659751457   -0.0410506054   -1.0907948815
 O   -2.2846278555   -1.1161808686   -2.0866534644
 H    0.8620038522    1.6852101592    0.0804247960
 H    0.2735972013   -0.1418294962   -1.1452433051
 H    0.5929601625   -0.6497087428    0.5277416576
 H   -1.2984363351   -1.2586389398    2.0655612631
 H   -3.0049822867   -0.8117785404    1.6609443239
 H   -1.1438601663   -2.7566012470    0.0414709697
 H   -3.3530054196   -2.8698911990   -1.4171267441
 H   -4.5371648407   -0.5187119860   -1.5642303965
 H   -4.3027497538   -0.5405342518    0.2144264708
 H   -2.3485749440    0.9637730743   -1.4935324535