21

 C   -0.1099718880    1.6228089546    0.0235414116
 C    0.0363040627    0.0944289127   -0.0271702313
 C    0.7057250483   -0.4038171616   -1.3188575872
 C   -0.0572468096   -0.0708229617   -2.5962367399
 O    0.5890521879   -0.7501424498   -3.6628606377
 C    0.8372427034   -0.4209598349    1.1948514752
 O    2.1182110286    0.1457811465    1.2568501355
 C    0.0899503450   -0.1694258265    2.4873550666
 O    0.5849723506    0.4355775449    3.4079512509
 H    0.8723461969    2.0987117002   -0.0372384243
 H   -0.7249752022    1.9931951930   -0.8004118580
 H   -0.5819178545    1.9520495094    0.9556685891
 H   -0.9634550096   -0.3619320940    0.0379608094
 H    1.7200453653    0.0035866259   -1.3862129894
 H    0.8085755039   -1.4951785090   -1.2769843951
 H   -1.1081671183   -0.3939854817   -2.4979607763
 H   -0.0659165463    1.0153399742   -2.7709708126
 H    0.1656493198   -0.4898668026   -4.4859665624
 H    0.9107439996   -1.5217361462    1.1026223874
 H    2.1881720550    0.5407081888    2.1403494829
 H   -0.9396765884   -0.5798125022    2.5456295256