18

 C    0.0736778909    1.5325343322   -0.0031954765
 C    0.0471046226   -0.0031208345    0.0145398975
 C   -1.3573268652   -0.5333645743    0.0344301192
 C   -2.3335573667   -0.3767106339    1.2255421928
 C   -2.8978552701   -1.7020860090    0.7388473591
 C   -2.9204901817   -1.7328380856   -0.7623455854
 N   -1.6572527513   -2.0930828432    0.0298724511
 C   -2.2600314041   -0.4724635662   -1.2054336605
 O   -2.2406859870    0.1731626631   -2.2160356752
 H    1.1037869336    1.8983871759   -0.0273177485
 H   -0.4480551553    1.9156477605   -0.8840718627
 H   -0.4076512377    1.9501982093    0.8875115608
 H    0.5571441358   -0.3947428752   -0.8730988718
 H    0.5884633994   -0.3870776659    0.8874408874
 H   -1.8184219442   -0.5065712187    2.1817510275
 H   -2.9732165707    0.5098781994    1.2624776207
 H   -3.4738118149   -2.4316025351    1.2983853714
 H   -3.4710338933   -2.4696098588   -1.3327440371