15

 N   -0.0225071682    1.3053288968    0.1683252489
 C    1.0546805985    2.2104667788    0.0758927961
 C    1.7572288752    2.5012119348   -1.0348272582
 N    1.5775289075    2.0486890556   -2.3172704760
 C    1.8451616595    0.8550843315   -2.7110143293
 N    2.5034421087   -0.1154146538   -2.0155242675
 C    2.0689389909   -0.7193534474   -0.9671104191
 N    0.7961998098   -0.8481451918   -0.5150292801
 C   -0.0992219959   -0.0120166960   -0.1521885602
 H   -0.8590229652    1.6690112255    0.6004554811
 H    1.2295934548    2.7893373411    0.9762733661
 H    2.5058807654    3.2863362871   -0.9327546259
 H    1.6626846478    0.6317588109   -3.7643496989
 H    2.7766402920   -1.3801614940   -0.4618224967
 H   -1.1061273606   -0.4046483891    0.0035014397