17

 O   -0.3450911777    0.1009034636    0.4100230002
 C   -0.0902131814    1.2760617630    0.3655247377
 C    1.2359518937    1.8795742470   -0.0289310392
 N    2.3027572829    0.9877762535   -0.5250708668
 C    2.6098679217    1.9075994109   -1.6486967161
 C    1.9506434732    1.5385302205   -2.9972046181
 C    0.6701539295    0.8524551706   -2.7888580096
 N    0.6843388338    2.3301204355   -2.6410129538
 C    1.3509629218    2.7290330882   -1.3424603462
 H   -0.8487527900    2.0468466587    0.6408432007
 H    1.5363318377    2.5269816904    0.8137467506
 H    3.0572339592    0.7938727484    0.1197643240
 H    3.6114879970    2.3378586961   -1.6853562785
 H    2.4222989108    1.6512301443   -3.9683672010
 H    0.1153071689    0.5585427018   -3.6745450459
 H    0.5482352547    0.2047853825   -1.9290630583
 H    1.3362664543    3.8119767550   -1.2366146796