25

 C    0.0771830063    1.5239157829   -0.0181047066
 C    0.0044145384    0.0061748980   -0.0328278566
 O    0.7104743821   -0.4696182569   -1.1585991304
 C    0.6941085096   -1.8763423450   -1.2777814698
 C    1.4819854805   -2.2794177567   -2.5133218048
 C    2.9743807512   -1.9033281686   -2.4746134820
 C    3.5916754893   -2.8065931427   -3.5510826056
 C    2.8764885402   -4.1604275737   -3.3504222425
 C    1.4762559416   -3.8111427253   -2.7665053485
 H    1.1176238449    1.8571423408    0.0344586885
 H   -0.3685954858    1.9378716631   -0.9270837588
 H   -0.4604403405    1.9244321081    0.8466241577
 H    0.4371391760   -0.4106512616    0.8931424132
 H   -1.0462475662   -0.3300691734   -0.0724281527
 H    1.1395186159   -2.3431599191   -0.3799773617
 H   -0.3460958416   -2.2413623240   -1.3459477421
 H    1.0261605507   -1.7723100101   -3.3733623390
 H    3.1459318836   -0.8371795311   -2.6388476377
 H    3.3922372396   -2.1547982478   -1.4896486625
 H    3.3630032432   -2.4014334850   -4.5446784476
 H    4.6803506073   -2.8865564613   -3.4798435824
 H    2.8096171821   -4.7369483590   -4.2772115813
 H    3.4369414773   -4.7762798873   -2.6392530330
 H    1.3062050593   -4.3527306506   -1.8287948675
 H    0.6645561852   -4.0985766539   -3.4407352362