18

 N   -0.1447018598    1.1207223605   -0.2040943505
 C   -0.0961313460   -0.2492618065   -0.0546876891
 O    0.8417158317   -0.9307747176   -0.4083935879
 N   -1.2339901875   -0.7669817595    0.5867552744
 C   -2.5975954489   -0.6130529450    0.0997083048
 C   -1.9271854223   -1.9573103501    0.1359915538
 C   -1.5574468224   -2.6505722437   -1.1357265926
 C   -0.9409882435   -3.9950083142   -1.0848694134
 N   -2.3310660116   -3.8349946089   -1.5506179647
 H    0.7460315628    1.5500782722   -0.3995786641
 H   -0.7649758041    1.6437657911    0.3933479089
 H   -3.3443060745   -0.3448384922    0.8430452316
 H   -2.7355400646   -0.1590356841   -0.8793610811
 H   -2.1972966344   -2.6368476976    0.9456801823
 H   -1.2894066530   -1.9906735115   -1.9562764948
 H   -0.2298293557   -4.2907283541   -1.8496020436
 H   -0.7629630600   -4.4327569536   -0.1058473839
 H   -2.9773388961   -4.1044222951   -0.8111863901