20

 C   -0.1122193544    1.6056527438    0.3775793525
 C   -0.0992795732    0.0928877028    0.2034683345
 O   -1.4003545438   -0.3545571608   -0.1099303161
 C    1.0472611384   -0.5464424040   -0.6288040483
 N    1.9715547612   -0.0744141704    0.4840671887
 C    0.7971649545   -0.7440407438    1.1897504094
 C    0.8688926560   -1.9122302207    0.1539449938
 C   -0.2374168551   -2.9236585659   -0.1081888408
 O    2.0855464561   -2.6350505983    0.3296768414
 H    0.8806782178    1.9933230877    0.5933101957
 H   -0.4998920165    2.0767146237   -0.5317900982
 H   -0.7807584151    1.8794944968    1.2053232848
 H   -2.0214857463    0.1791212938    0.3947743012
 H    1.2840081795   -0.3839914917   -1.6835619702
 H    2.7548606477   -0.7270728287    0.5206137256
 H    0.7450287050   -0.8112903050    2.2791518965
 H   -0.0190979260   -3.4729248575   -1.0345304437
 H   -0.2544156644   -3.6531822289    0.7083135335
 H   -1.2155273150   -2.4649613406   -0.2085001740
 H    2.1508999937   -3.2748368322   -0.3863006062