19

 N    0.0834010415   -0.1239662867   -1.3967645837
 C   -0.4905593447    0.2978310209   -0.3442961341
 N   -1.8548867414    0.1269562594   -0.1793565708
 C   -2.5541617329    0.5559176344    0.9343864557
 O   -2.0164229920    1.1266987047    1.8602112347
 C   -4.0466304566    0.2286976284    0.9290515659
 C   -4.7146553400    0.1340348553   -0.4265952804
 C   -4.7385240014   -1.1738432656   -1.1950742574
 C   -6.0022442776   -0.6314062603   -0.5781848684
 H    1.0804124492    0.0803866397   -1.3585736844
 H   -0.0349287103    0.8093038809    0.5056214198
 H   -2.3499657640   -0.3358330368   -0.9289140206
 H   -4.1644779636   -0.7225735937    1.4659553009
 H   -4.5209572188    0.9908533142    1.5543758816
 H   -4.6303195612    1.0330085920   -1.0316783434
 H   -4.6380457428   -1.1436347724   -2.2744668161
 H   -4.2874441313   -2.0457993641   -0.7314906541
 H   -6.3945108136   -1.1384140692    0.2971063573
 H   -6.7635118383   -0.2285940608   -1.2363062624