17

 C    0.0147192360    1.4994275526   -0.0473157481
 C   -0.0098603595    0.0089995422    0.0501537992
 N   -0.0169593113   -0.7587704575   -1.0519974923
 N   -0.0266005416   -2.0435518167   -0.6224695888
 C   -0.0482202571   -2.1185504567    0.7297604101
 C   -0.0279302054   -0.8314263681    1.1806149987
 O    0.0106447590   -0.7073974816    2.5425129459
 C   -0.2170452969   -2.0521676826    3.0427267831
 C    0.0192136758   -3.0773534772    1.8752208741
 H    0.9115849171    1.9179468840    0.4228061278
 H    0.0029316702    1.7996455711   -1.0971383008
 H   -0.8503733438    1.9483947478    0.4529118752
 H   -0.0652776443   -2.7786524696   -1.3060856892
 H    0.4497401274   -2.2093629119    3.8929037332
 H   -1.2551969705   -2.1122466104    3.3897921587
 H   -0.7488815973   -3.8569192419    1.8802743065
 H    0.9946065122   -3.5747572235    1.9528126567