14

 N   -0.1045229018    1.3162874599   -0.1217362696
 C   -0.0220992717    0.0585385613    0.0301217472
 C   -1.2797988771   -0.7840980676    0.1136204829
 O   -1.1036078559   -1.9189292247    0.9363942267
 C   -0.0892714680   -2.7680117880    0.4508364183
 C    1.2489792313   -2.0624425163    0.2592671715
 O    2.3102033645   -2.6410460714    0.2295093386
 N    1.1558242872   -0.6880784953    0.1046811065
 H    0.8140596612    1.7565465451   -0.2084965441
 H   -2.0776474511   -0.1784707822    0.5423099233
 H   -1.5770751291   -1.0818266576   -0.9066175773
 H    0.0544422556   -3.5693468450    1.1775065362
 H   -0.3707635725   -3.2268403137   -0.5128912809
 H    2.0433479374   -0.2074408247    0.0169623407