17

 C   -0.0978740368    1.3997374747    0.1477715916
 O   -0.0889672322   -0.0233372514   -0.0093406881
 C   -1.2835691772   -0.6294449941    0.0412416180
 N   -2.3797818344   -0.0260118078    0.2167980033
 C   -3.6491887200   -0.7343332131    0.2744270284
 C   -4.4686460151   -0.1683437857    1.4383457864
 O   -4.6827741734    1.2191062752    1.2983811915
 C   -1.1326950164   -2.0651937361   -0.1377720510
 N   -1.0756091262   -3.2115299714   -0.2723074854
 H    0.9445378684    1.7053485029    0.0639181608
 H   -0.7029059759    1.8690854204   -0.6323915230
 H   -0.5021845246    1.6765413681    1.1254177383
 H   -4.1893179593   -0.5280406188   -0.6580359968
 H   -3.5371823110   -1.8227321354    0.3735242154
 H   -5.4528897223   -0.6472341540    1.4580844761
 H   -3.9603268117   -0.4082632413    2.3867001101
 H   -3.8184765517    1.6020166279    1.1052287444