18

 O   -0.0471452198    0.0370972975    0.8806179008
 C    0.0333091595    1.1678950299    0.4545446535
 N    1.1811164557    1.7576766901    0.0107086364
 C    2.4272867658    1.0660524376   -0.0706148680
 C    2.9050596397    0.0144716684   -1.0939514288
 C    4.0909077033    0.2059859269   -0.1259741480
 C    3.8316352655    1.7465849489    0.0293532751
 C    3.8437332741    1.6687676080    1.5694904871
 C    3.1587889468    0.3604698216    1.1246949186
 H   -0.8336398107    1.8564631197    0.3903673795
 H    1.1114175430    2.6782925756   -0.3953181775
 H    2.3952558680   -0.9520174435   -1.0675241089
 H    3.0487857865    0.3575503471   -2.1241866436
 H    5.0690983381   -0.2709981397   -0.1357715898
 H    4.2075422261    2.5278600682   -0.6354232762
 H    4.8228995416    1.5740066681    2.0481071174
 H    3.2213174149    2.3915275018    2.1056279558
 H    2.7359678018   -0.4468464761    1.7194945765