15

 C    0.1067984399    1.4443771576   -0.1090634160
 C   -0.0117563086   -0.0437689470   -0.0175738757
 C   -0.3129207181   -0.9091386927   -1.0196545392
 O   -0.6472652579   -0.6954938832   -2.3192879600
 C    0.2627223003   -1.0867139451   -3.2720542566
 O    0.0327927261   -0.9863518268   -4.4324031115
 O   -0.3497348824   -2.1981491816   -0.5961973267
 C   -0.0549218544   -2.1629171499    0.7364501493
 C    0.1552323521   -0.8860625555    1.1403689538
 H    1.1093473019    1.7851015418    0.1721752751
 H   -0.0948960023    1.7884252387   -1.1264345364
 H   -0.6037661948    1.9417833427    0.5600008274
 H    1.1891126522   -1.4809612019   -2.8204350309
 H   -0.0339468565   -3.1184141366    1.2325168685
 H    0.4021248524   -0.5631965705    2.1401728187