20

 C    0.1403436828    1.4941675779    0.5951302503
 C   -0.0210377866    0.0570385050    0.0858814379
 C    0.6878917681   -0.9736802961    0.9886706232
 N    2.1317544484   -0.8103868955    1.0469181456
 C    2.7819717296   -0.2938735625    2.1239454131
 O    2.2498826558    0.1136190107    3.1350327087
 C   -1.4842942270   -0.3146789753   -0.0264868380
 C   -2.2305134768   -0.2075037083   -1.2851417214
 O   -1.7924055896   -1.4789268768   -0.7998039324
 H    1.1960583627    1.7651832437    0.6715096535
 H   -0.3463268288    2.2055266321   -0.0793779203
 H   -0.2999299410    1.6107211828    1.5909626254
 H    0.4115061582   -0.0217011912   -0.9210819174
 H    0.3256940979   -0.8852748362    2.0168160242
 H    0.4559574133   -1.9812292558    0.6283125106
 H    2.6866688183   -1.1220443829    0.2656952290
 H    3.8803316033   -0.2869551124    1.9741221465
 H   -2.0518493888   -0.2438530577    0.9046428405
 H   -3.3073851682   -0.0463695660   -1.2690755128
 H   -1.7217280415    0.1507987447   -2.1795560362