16

 C   -0.0523482427    1.4187361269    0.0414852782
 O   -0.0459205274   -0.0050824306   -0.0068160979
 C   -1.2375334188   -0.6325802161    0.0117545518
 C   -1.2269543299   -2.0309707461   -0.0352683943
 C   -2.4547944158   -2.6754781825   -0.0160307031
 C   -3.6366941395   -1.9427767633    0.0476912011
 C   -3.5157793394   -0.5567941589    0.0899961020
 O   -4.6318756437    0.2010415825    0.1523623677
 N   -2.3508968978    0.0916049385    0.0729364365
 H    0.9970102275    1.7161296288    0.0173636007
 H   -0.5839815649    1.8423341389   -0.8158854132
 H   -0.5262803797    1.7824306311    0.9581304944
 H   -0.2862122488   -2.5625153761   -0.0842202073
 H   -2.4948602051   -3.7594043322   -0.0508951918
 H   -4.6136798756   -2.4064906950    0.0646314181
 H   -4.3307960483    1.1194522640    0.1730186770