13

 O   -0.0069666629   -0.0325467863    0.0039994655
 C   -0.0118080860    1.1770341939    0.0097297918
 N   -1.2280704662    1.9034510664    0.0294047720
 C   -1.2073665183    3.1853464475    0.0353315173
 N   -0.0736433717    3.9515550352    0.0239856396
 C    1.1534940384    3.3438090982    0.0048030251
 C    1.2407734665    1.9881527279   -0.0028982447
 C    2.4992597585    1.3372461399   -0.0226813013
 C    3.5671440681    0.7816842699   -0.0395301148
 H   -2.1388286943    3.7500783120    0.0504043426
 H   -0.1441539172    4.9564322472    0.0298129007
 H    2.0195678882    3.9932549348   -0.0035193795
 H    4.5003611468    0.2754555532   -0.0544426843