21

 C    0.3671275452    1.5650673382   -0.0346510758
 C    0.7201657154    0.0840044133    0.0650394381
 C    0.3246301507   -0.5397001721    1.3904434542
 O   -0.3193746644    0.0508784860    2.2295655276
 C    0.7003384854   -1.9949141662    1.6270979496
 C   -0.4645887853   -2.8704809839    2.0361082766
 O    1.6355472924   -2.5669328741    0.6999730511
 C    2.0759661235   -2.3436794687    2.0446124086
 C    3.1982994397   -1.3659526431    2.2814277385
 H    0.9004501250    2.1477510818    0.7217300315
 H    0.6301880122    1.9585541663   -1.0203145443
 H   -0.7012745369    1.7237979206    0.1306334245
 H    0.2143444463   -0.5032749466   -0.7160511280
 H    1.7831543436   -0.1061005867   -0.1161891145
 H   -1.1981276498   -2.9395947331    1.2257566677
 H   -0.1218399732   -3.8801020076    2.2742938802
 H   -0.9616300218   -2.4371110277    2.9071875097
 H    2.1630094794   -3.2661539786    2.6235862455
 H    3.0563856070   -0.4265450573    1.7443401298
 H    3.2753812025   -1.1413163284    3.3503156659
 H    4.1498232032   -1.8028618722    1.9609189034