16

 C   -0.0169048324   -1.1065146059   -0.0476261451
 C   -0.0073562604    0.0952028073    0.0161395749
 C    0.0472251855    1.5102237222    0.0987324301
 C   -0.9247449031    2.3952324184    0.8249963983
 C   -0.0647150669    3.6507884286    1.0675390773
 C    1.3670595166    3.1594105097    1.4026916522
 C    1.2838318239    2.4425239965    0.0329863020
 C    0.2352493538    3.4880120450   -0.4591607142
 N   -0.8742521324    2.4479977665   -0.6688429493
 H   -0.0354276713   -2.1662514917   -0.1093215065
 H   -1.7909877182    2.0223927024    1.3573654949
 H   -0.5229603642    4.5254248332    1.5236698449
 H    2.0892473923    3.9817996450    1.3830479254
 H    1.5151369113    2.5519629800    2.3000890119
 H    2.1504604657    2.1107601914   -0.5331478970
 H    0.3944994197    4.2785057114   -1.1878399899