12

 O    0.0078015331    1.5266329505    0.0454471208
 C    0.0242131549    0.1301563999    0.0685117357
 C    0.6927854535   -0.4243755339   -1.2029693066
 O    1.1248632535    0.3240253800   -2.0383950451
 C    0.7130169418   -0.4315118200    1.2312329875
 C    1.2889385653   -0.9291841375    2.1690172389
 C    1.9786331392   -1.4814006053    3.3090355144
 O    2.1413709156   -2.6645829835    3.4957338560
 H    0.5053599376    1.7779037160   -0.7504384178
 H   -1.0080784933   -0.2656095949    0.0672239540
 H    0.7475816974   -1.5248693012   -1.2881513513
 H    2.3583781212   -0.7195773101    4.0185389536