23

 C   -0.0552548833    1.5833136055   -0.1998754379
 C   -0.0335613975    0.0732582393    0.0262629846
 C    1.0355266694   -0.6713493615   -0.8290929414
 C    1.9637591523   -0.7246574832    0.4135361798
 C    0.7249605753   -0.4226738241    1.3044342310
 C    0.8731425170    0.4866383308    2.5219094183
 C    1.7013063187   -0.1549519676    3.6099775660
 C    1.4076854004    0.0212153837    5.0369641124
 O    1.0668781540   -1.1933385398    4.3659596332
 H    0.9490545625    2.0193285879   -0.1542080232
 H   -0.4646077762    1.8130530578   -1.1897070288
 H   -0.6753220914    2.0970988355    0.5426217038
 H   -1.0529023730   -0.3149667344   -0.0663665517
 H    0.7015304600   -1.6663439171   -1.1354468279
 H    1.4093998083   -0.1456068253   -1.7123160439
 H    2.5070943060   -1.6539593501    0.6005760040
 H    2.6847828448    0.0997977598    0.4219997142
 H    0.2796678301   -1.3666080712    1.6367157371
 H    1.3454355853    1.4353550361    2.2356779943
 H   -0.1158236053    0.7289247355    2.9305719876
 H    2.7327901665   -0.3868916125    3.3365960254
 H    2.2065093411   -0.0580600486    5.7734970434
 H    0.5636103251    0.6421009736    5.3360193196