16

 C   -0.1210086611    1.4937207193    0.0008408325
 C    0.0172017336   -0.0155033672    0.0108910623
 O    1.0981717561   -0.5707754870   -0.0020217467
 C   -1.2295198539   -0.8135565568    0.0372628896
 N   -2.4309341509   -0.2333810633    0.0538700015
 N   -3.2917423421   -1.2698702916    0.0723489697
 C   -2.6750003898   -2.4871408573    0.0561206350
 N   -3.4136363065   -3.6673888487    0.1364443095
 C   -1.3217447182   -2.2279798770    0.0342913619
 H    0.8717391626    1.9446408438   -0.0116145681
 H   -0.6946062263    1.8167794436   -0.8733260276
 H   -0.6797722556    1.8302538900    0.8794485942
 H   -4.2797584333   -1.0895639834    0.1428753010
 H   -4.1497829325   -3.7352133369   -0.5567600651
 H   -2.8207270021   -4.4838895778    0.0730212698
 H   -0.5077461900   -2.9319907096    0.0058519803