22

 C    0.0360704871    1.5808745445   -0.1065261267
 C    0.0019809820    0.0518780186   -0.0639354859
 C    1.0476802187   -0.5667205397   -1.0551514490
 C    2.0508514712   -0.7200998476    0.1183359215
 C    0.8790776011   -0.5026080659    1.1116105542
 C   -1.3884180860   -0.5463478811   -0.1544229305
 C   -2.6123959033    0.0592670485    0.4897939502
 C   -2.4953740662    0.0147949792   -1.0144653006
 H    1.0667492813    1.9433856656   -0.0370391909
 H   -0.3811434718    1.9706079395   -1.0409972265
 H   -0.5187918429    2.0229455944    0.7276783257
 H    0.7136247196   -1.5340664362   -1.4419097583
 H    1.3498929252    0.0557506582   -1.9023116538
 H    2.5899391091   -1.6676441115    0.1883206824
 H    2.7855936926    0.0886595840    0.1515777365
 H    1.0495689883    0.1699516716    1.9572338290
 H    0.4848391056   -1.4470688200    1.4982674946
 H   -1.3620405821   -1.6339521003   -0.1202176508
 H   -3.3169199563   -0.6074819520    0.9750529023
 H   -2.5221671881    1.0267922005    0.9705622209
 H   -2.3275278007    0.9528196642   -1.5314964904
 H   -3.1194933846   -0.6825133945   -1.5627544638