19

 C    0.4448306476    1.4145665775    0.2201608274
 C   -0.2990172279    0.1362650635   -0.1898123202
 C    0.3740754016   -0.5342444796   -1.3629022233
 O    1.5665157920   -1.2877528142   -1.1190550323
 C    0.4199051731   -1.9952033098   -1.6200506602
 C   -0.1644027060   -3.0520267753   -0.7017820464
 N    0.7215621909   -4.2117177019   -0.6933417722
 C    0.5397966371   -2.4097451983   -3.0126671832
 N    0.5930754925   -2.7087372029   -4.1275048379
 H    1.4725662771    1.1855338394    0.5169068940
 H    0.4849499358    2.1323217421   -0.6058280305
 H   -0.0537655585    1.9005920071    1.0631812314
 H   -0.3527188165   -0.5488805534    0.6599518691
 H   -1.3300221371    0.3772265745   -0.4778148119
 H    0.4454061919    0.0941170115   -2.2534095403
 H   -0.3394912065   -2.5999086092    0.2841831003
 H   -1.1374972749   -3.3601294455   -1.1010595934
 H    1.5937623075   -3.9738928321   -0.2312333964
 H    0.3028762404   -4.9739360135   -0.1721409839