17

 C   -0.0547759844    1.4568521446    0.0198876849
 N   -0.0173053946    0.0093520950    0.0015904796
 C    0.0064530266   -0.7762125314   -1.1202047180
 C    0.0237092842   -2.1029988755   -0.7280367617
 C    0.0333795196   -2.1089048342    0.7050805389
 C    0.0108927092   -0.7996020719    1.1220339875
 N   -0.0667536666   -0.2136047074    2.4017852537
 C    0.0363975012   -3.2283976760   -1.5830574610
 C    0.0485346020   -4.1970864218   -2.3004606700
 H    0.9511230525    1.8929615446   -0.0116455458
 H   -0.6178014660    1.8179840476   -0.8435970750
 H   -0.5499138318    1.7823411749    0.9365489216
 H    0.0124782740   -0.3416845780   -2.1062890402
 H    0.0554838092   -2.9818264632    1.3382898193
 H   -0.3950132791   -0.8892543321    3.0805892254
 H    0.8284585317    0.1408742574    2.7269507382
 H    0.0582219623   -5.0472357125   -2.9352715473