21

 C   -0.0339796078    1.5303313723    0.0561734719
 C    0.0347913399    0.0198368008   -0.0041717588
 C   -0.5938347702   -0.7815985631    1.1280020721
 C    0.9013638507   -0.7871813492    0.9320991233
 O    1.4952374352   -1.8621918394    0.2458872747
 C    1.1577304988   -1.7993222959   -1.1184282176
 C   -0.2609022802   -2.0960260781   -1.5349324971
 C    0.2058560747   -0.6555347515   -1.3724256783
 C    0.2988179563    0.2164153831   -2.6057243344
 H    0.8194148758    2.0022350244   -0.4410917557
 H   -0.9482970288    1.9105774701   -0.4135212940
 H   -0.0363930281    1.8706149601    1.0959361259
 H   -0.9702577284   -0.2059780841    1.9684607838
 H   -1.1569893846   -1.6840556903    0.9288833494
 H    1.5580172673   -0.3542409586    1.6804849790
 H    1.9891200626   -2.0562434963   -1.7676549589
 H   -0.4046791012   -2.4389139621   -2.5553049882
 H   -0.9380631611   -2.5483701922   -0.8221504654
 H   -0.6488034943    0.7281103145   -2.8090927074
 H    1.0785275643    0.9791961444   -2.5137126259
 H    0.5362913789   -0.3903285188   -3.4845720484