17

 O   -0.0780089541    0.0520177362    0.2472872657
 C    0.0700654545    1.2068053925   -0.0643684783
 C    1.3375683342    1.9446191832   -0.0366502263
 O    2.5069329765    1.2919955203    0.3818089460
 C    3.4447284650    2.3751875605    0.2440776045
 C    3.2197836562    2.8341055246   -1.2147952745
 C    1.7120414056    3.0091158114   -1.0786495346
 C    1.4364830151    3.4288755763    0.3459511064
 C    2.7792502262    3.5050726786    1.0626224445
 H   -0.7816907412    1.8358862422   -0.4145490994
 H    4.4383929173    2.0428989637    0.5341844687
 H    3.7434059187    3.7641089863   -1.4527896260
 H    3.4944068606    2.0613253645   -1.9366974603
 H    1.0548484257    3.2528734033   -1.9021871359
 H    0.5643592807    4.0000298651    0.6335551403
 H    2.7087994756    3.2578316446    2.1245359205
 H    3.2804272634    4.4692845768    0.9407869886