19

 C   -0.0087850220    1.5418822997   -0.0330496904
 C   -0.0146662656    0.0461112726    0.0271528474
 C   -0.0111730578   -0.8163040779   -1.0317339037
 O   -0.0175408238   -2.1291668402   -0.6260599554
 C   -0.0328199301   -2.0784653826    0.7245241735
 C   -0.0313376340   -0.8075502442    1.1850646444
 C    0.0164240668   -0.7885095034    2.6862869236
 C   -0.2475758256   -2.2957163951    3.0411913875
 C    0.0191465548   -3.1516262418    1.7551371245
 H    0.8722595272    1.9612305721    0.4666558946
 H   -0.0047721298    1.8970453216   -1.0674660851
 H   -0.8890321699    1.9676496379    0.4624990288
 H   -0.0168643952   -0.6612961214   -2.0987395399
 H    0.9946492231   -0.4551526791    3.0579616073
 H   -0.7297278232   -0.1352159361    3.1518746783
 H    0.3575913043   -2.6309729745    3.8868680050
 H   -1.2957017032   -2.4132949190    3.3303727273
 H   -0.7294238161   -3.9402447832    1.6235642315
 H    0.9993067101   -3.6466230455    1.7862477408