25

 C   -0.2406735302    1.5874370051    0.7951401506
 C   -0.0444486493    0.1035648466    0.5096528928
 C    0.9802936474   -0.4104358697   -0.5540734657
 C    2.2925102884    0.2316640075   -0.0571052178
 C    2.1548999494   -0.0810964929    1.4728694226
 C    0.8002936409   -0.8196807380    1.4477159014
 C    0.9588031730   -1.7878131400    0.2131912637
 C   -0.2578625802   -2.6804359625   -0.0787169392
 C    2.1913582838   -2.6971792516    0.1379189003
 H    0.6896450298    2.1256800669    0.9900113958
 H   -0.7312967240    2.0777286466   -0.0536116921
 H   -0.8883709358    1.7257040343    1.6685419335
 H   -1.0278580360   -0.3293158773    0.3328022101
 H    0.7709377866   -0.3550212961   -1.6250054975
 H    3.1808546986   -0.2166129838   -0.5080417895
 H    2.3321992436    1.3037394253   -0.2672553878
 H    2.9680452133   -0.7002843605    1.8586761192
 H    2.1203553821    0.8224095480    2.0873306647
 H    0.4087127969   -1.1784561551    2.4025630648
 H   -1.2188076289   -2.1655370694   -0.0623129637
 H   -0.1545798102   -3.1451241188   -1.0662288847
 H   -0.3118185027   -3.4937222619    0.6543877231
 H    2.1046110327   -3.5128951025    0.8652968205
 H    2.2613094493   -3.1579804344   -0.8544390786
 H    3.1378229515   -2.1911656459    0.3286254933