12

 C   -0.0245954262    1.4860762009    0.0328633134
 C    0.0030514003   -0.0070236645   -0.0228132228
 N   -0.0357751000   -0.5992611719   -1.1808348041
 C   -0.0103515620   -1.9704189689   -1.2366616577
 O   -0.0385694324   -2.6665363920   -2.1991824660
 O    0.0593611491   -2.6506247168    0.0413559550
 C    0.0929125425   -1.9228803124    1.1438735508
 N    0.0700260797   -0.6399307710    1.2104801272
 H    0.8697899230    1.8478875111    0.5511759697
 H   -0.0779481788    1.9083515025   -0.9693759368
 H   -0.8828156229    1.8125798416    0.6297667672
 H    0.1449457677   -2.5328521086    2.0437260041