17

 C    0.9349183024    1.1789617911   -0.1032304225
 O    0.9586823995   -0.2229048188   -0.2421215099
 C   -0.0613782336   -0.7098635987   -1.0756860487
 C    0.0779248110   -2.2377736982   -1.2096187732
 O   -1.1069514165   -2.7585656114   -1.7417500678
 C    1.2504732632   -2.6337602308   -2.1109644624
 O    1.0251431347   -3.2090289433   -3.1605476243
 C    2.5912465401   -2.3306023424   -1.6806799487
 C    3.7220725339   -2.1223109214   -1.3261689021
 H    1.0758522402    1.6863732483   -1.0701481976
 H   -0.0138752176    1.5276483018    0.3332514682
 H    1.7543432573    1.4541788442    0.5646620897
 H   -1.0586868838   -0.5142901983   -0.6523541307
 H   -0.0287004380   -0.2397582186   -2.0730690660
 H    0.2723065392   -2.6402669783   -0.2033227927
 H   -0.8522421944   -3.1739330713   -2.5824902930
 H    4.7182890723   -1.9292928237   -1.0092408384