15

 N    0.0553503094    1.3749486416    0.1508004541
 C   -0.0010504239    0.0056389600    0.0593520786
 C   -1.1730164531   -0.7097568551    0.0273892918
 C   -1.2169557152   -2.1494484561   -0.0132345522
 O   -2.2148759629   -2.8578239400   -0.0406848543
 N    0.0605995432   -2.7427603774   -0.0230066235
 C    1.2447954504   -2.0561806182   -0.0020116443
 C    1.2540244686   -0.7027519306    0.0383898775
 O    2.3831557441    0.0814547767    0.0530065373
 H    0.9293319858    1.8054854199   -0.1047824990
 H   -0.7720642286    1.8889602029   -0.1037168292
 H   -2.1307095737   -0.2030512825    0.0378411872
 H    0.0557189059   -3.7511045665   -0.0527628585
 H    2.1528922277   -2.6481091776   -0.0226900012
 H    3.1650712724   -0.4746739972   -0.0140484842