13

 N   -0.0161671298    1.3995541756    0.1427954719
 C    0.0019351130    0.0285862392    0.0535608231
 C   -1.1737298507   -0.7414215322    0.0385426949
 N   -1.1623845020   -2.0655143741    0.0043883106
 C    0.0379725517   -2.6538297584   -0.0164219392
 N    1.2220618632   -2.0331100132   -0.0098037307
 C    1.1978276650   -0.7091920680    0.0244272770
 C    0.0573402638   -4.0952383024   -0.0535446671
 N    0.0728690880   -5.2510184325   -0.0835422542
 H    0.8200355166    1.8926113360   -0.1290360595
 H   -0.8686204438    1.8696665343   -0.1190255273
 H   -2.1491691321   -0.2574391951    0.0553344969
 H    2.1598861626   -0.1988797191    0.0296871736