14

 C    0.1405663743    1.5053367904    0.0546589950
 C   -0.0368016627    0.0348550536    0.0489638675
 C   -1.1242138065   -0.7713002237   -0.0514777921
 N   -0.6446229930   -2.0825938375    0.0066215445
 C    0.7143688458   -2.0955281928    0.1396243725
 O    1.5010131101   -2.9907842885    0.2236363968
 O    1.0817453121   -0.7320109461    0.1649757176
 C   -2.5335166120   -0.4797501779   -0.1916603987
 O   -3.3805969190   -1.3481456489   -0.2673785599
 H    0.7899682625    1.8170614441   -0.7705945912
 H   -0.8201451487    2.0129901454   -0.0443760509
 H    0.6163740795    1.8314027327    0.9859105255
 H   -1.2236702144   -2.9035854517   -0.0455891383
 H   -2.7925214579    0.5972357011   -0.2259127182