19

 C    0.2772405305    1.2789556615    0.1402714588
 C   -0.0640754017   -0.1911074179   -0.1668346518
 C   -1.5325640789   -0.4816918085   -0.1317575105
 C   -2.4886769662   -0.5269441710   -1.1374427724
 C   -2.2838535435   -0.2989993507   -2.5996257002
 O   -1.2488773227   -1.1650001661   -3.0718702147
 C   -3.6938146899   -0.8346325069   -0.4679966655
 N   -3.5248144287   -0.9692033278    0.8430733903
 N   -2.2052274038   -0.7494870507    1.0167452321
 H    1.3585277210    1.4417911958    0.0956729009
 H   -0.1978217509    1.9505666743   -0.5811309100
 H   -0.0677161079    1.5691499324    1.1378931022
 H    0.3009396583   -0.4611368902   -1.1608083496
 H    0.4568741168   -0.8424736323    0.5465554038
 H   -3.2303460892   -0.4899720919   -3.1279825277
 H   -2.0145781090    0.7513451657   -2.7975522216
 H   -1.0742592836   -0.9382681286   -3.9910242030
 H   -4.6769790596   -0.9648572970   -0.8986270118
 H   -1.8185372708   -0.8277434000    1.9427869109