16

 C    0.1904927043    1.4710035114    0.0108807150
 C   -0.0353963365    0.0042305916   -0.0010580200
 C   -1.1318535301   -0.8055993978    0.0435913612
 C   -2.5792611314   -0.4520357096    0.1252700177
 N   -0.7153452351   -2.1280988203    0.0004138322
 C    0.5822085579   -2.0690516449   -0.0668721682
 O    1.0717445344   -0.7971791591   -0.0721625490
 C    1.5073060687   -3.1313636229   -0.1326256237
 C    2.3002386913   -4.0342367597   -0.1888393671
 H    0.8013056105    1.7746907894    0.8684594387
 H    0.7088287314    1.8032944161   -0.8955842103
 H   -0.7644645278    1.9971349303    0.0694417176
 H   -3.1263670704   -0.8517914997   -0.7348717532
 H   -3.0339981157   -0.8801164938    1.0246695770
 H   -2.7258985281    0.6305253706    0.1503801941
 H    2.9950910566   -4.8360188815   -0.2382350619