18

 C   -0.0204726277    1.5515369994    0.0128336095
 C    0.0114906788    0.0209289315   -0.0141396638
 C    0.7162797094   -0.5386551158   -1.2538306600
 C    0.7478240622   -2.0602723941   -1.2806508568
 O    1.4128569212   -2.4819986530   -2.4520519026
 C    1.4906687113   -3.8808269439   -2.5637774729
 H    0.9927816571    1.9681051802    0.0059846788
 H   -0.5467210967    1.9512479698   -0.8609784941
 H   -0.5284254136    1.9246581734    0.9075760640
 H    0.5128029604   -0.3498318211    0.8898149357
 H   -1.0151262243   -0.3665477866    0.0287085931
 H    0.2164434141   -0.1834786588   -2.1634761534
 H    1.7473463649   -0.1669574547   -1.3005488037
 H    1.2649449425   -2.4501762535   -0.3855342840
 H   -0.2791928894   -2.4668501261   -1.2561807181
 H    2.0450672716   -4.3303609594   -1.7237613456
 H    0.4923327280   -4.3468178300   -2.5989687809
 H    2.0174389205   -4.1080920172   -3.4940546252