18

 C   -0.1134310330    1.6296456058   -0.0392386121
 C    0.0152522464    0.1069137285    0.0434692410
 C   -1.3368822210   -0.6033477044   -0.0231078355
 C   -1.2366413621   -2.1222810775    0.0204634495
 O   -0.1860524559   -2.7095311588   -0.0241597932
 C   -2.5899350049   -2.8539564664    0.1332472448
 C   -2.5139396839   -4.2976488912   -0.0024586489
 C   -2.4576113775   -5.4913478731   -0.1172204240
 H    0.8679648183    2.1106609450    0.0115335258
 H   -0.5871609744    1.9402603611   -0.9774215445
 H   -0.7201848315    2.0260380061    0.7828539953
 H    0.6501943196   -0.2657609822   -0.7666092306
 H    0.5225627944   -0.1788460364    0.9715023516
 H   -1.9995508628   -0.2729877985    0.7895734044
 H   -1.8703776644   -0.3357479891   -0.9477614029
 H   -3.0211218019   -2.5810437511    1.1073749682
 H   -3.2757606142   -2.4270407244   -0.6109273765
 H   -2.3987317111   -6.5464837333   -0.2194034224