14

 C   -0.0797084479    1.4190865786    0.0394567934
 N   -0.0392271693   -0.0202738413   -0.1246174704
 C    0.7774194689   -0.6264590549   -1.0243714488
 O    1.5455989368   -0.0596415113   -1.7743762820
 C    0.6536110121   -2.1283167064   -1.0230312565
 N   -0.1660071291   -2.7659493197   -0.2261563130
 O    0.0326675185   -4.1045514360   -0.5458085829
 C    0.9613592473   -4.1141544465   -1.5107641117
 N    1.3880284324   -2.9438885969   -1.8545780994
 H    0.6326883911    1.8508422090   -0.6640901419
 H   -1.0789220840    1.8135159630   -0.1746718776
 H    0.2013773313    1.7090381034    1.0576708461
 H   -0.6328850057   -0.6057807643    0.4425741835
 H    1.2548361773   -5.0789463766   -1.8971822188