18

 O   -0.1132481393    1.3942179156   -0.4485596655
 C   -0.0012763379    0.0582830453    0.0128240518
 C   -1.3834459291   -0.5767762725   -0.0684161802
 C   -1.3935067486   -2.0264080987    0.4333367560
 C   -2.7682927365   -2.6369642787    0.3471526142
 O   -3.2263898700   -3.0481891176   -0.9425001823
 C   -3.0128168456   -4.0641495841    0.0378865016
 C   -1.9158323074   -4.9788206121   -0.1984953276
 N   -1.0497532940   -5.7258597682   -0.3655738162
 H    0.7619889172    1.7921471331   -0.4376937122
 H    0.7089209177   -0.5207435221   -0.5996687083
 H    0.3637565847    0.0229218643    1.0531364149
 H   -2.0811378106    0.0334617661    0.5180787058
 H   -1.7285053598   -0.5428375027   -1.1074473707
 H   -0.6922354794   -2.6360517890   -0.1463488922
 H   -1.0644818704   -2.0667938681    1.4802887979
 H   -3.5405434615   -2.1491345003    0.9453572333
 H   -3.9150168896   -4.5430138003    0.4144111998