19

 C    0.0053274902    1.4414797502   -0.3624489208
 C    0.1351564195   -0.0361907947   -0.0729658273
 C    1.4334435664   -0.7393596930    0.0370775426
 O    2.4570043773    0.0790670278    0.5925455113
 C    1.7263779305    0.1946897584    1.8431336559
 C    0.5445448138   -0.6016912923    1.2924786130
 C   -0.2516331813   -1.6648690053    1.9474270400
 C    0.0037730723   -1.9093638008    3.4245055341
 O   -1.0639861013   -2.3195354866    1.3242264748
 H    0.9014277819    1.9860057381   -0.0561866824
 H   -0.1259818580    1.6021799011   -1.4374337775
 H   -0.8608021287    1.8729560563    0.1489118046
 H   -0.6395387555   -0.6758636358   -0.4896280359
 H    1.7324280739   -1.6293973120   -0.5058377397
 H    2.2703426644   -0.3188117466    2.6429195832
 H    1.5503837797    1.2381726742    2.1281093353
 H   -0.0842898716   -0.9789893193    3.9969576352
 H   -0.7104948937   -2.6438746086    3.7975355497
 H    1.0215958198   -2.2856972510    3.5790068441