16

 N    0.0292289188    1.0532461671    0.7002340835
 C    0.0752847930   -0.0470027007    0.0699640711
 N    1.1863300343   -0.7473663037   -0.4386970349
 C    0.9149340165   -2.0598103128   -0.7928420590
 O    1.7120899565   -2.8884017254   -1.1545262425
 C   -0.5970869402   -2.1743875315   -0.6489545137
 C   -1.2237216612   -2.8219356404    0.6216939391
 C   -1.7964352272   -1.4136685117    0.9528074548
 N   -1.0483139378   -0.8360143566   -0.2053178023
 H    0.9571379801    1.4459358266    0.8440854824
 H    2.1237003342   -0.3759968782   -0.4378547576
 H   -1.0368981618   -2.5063217216   -1.5939453209
 H   -1.9524557723   -3.6095435102    0.4290551942
 H   -0.4850812946   -3.1866174772    1.3377738377
 H   -2.8767998389   -1.3179530611    0.8238399313
 H   -1.5066763595   -0.9697344025    1.9074947467