22

 C    1.0980451125   -2.5941155870    1.0489291602
 C    0.2171322383   -1.7537483803    0.1023675544
 C   -0.4402234273   -0.6228939106    0.8779020936
 O   -0.5512208805    0.5176740040    0.5077973461
 C    0.9491287787   -1.2911278611   -1.1580441263
 C    2.1675085101   -0.4123829442   -0.9325470155
 C    0.9335610127   -2.2241676584   -2.3316762067
 N    0.2104189529   -0.9623295466   -2.3787034517
 C   -1.2415936420   -0.9824863814   -2.4336913854
 H    1.4955933441   -3.4656785223    0.5226500070
 H    1.9428405707   -2.0171594916    1.4350392247
 H    0.5181419284   -2.9515715836    1.9060424837
 H   -0.6241612543   -2.3998221971   -0.1886149212
 H   -0.8538798069   -0.9416884033    1.8646522791
 H    2.9520167338   -0.9404290337   -0.3802321999
 H    2.5751149957   -0.1054928959   -1.8981021384
 H    1.8966551626    0.4900751222   -0.3779903885
 H    1.7987764405   -2.3105746506   -2.9857232250
 H    0.3531614139   -3.1429661573   -2.2320251062
 H   -1.7129541134   -1.8571941647   -1.9560073687
 H   -1.6289455112   -0.0765120743   -1.9603546307
 H   -1.5480735596   -0.9826239021   -3.4848199248