17

 N    0.1835282556    1.3290339167    0.2159122232
 C   -0.0214374874   -0.0154714541    0.0899454704
 N   -1.1233300497   -0.5961237820   -0.1909612617
 C   -0.8614684435   -2.0361081563   -0.0940276640
 C    0.6686697534   -2.1345882725    0.1830065498
 O    1.0859510222   -0.7623811498    0.3452607883
 C   -1.6932147821   -2.6645515987    1.0037695758
 C   -2.9489507107   -3.3620554586    0.7220269929
 O   -1.7512108437   -4.0944523571    1.0013134111
 H    1.1275677140    1.6426469880    0.0541388975
 H   -0.5367682697    1.8990818796   -0.1980904309
 H   -1.1191099341   -2.5376597462   -1.0343443541
 H    0.9101942453   -2.6811803917    1.0987134270
 H    1.2278281560   -2.5706019731   -0.6492508312
 H   -1.5588751795   -2.2177971885    1.9910071989
 H   -3.7205438544   -3.4196642709    1.4879506710
 H   -3.3066118316   -3.4247696347   -0.3048543140