16

 N    0.0613766525    1.3887984608    0.0328355558
 C   -0.1053346165    0.0087079699    0.0642262233
 C   -1.1705912266   -0.7831080508    0.3220256601
 C   -0.7493806986   -2.1605269542    0.2096137502
 C   -1.5789513364   -3.3911564842    0.3808001615
 O   -2.6930257137   -3.4424436101   -0.5102654978
 C    0.5680774973   -2.0840129037   -0.1228852888
 O    1.4688540867   -3.0558532483   -0.3535223409
 O    1.0035077932   -0.8114677678   -0.2173193495
 H    0.3500671759    1.7321993431   -0.8777939512
 H    0.7273863579    1.7229048503    0.7223224323
 H   -2.1621925319   -0.4337786626    0.5636000587
 H   -0.9392137210   -4.2799746503    0.2772225904
 H   -2.0235664648   -3.4282963466    1.3818213926
 H   -2.3481568161   -3.3015338787   -1.3982415123
 H    2.3125001022   -2.6396540568   -0.5646959043