21

 C   -0.1434235524    1.5864818207   -0.1210568559
 C   -0.0019138977    0.0777335673    0.0155638565
 O   -1.3046654491   -0.4822386530    0.1794769889
 C   -1.4683493047   -0.8055495901    1.5834391982
 C   -0.0902874165   -0.6313064184    2.3255738312
 C    0.8032060681   -0.6310448113    1.1126193215
 C    2.1068572355   -0.1191467567    0.4322444606
 C    1.1775420166   -0.6474446708   -0.7363156563
 C    0.9063791687   -1.8744733058    0.1572909067
 H    0.7909236891    2.0911806591   -0.3758151624
 H   -0.8625729764    1.7899181428   -0.9206508981
 H   -0.5428221317    2.0370369866    0.7948046031
 H   -2.2414668798   -0.1587742525    2.0140875441
 H   -1.8176533060   -1.8417983147    1.6475052873
 H   -0.0510384200    0.3194556581    2.8666342098
 H    0.0847411675   -1.4402427700    3.0391304360
 H    2.3220734541    0.9485404161    0.4806787514
 H    3.0100011200   -0.7089537109    0.6040137966
 H    1.4149716755   -0.6362457693   -1.8018150101
 H    1.7564459164   -2.5367822763    0.3394882869
 H   -0.0087255170   -2.4298330409   -0.0399628160