15

 C   -0.0218982866   -1.2408356632   -0.0896962352
 C   -0.0057195310   -0.0419657877   -0.0278720780
 C    0.0512879846    1.4129933539    0.0463716231
 N   -0.1502432555    1.9975224132    1.4357386859
 C    1.1005730235    2.7795741152    1.2802957355
 C    2.2344515469    1.8102265943    1.2190385485
 C    1.4413867121    2.1015447951   -0.0317796434
 C   -0.8707152865    2.0192606692   -0.9230130066
 N   -1.5990400175    2.5253586003   -1.6644138044
 H   -0.0457680110   -2.3016974536   -0.1426472965
 H   -0.9761650646    2.5886296109    1.4399937193
 H    1.1747847622    3.8133862892    1.5909322058
 H    3.2295405268    2.2429490794    1.2096505180
 H    2.1450868429    0.8522689628    1.7218719563
 H    1.8737314936    2.4642120110   -0.9535697283