16

 C    0.0047618061    1.3599723715   -0.0673864112
 N   -0.0962377324   -0.0589487466    0.2290599150
 C   -1.2979032341   -0.6857175318    0.0863226889
 N   -2.4693550341   -0.1208040745   -0.0300755385
 C   -3.3384714731   -1.1979407558   -0.0721330414
 O   -4.6654382078   -0.9995438241   -0.1874024307
 C   -2.6825592189   -2.3791192763    0.0078946647
 N   -3.0667869042   -3.7036845301    0.0011357708
 O   -1.2981642725   -2.0224791397    0.1131167951
 H    0.9860458492    1.7174645516    0.2517230738
 H   -0.1323111731    1.5882726975   -1.1333349260
 H   -0.7643161752    1.8954168899    0.4925832202
 H    0.7002691380   -0.6337420830    0.0023744739
 H   -4.7909271224   -0.0437019235   -0.2160924763
 H   -2.8509385712   -4.2071561199    0.8545129055
 H   -2.7325083743   -4.2347610353   -0.7955527337