16

 C   -0.0217108613    1.5047591252    0.0523104638
 C   -0.0423333995    0.0081145105   -0.0261952143
 C   -0.1541522089   -0.6766961485   -1.1758919453
 C   -0.0400837508   -2.1419628326   -1.2068701325
 O   -0.0526246256   -2.7926276560   -2.2325471644
 C    0.1829126220   -2.8050967505    0.1520948821
 O   -0.3723584959   -2.0666246338    1.2229410710
 C    0.0906035090   -0.7383578519    1.2795058859
 H    0.8811161886    1.8557316553    0.5681158717
 H   -0.0505669583    1.9610991252   -0.9393552546
 H   -0.8753143385    1.8758101086    0.6333145001
 H   -0.2693245173   -0.1786894871   -2.1344392244
 H   -0.2898941517   -3.7891463532    0.1542390738
 H    1.2706339203   -2.9499575904    0.2872682859
 H    1.1479892408   -0.6980839360    1.6083121237
 H   -0.4992150530   -0.2408491949    2.0576822176