14

 O   -0.0372222493   -0.0384576925    0.0744003832
 C    0.0145208753    1.1572432460    0.0150936125
 C    1.3205860455    1.9664982592   -0.0019157530
 C    1.3881355223    2.8481914254   -1.2857569160
 C    1.3974602044    2.0561602211   -2.5075635343
 C    1.4003318768    1.3761495287   -3.4979754790
 C    1.3641086127    2.7943168183    1.1968976295
 C    1.3488788307    3.4863778613    2.1797575428
 H   -0.8999261211    1.7905097000   -0.0232103457
 H    2.1449225338    1.2467477417   -0.0084622998
 H    0.5345982119    3.5372314584   -1.2847297587
 H    2.2857920207    3.4725080040   -1.2249205162
 H    1.4018999910    0.7816667211   -4.3780591416
 H    1.3572903352    4.0871823272    3.0557984163