19

 C   -0.0438339302    1.4872424174    0.0104498753
 C    0.0864700213   -0.0307202657    0.0641437372
 C    1.0716859218   -0.6355447250   -0.9695055922
 O    2.3171077460    0.0442438460   -0.6321486606
 C    2.2875233532   -0.7849515276    0.5345712878
 C    1.5461386364   -1.9272378903   -0.1967113027
 C    0.6549517826   -2.1363501156    1.0450247383
 O    1.3164839997   -2.8727085164    2.0574661726
 C    0.8629376365   -0.6236257278    1.2647795837
 H    0.9379760928    1.9625590419    0.0536544689
 H   -0.5348077615    1.8048236900   -0.9165026642
 H   -0.6467256081    1.8538335326    0.8476188994
 H   -0.9035113501   -0.4939980290   -0.0183250091
 H    0.8337634264   -0.6111602119   -2.0327351773
 H    3.2110736740   -0.8413305801    1.1036347111
 H    2.0389327891   -2.7259463950   -0.7507617576
 H   -0.3787347461   -2.4827409223    0.9100323789
 H    1.4137419898   -3.7807035188    1.7524632985
 H    0.7408865965   -0.1783743924    2.2502923219