12

 N   -0.0050201649    1.3847180240    0.1557655488
 C    0.0118266006    0.0223869140    0.0266846348
 N   -1.0450276714   -0.7402447773   -0.0093234123
 O   -0.5710892162   -2.0915116866   -0.0285189344
 C    0.7664773852   -2.0336336372   -0.0361433678
 N    1.7541844240   -2.8785995803   -0.0558021938
 N    2.8948841953   -2.0744848831   -0.0245864730
 C    2.5507947388   -0.8139119362    0.0134667253
 N    1.1698835108   -0.7273254712    0.0018237075
 H    0.6725834991    1.8787149718   -0.4092232609
 H   -0.9352014617    1.7735341414    0.0729906425
 H    3.2167465303    0.0313312307    0.0520971233