13

 O   -0.1198498687    0.2168434096    0.5263009761
 C   -0.0103553859    1.3176844586    0.1060709467
 O   -0.9996427768    2.1494544162   -0.3747166864
 C   -0.0528588581    3.2254427817   -0.6833339770
 C   -0.1418741043    4.4019947766    0.2643686345
 C    0.8823959159    4.1071900836    1.3647492191
 O    1.1030955827    4.7285684340    2.3550091927
 O    1.5941953445    2.9714304895    1.0447338448
 C    1.1059412344    2.3620002665   -0.1352363714
 H   -0.0780293275    3.4571051754   -1.7465510680
 H    0.1243633645    5.3478728285   -0.2154084935
 H   -1.1359038329    4.5164197804    0.7014935088
 H    1.9355644223    2.0632990696   -0.7749698163