16

 C    0.0970765991    1.5031511619    0.0141735840
 C   -0.0398422217    0.0254611361   -0.0259841644
 C   -1.1063353492   -0.8187565582    0.0664597075
 N   -2.4537278419   -0.5106938161    0.2845219248
 C   -0.5744171845   -2.1634790418   -0.0334068003
 C    0.7770411578   -2.0139593060   -0.1799390571
 O    1.1145775339   -0.7125573720   -0.1845124436
 C   -1.3327065035   -3.3527635966    0.0072192153
 C   -2.0323961098   -4.3339682655    0.0391251653
 H    0.8764516189    1.8102346394    0.7204774878
 H    0.3530208753    1.9321796461   -0.9630907608
 H   -0.8443712899    1.9513156083    0.3438861151
 H   -2.7768851588    0.2917137332   -0.2392303700
 H   -3.0528512783   -1.3048882829    0.0964012711
 H    1.5782508521   -2.7251582041   -0.2915635423
 H   -2.6280189994   -5.2120467618    0.0742634475