15

 C   -0.0935870637    1.3618636048    0.1492695920
 O    0.0053126154   -0.0498187468   -0.0035536199
 C    0.6309898081   -0.5070926532   -1.0999585726
 C    1.1905561906    0.2077997184   -2.0977183787
 C    1.8212658939   -0.4861407876   -3.1995285834
 N    2.3703556549    0.1094539873   -4.1766424694
 O    1.8111946886   -1.8852298240   -3.1602119389
 N    1.2349748526   -2.6141018910   -2.1328469645
 C    0.6883215411   -1.9538537357   -1.1789427715
 H    0.9006514547    1.8202792825    0.2016152799
 H   -0.6548769572    1.8067916957   -0.6804209657
 H   -0.6259718197    1.5279188459    1.0856248725
 H    1.2073331805    1.2869145505   -2.1437628050
 H    2.7530651178   -0.5638822099   -4.8411865027
 H    0.2453549123   -2.5511993569   -0.3886709921