18

 O   -0.5912119516    0.3297692241   -0.4746791935
 C   -0.3203729439    1.4559095134   -0.1881385311
 O    0.9478684281    1.9117994770   -0.1385482519
 C    1.1753219356    3.2697127988    0.2212575432
 C    2.0743543828    3.5344630171    1.4538450466
 C    2.7939438513    4.6547805136    0.6416733806
 C    2.1929190108    4.0354100704   -0.6249799401
 C    2.8933530415    3.4857934417   -1.8040066681
 N    2.0194585729    4.6738709408   -1.9181356304
 H   -1.0658494650    2.2367460636    0.0607280122
 H    0.2156142054    3.7994243286    0.2890506035
 H    1.5736616307    3.8144749383    2.3818616877
 H    2.7259754326    2.6772567655    1.6353813289
 H    2.3902908219    5.6503038717    0.8452057471
 H    3.8824614995    4.6926112502    0.7058013920
 H    3.9524345562    3.6853531942   -1.9431395403
 H    2.5452216267    2.5363069957   -2.2003971490
 H    1.1258940744    4.4135578654   -2.3308249073