15

 O   -0.1085972207   -0.0075099153   -0.5458602547
 C   -0.0761896280    1.1499783066   -0.2059642001
 C   -1.2670971083    1.8980834875    0.3911350445
 C   -1.2139209913    3.3878186370    0.1042863889
 C   -0.7603331496    4.3813008147    1.1320955012
 N    0.1083982154    3.9939099038    0.0306626191
 C    1.2557150363    3.2161770050    0.2050299064
 O    2.3090318769    3.6352031746    0.6138540497
 N    1.0962111370    1.8965780198   -0.2469727228
 H   -2.1774895679    1.4421051328    0.0009566202
 H   -1.2443499122    1.6985481087    1.4693908288
 H   -1.8899308510    3.7387943410   -0.6716675301
 H   -1.1255335702    5.4033691598    1.1017351661
 H   -0.5114200139    4.0093196116    2.1230783266
 H    1.9507926376    1.3751348625   -0.3938577438