16

 O   -0.0013610078    0.0254602082   -0.1400737521
 C   -0.0274358323    1.2229196244   -0.0419962506
 N   -1.0377860908    2.1433409278    0.0679492536
 C   -0.1813121418    3.3336908821    0.0515213217
 C    1.0429874309    2.3603156936   -0.0035138462
 C    2.0477356417    2.3550459214    1.1905989622
 N    3.3958424211    2.3090793259    0.6061808478
 C    3.2359998599    2.3204462547   -0.6563090711
 N    1.9396092889    2.4600989676   -1.1436491743
 H   -2.0386987569    2.0327340614    0.1233306720
 H   -0.2932854828    3.9585122374   -0.8397762248
 H   -0.2479702578    3.9513527328    0.9532987387
 H    1.9358274291    3.2559257456    1.8045285080
 H    1.8992427292    1.4899769336    1.8453358179
 H    4.0559726872    2.2764603671   -1.3674069753
 H    1.6923465823    1.9698100165   -1.9921845376