19

 C   -0.5156705810    1.3767319296    0.0437454769
 C    0.1192005131    0.0018804537   -0.1029172786
 C    1.4916780877   -0.0928830191   -0.8561978345
 C    1.9978331937   -0.9702864261    0.2888548313
 O    2.9119670793   -1.7367434168    0.4420596584
 C    0.7663081951   -0.6375367828    1.1712672852
 O    1.0583817540    0.3362981813    2.1525704143
 C    0.1487474696   -1.8712003903    1.8175259101
 O    1.0403434509   -2.3475298859    2.8195763060
 H    0.1784195151    2.0782439563    0.5125231992
 H   -0.8035806532    1.7722625662   -0.9356445238
 H   -1.4138111998    1.3329170116    0.6674533809
 H   -0.5963135770   -0.7039353365   -0.5387921032
 H    1.5187170208   -0.5293745601   -1.8574795181
 H    2.0173972015    0.8687919967   -0.8778665697
 H    1.3796648113   -0.1658189897    2.9157828887
 H   -0.7857164296   -1.6086133763    2.3253741673
 H   -0.0703979543   -2.6418396582    1.0642731199
 H    1.8551486527   -2.6029945238    2.3639557796