17

 C   -0.1404586389   -1.2592819585    0.5780242686
 C   -0.1061905916   -0.0871114464    0.3090299777
 C   -0.0787981836    1.3132189856   -0.0371430809
 C    0.6440364342    2.2317902250    0.8990678577
 N    1.2335983913    1.9013888278   -0.4029981824
 C   -1.2605120177    1.7982844104   -0.8363204151
 C   -1.1649865953    3.0508267705   -1.6658614795
 C   -1.2415889183    1.7041974915   -2.3404955528
 H   -0.1694578782   -2.2928574343    0.8197467612
 H    0.2908809202    3.2549905431    0.9901442171
 H    1.0797376880    1.8053346762    1.7973448447
 H    1.9586877174    1.1980261260   -0.2890027869
 H   -2.2112445848    1.6023667754   -0.3495345402
 H   -2.0323731989    3.7005789753   -1.7005832783
 H   -0.2068599208    3.5562414414   -1.6911676070
 H   -0.3319528669    1.3338522453   -2.7999827683
 H   -2.1560065162    1.4220034457   -2.8498967957