21

 C    0.1483379134    1.3995054866    0.2265880689
 C   -0.0644522563   -0.0851871644   -0.1189570172
 C   -1.5073524183   -0.5024260516   -0.1134218812
 C   -2.2264601441   -0.9116627081   -1.1641037107
 C   -3.6583455209   -1.2545717220   -0.8276343642
 C   -3.6876364853   -1.1358790527    0.7027963515
 O   -3.3842147345   -2.3829665729    1.3739292457
 C   -2.2072278796   -1.8256045146    1.9923658353
 C   -2.3324890956   -0.5306843848    1.1530839709
 H    1.2122185141    1.6544169018    0.2023602176
 H   -0.3725938165    2.0444472378   -0.4879108348
 H   -0.2264479158    1.6388169704    1.2268855856
 H    0.3675808218   -0.2948660656   -1.1037271809
 H    0.4962155027   -0.6978366844    0.6013448821
 H   -1.8334439179   -0.9938441299   -2.1729786719
 H   -4.3700966179   -0.5712929026   -1.3109847094
 H   -3.9393216350   -2.2715725171   -1.1272237736
 H   -4.6074280308   -0.6909885381    1.0981580454
 H   -2.3433171481   -1.6844422383    3.0732907338
 H   -1.3170185538   -2.4425060677    1.8190542772
 H   -2.3291170716    0.4049469180    1.7174134197