18

 O    0.0448448192   -0.0523860712    0.1207764152
 C   -0.0147426994    1.1600895967    0.0420356382
 N   -1.1885094599    1.8526142432    0.0573251995
 C   -1.3181701839    3.2954907368   -0.1046051782
 C   -0.0013129558    3.9513618287    0.2342603921
 C    0.0962020160    5.4265836479    0.4246305333
 C    0.2686697065    4.4997613906    1.6147297267
 O    1.0608417376    3.3505196812   -0.4523799279
 C    1.2554736378    2.0075441757   -0.0324271547
 H   -2.0187470655    1.2777285178    0.0537916240
 H   -1.5974579581    3.5470726671   -1.1381224678
 H   -2.1091912109    3.6682231251    0.5552502989
 H    0.9861021185    5.9030609953    0.0303790367
 H   -0.8095301478    6.0191023619    0.3513716725
 H   -0.5184846603    4.4556909678    2.3594508666
 H    1.2730929461    4.3790109243    2.0043460229
 H    1.7336504957    1.9680737398    0.9584418745
 H    1.9300734840    1.5376262915   -0.7504614625