18

 C   -0.2030859316    1.4791197072    0.0787272373
 C    0.0779127564   -0.0091577516    0.0031189417
 O    1.1904154747   -0.3322257612   -0.8692151720
 C    2.0074600865   -0.7662808563    0.2382160015
 C    0.8062798704   -0.6526588857    1.2103969990
 O    0.9616483091    0.1964673356    2.3178079891
 C    0.2125121193   -1.9816564797    1.6515840289
 O    1.0690152597   -2.4815929210    2.6756143258
 H    0.6711491054    2.0271289104    0.4364939665
 H   -0.4733781525    1.8507946938   -0.9142826682
 H   -1.0339009553    1.6771786931    0.7632459337
 H   -0.8249185167   -0.5506323616   -0.3152871828
 H    2.4320781545   -1.7637229503    0.0778170775
 H    2.8097616651   -0.0550691357    0.4686269663
 H    1.2479252292   -0.3700470805    3.0465670551
 H   -0.8044115379   -1.8093596899    2.0349189242
 H    0.1518497181   -2.6737692441    0.7999162680
 H    0.6355134854   -3.2201894123    3.1116902182