25

 C    0.0323522448    1.5242580840    0.1628959457
 C   -0.0754629557    0.0140280341   -0.0729207813
 C    0.7681030026   -0.4998584033   -1.2425742783
 C    2.2936786074   -0.3744443556   -1.0768434432
 C    2.8586702915   -1.2758492512   -2.1881965897
 C    1.8404000795   -2.4453705325   -2.3335186759
 C    2.3926689906   -3.7759634311   -1.8357555726
 O    3.4714809121   -4.1575704426   -2.6775456161
 C    0.5894154267   -2.0053124706   -1.5267031874
 H    1.0568565819    1.8208400800    0.4094140233
 H   -0.2689255365    2.0859512933   -0.7286648160
 H   -0.6118637616    1.8430905741    0.9884319438
 H    0.2205324559   -0.5224083706    0.8396060531
 H   -1.1269298682   -0.2482694283   -0.2497857008
 H    0.4811131727    0.0577779521   -2.1473574153
 H    2.6576321443    0.6549873381   -1.1409182018
 H    2.5809621129   -0.7568340105   -0.0871549232
 H    2.9169461803   -0.7135400124   -3.1261044896
 H    3.8675098751   -1.6422084183   -1.9814732023
 H    1.5856114412   -2.5846435227   -3.3890994008
 H    2.7256774367   -3.6656773172   -0.7893479971
 H    1.5939002471   -4.5358140341   -1.8451458732
 H    3.8521310533   -4.9695184862   -2.3308270898
 H    0.5542774087   -2.5445367427   -0.5689407303
 H   -0.3478555733   -2.2282030059   -2.0452017412