19

 C   -0.1787684821   -1.3017648419   -0.1462853718
 C   -0.0909436462   -0.1046535499   -0.0591958362
 C    0.0183654510    1.3375733186    0.0399207663
 C   -0.0992914814    2.0672291294    1.4231271221
 C    0.9925401414    1.3604230458    2.2486374001
 C    2.1616522853    1.8474503626    1.3649237147
 C    2.0809068447    3.3833113097    1.5834947282
 C    0.7670150031    3.2486955765    0.8012419831
 C    1.3818236763    2.0628396653   -0.0063511254
 H   -0.2571667842   -2.3576986364   -0.2249824248
 H   -0.6502984309    1.8138576267   -0.6864232046
 H   -1.0749594541    2.2358156458    1.8768531544
 H    1.0718036589    1.7259865999    3.2763098995
 H    0.8612035007    0.2765653429    2.2675764013
 H    3.1063113845    1.3077257832    1.4094890997
 H    2.0721382181    3.7552194756    2.6132935963
 H    2.8232673031    3.9342443798    0.9981339781
 H    0.2348366295    4.0784864132    0.3373688570
 H    1.9643419624    2.1841561031   -0.9184203779