19

 O   -0.1321993322    1.4557867517    0.3004285807
 C    0.0039841014    0.0525432809    0.1168760485
 C   -1.3802394365   -0.5148820945   -0.1096831874
 C   -2.2610703859   -0.5845194179    1.1623366838
 O   -2.1841258260   -2.0274039659    1.2091707337
 C   -1.5117742579   -2.0628428860   -0.0777931241
 C   -2.4125827952   -2.3807053302   -1.2389676269
 C   -2.7225785131   -1.2863359762   -1.9359557401
 C   -2.0771040596   -0.0295786643   -1.3972164535
 H    0.7390167664    1.8263140922    0.4690834323
 H    0.6441569645   -0.1772196696   -0.7512416894
 H    0.4590621966   -0.4230400599    1.0002093375
 H   -1.8377727394   -0.1226236728    2.0610035588
 H   -3.2910495794   -0.2310311800    1.0267499770
 H   -0.6083010376   -2.6832337435   -0.0233831348
 H   -2.7631850065   -3.3848225833   -1.4483376608
 H   -3.3661403236   -1.2710799573   -2.8100569434
 H   -2.8089645037    0.7628023284   -1.1996887903
 H   -1.3602780624    0.3954206884   -2.1122770918