15

 O    0.0304839229    0.0003157247    0.1860742661
 C   -0.0193269658    1.1896120152    0.0717829440
 N   -1.1490876640    1.9836754538   -0.0481678323
 C   -0.8423102250    3.3827067606    0.0360820718
 C   -0.7639825979    4.0821269221    1.4177672643
 N   -0.0319615909    3.1593111699    2.3007582262
 C    0.7339457071    4.0332729299    1.3905671866
 C    0.7188949647    3.3491459812    0.0133884969
 O    1.0998618133    1.9871632999   -0.0375874100
 H   -2.0189944080    1.5853591289    0.2651903725
 H   -1.3260164417    3.9858599620   -0.7353621178
 H   -1.4273541616    4.8430450881    1.8092664204
 H    0.0071116106    3.5747027329    3.2297010903
 H    1.4662902140    4.7348224539    1.7689814718
 H    1.2140736521    3.9080364969   -0.7810729807