16

 C   -0.0207240252    1.5299789672    0.0415957827
 C    0.0236423432    0.0311584904    0.0090438664
 C   -0.8824794765   -0.8766090861    0.7972350626
 C    0.6104328506   -0.9563099233    1.0128192238
 C    1.3329823071   -1.6881809875   -0.1541471663
 N    0.3179732998   -2.1712572662   -1.1275266110
 C    0.7551006274   -0.7507965608   -1.1331580229
 H    0.9604983851    1.9666976776   -0.1816412963
 H   -0.7333822618    1.9262909502   -0.6928510632
 H   -0.3279219609    1.8912979743    1.0283342130
 H   -1.4193052759   -0.3793629777    1.6001936804
 H   -1.4139124381   -1.6913135544    0.3221989334
 H    1.0800738781   -0.7491059202    1.9661268308
 H    2.3182479971   -2.1332736448   -0.1060192938
 H    0.8271309525   -2.6388351102   -1.8773707523
 H    1.1878333676   -0.2980407385   -2.0167103675