15

 C    0.1242554978    1.6465160336   -0.2833862498
 C    0.0299628789    0.1068325880   -0.1258679827
 C    0.6434477764   -0.3867828090    1.2107363533
 C    2.0217861869    0.0520688231    1.4015490194
 N    3.1081890616    0.4158224298    1.5490303508
 C   -1.4723094047   -0.2596783397   -0.1544347784
 O   -2.0791783624   -0.6295110371    0.8103555348
 C    0.6625599926   -0.5502574408   -1.2751768435
 N    1.1193753144   -1.0790527154   -2.1955535434
 H    1.1706632053    1.9560907494   -0.3177045766
 H   -0.3639432487    1.9715954981   -1.2053807393
 H   -0.3632529793    2.1328618025    0.5660028766
 H    0.0206752260   -0.0118020120    2.0278668314
 H    0.5990788663   -1.4786218063    1.2595354689
 H   -1.9516554513   -0.1156477342   -1.1440597115