17

 O   -0.1983086422    1.2887489712    0.4680004183
 N   -0.0876042977   -0.1109480560    0.4837342002
 C   -1.1022377351   -0.6594806391   -0.0353573266
 C   -2.4183025733   -0.2099248848   -0.6417855062
 C   -2.7963696140   -1.7053296145   -0.7011706176
 C   -4.1002675584   -2.3004305516   -0.3365553117
 N   -3.5707019303   -2.4013991575   -1.7103994968
 C   -1.3867435874   -2.1449240026   -0.2446843363
 O   -0.6588236560   -2.7414111842   -1.2959247556
 H    0.6197229464    1.5651427742    0.8957463406
 H   -3.0343087045    0.4408507427   -0.0146133402
 H   -2.2955472266    0.2645732893   -1.6224926522
 H   -4.1399872767   -3.2426345562    0.2040174939
 H   -4.9272561515   -1.6234622869   -0.1346653858
 H   -4.0319323988   -1.7343804103   -2.3246157999
 H   -1.3607170396   -2.7570124395    0.6682209487
 H    0.2730172955   -2.7069623642   -1.0528987626