14

 N   -0.1447902335   -1.1587400128   -0.1837710100
 C   -0.0892758420   -0.0060717234   -0.1163796234
 C   -0.0173548549    1.4529868468   -0.0290896916
 C   -0.6427464566    2.0243044697    1.2823289874
 C    0.2453374665    3.2367868648    1.6548247696
 C    1.5301008599    2.9659212749    0.9107635407
 C    1.4030093693    1.9998669518    0.0060785262
 H   -0.5419322859    1.8485028030   -0.9110888537
 H   -1.6966630913    2.2780943528    1.1550391100
 H   -0.5772742871    1.2633850784    2.0638479906
 H   -0.1982426706    4.1859414635    1.3237482453
 H    0.3891697228    3.3257711891    2.7367727320
 H    2.4362739073    3.5360303064    1.0819007937
 H    2.1683472760    1.6442830951   -0.6722631865