17

 C    0.0510367680    1.3421735455    0.2944800892
 O    0.0122998678   -0.0060984323   -0.1677332090
 C   -1.2447042545   -0.5437449196   -0.1665213632
 C   -1.8967597733   -1.0946876619    1.1045955100
 C   -1.6522348153   -2.0357629217   -0.0285842675
 C   -2.7552308613   -1.8606366921   -1.0704229576
 O   -4.0563740920   -2.1394956852   -0.6114141366
 C   -2.3002089838   -0.3709268361   -1.2168428280
 O   -2.5807674606    0.4940125240   -2.0006914448
 H    1.0944885885    1.6585554153    0.2454146548
 H   -0.5589522839    1.9936775364   -0.3414297328
 H   -0.3033842665    1.4155783169    1.3315954492
 H   -1.1881447883   -1.1608873326    1.9240389293
 H   -2.9112961869   -0.8369913893    1.3866421671
 H   -0.9809851144   -2.8810467314    0.0352671391
 H   -2.5246884051   -2.3915102662   -2.0073224396
 H   -4.6761851884   -1.7528582596   -1.2398838596