17

 C   -1.0738329802    1.2023995092    0.2166903698
 C   -0.2012190127   -0.0226101087   -0.0049064808
 N    0.9943029585    0.1893126845   -0.8823903688
 C    1.9148018138   -0.4761090349    0.0804385185
 C    3.1470403414    0.3580625599    0.4004269884
 O    4.2561170706   -0.0881792233    0.5185351634
 C    0.7673338131   -0.4378692489    1.0838872230
 N    0.6144766786   -0.5915388861    2.3274050205
 O    1.8198922019   -0.9359924197    2.9518773566
 H   -0.4647445201    2.0527847264    0.5333574961
 H   -1.5931525275    1.4736689996   -0.7079408981
 H   -1.8239279301    0.9990575246    0.9869678409
 H   -0.8215079312   -0.8736325956   -0.3250280963
 H    0.9460583948   -0.2594694681   -1.7896926853
 H    2.2345204160   -1.4966457357   -0.1673017990
 H    2.9253801789    1.4438805666    0.4923594566
 H    1.5668143142   -0.9976596199    3.8795875046