21

 C   -0.0476934668    1.4883185765    0.0241346279
 C   -0.0297023890   -0.0043148092    0.1074262344
 C   -1.0358355759   -0.8740879986    0.1506238813
 C   -2.4513408088   -1.1471569318   -0.3066473921
 C   -1.8696968999   -2.4903397828   -0.8954867191
 C   -0.6214733085   -2.3136588775    0.0420659166
 C    0.8560030564   -2.2279957119   -0.3762353021
 C    1.2888004846   -0.8022165962    0.0984447890
 O    2.3026227539   -0.2183668829   -0.7075685653
 H    0.6231259470    1.8520126386   -0.7613235327
 H   -1.0554293362    1.8674371651   -0.1674841440
 H    0.3068042141    1.9394974374    0.9605958895
 H   -3.1486726386   -1.3442186265    0.5150092874
 H   -2.9149131626   -0.4358322518   -0.9952039601
 H   -2.4756449140   -3.3907368678   -0.7670356538
 H   -1.6043835285   -2.3781844047   -1.9501746163
 H   -0.7585554170   -2.8875624607    0.9667986745
 H    1.4964877120   -3.0185632773    0.0241790760
 H    0.9438402017   -2.2551943877   -1.4705961326
 H    1.7432405085   -0.8409841922    1.0978718647
 H    1.9726878677   -0.1964255378   -1.6132665732