15

 C   -0.0496496384    1.4325194943    0.0307734360
 N   -0.0482416787   -0.0176140552    0.0295769374
 C    0.5602303949   -0.6047852731   -0.9312392842
 N    1.2487834725   -0.0238015772   -1.9703164154
 C    0.5821365810   -2.0746427367   -0.9362531989
 C    0.0890745670   -2.9671974958   -0.0340546805
 O    0.3361465670   -4.1958118471   -0.4654877592
 N    1.0266379037   -4.0567943842   -1.7145626115
 N    1.1452749379   -2.8265511328   -1.9432555746
 H    0.9681479389    1.8536243499    0.0438006151
 H   -0.5672210108    1.8546311593   -0.8473212806
 H   -0.5726269317    1.7952884279    0.9187333900
 H    1.0622947767    0.9402665567   -2.1875079692
 H    1.5113283090   -0.6144907255   -2.7435747889
 H   -0.4299551191   -2.8452664505    0.9010417244