18

 O    0.0426584548    0.0644584755    0.9221610510
 C    0.1603871738    1.1109579892    0.3135159716
 C   -1.1056080537    1.6226779869   -0.4366626934
 O   -1.2160702415    3.0112847612   -0.6815642104
 C   -1.0666796927    3.4644468069   -2.0105817018
 C    0.3902133481    3.8344436224   -2.3411727127
 N    1.2858901389    2.7656330748   -1.9014496396
 C    1.7379942729    2.8130457807   -0.5828242581
 C    1.3711281333    1.9447883532    0.3748969356
 H   -1.2164775992    1.0427757840   -1.3660520986
 H   -1.9354407094    1.3281090934    0.2154100730
 H   -1.4141430016    2.6925336736   -2.7160952059
 H   -1.7172999045    4.3380613240   -2.1354629807
 H    0.4908306697    4.0087844512   -3.4195339617
 H    0.6785110344    4.7533506555   -1.8222935139
 H    0.9140020290    1.8534799065   -2.1370168661
 H    2.4813303006    3.5868404853   -0.3923574078
 H    1.9356359171    1.8744993155    1.2988629194