19

 C   -0.0861368121    1.5807837648    0.0745931946
 C   -0.0214086742    0.0387276830    0.0201573782
 C    0.7414504542   -0.5016532124    1.2512477196
 C   -1.3766548370   -0.5189812715    0.0169757636
 C   -2.4820720214   -0.9879149985    0.0605543913
 C    0.6963020923   -0.4386540802   -1.2919627171
 N    0.0154133701    0.0424878388   -2.4919833301
 C    2.1298025452   -0.0690636738   -1.2737338979
 N    3.2417183208    0.2475905754   -1.3131130152
 H    0.9211224159    2.0077732705    0.0321350109
 H   -0.6824623627    1.9810006255   -0.7487211827
 H   -0.5552386462    1.9001148085    1.0083511993
 H    0.2097313693   -0.2279224265    2.1655573618
 H    0.8165325975   -1.5925817828    1.2194822233
 H    1.7504640676   -0.0829324618    1.2967361582
 H   -3.4627690948   -1.3948215542    0.0840999489
 H    0.6426839477   -1.5322925622   -1.2999179957
 H    0.2209226113    1.0244799254   -2.6463245453
 H    0.3568232266   -0.4557240177   -3.3074983958