25

 C    0.1386766330    1.4562634865   -0.4406602289
 C    0.1846706252   -0.0346824027   -0.1818080576
 C    1.5101930809   -0.7592836179   -0.1541339829
 C    0.6902334708   -0.6383077443    1.1030575219
 C    1.1604687431    0.0165254593    2.4233574789
 C    0.4166285940    1.2574382538    2.9166786777
 C    0.7632046784   -1.3032776565    3.1577943864
 C    0.1067608749   -1.8537293064    1.8545489177
 C   -1.4142958585   -1.9743953599    1.8887190587
 H    1.0026620836    1.9638207163   -0.0012368663
 H    0.1518152696    1.6604513111   -1.5174554085
 H   -0.7649702878    1.9159001448   -0.0260338273
 H   -0.6332771521   -0.5834963708   -0.6452955670
 H    1.5900644571   -1.7342845243   -0.6264303155
 H    2.4095106288   -0.1532551007   -0.2311259264
 H    2.2375986139    0.2141383397    2.4415121743
 H   -0.6690424709    1.1182843279    2.8741354423
 H    0.6828837811    1.4664478127    3.9592948207
 H    0.6604173219    2.1463905043    2.3278322592
 H    1.6174529904   -1.8907133422    3.5021623639
 H    0.0760981740   -1.1693775272    3.9991984075
 H    0.5348673316   -2.8062276351    1.5227541992
 H   -1.8833721839   -1.0400115892    2.2153815034
 H   -1.8209243708   -2.2212171010    0.9016021055
 H   -1.7253908882   -2.7642275882    2.5819351932