19

 C   -0.2108497677    1.6304825576   -0.0965956172
 C   -0.0623551686    0.1116614552   -0.0816822958
 C    1.1543522660   -0.4100594208   -0.9338630868
 N    1.9181285627   -0.5734415505    0.3565763263
 C    0.7098835632   -0.5197732947    1.0436156549
 N    0.1216592744   -1.1084503958    2.0051181989
 C   -1.3166637800   -0.8546375198    1.7101046183
 C   -1.3840708099   -0.6511920198    0.1475925851
 O   -2.5041577450    0.0618123249   -0.3303442732
 H    0.7687863009    2.1106476870   -0.0199341753
 H   -0.6911145419    1.9550681706   -1.0243402370
 H   -0.8318196362    1.9794442113    0.7320948859
 H    0.9615855350   -1.3633355274   -1.4379033501
 H    1.6110843096    0.3029552078   -1.6239764957
 H    2.5513205110   -1.3513734960    0.5040644489
 H   -1.9121305952   -1.7118364814    2.0410120756
 H   -1.7009467957    0.0359664598    2.2257589789
 H   -1.3208686324   -1.6463918156   -0.3210350102
 H   -3.2947502103   -0.4468667223   -0.1258039014