16

 C   -0.0421134675    1.4819484395    0.0384013031
 N    0.1039018749    0.0388001672    0.0065054632
 C    0.6603493347   -0.6952463444    1.0092910032
 C    0.6192435229   -2.0778670561    1.0160183667
 C    1.2349719065   -2.8295843229    2.0611214209
 O    1.2920031633   -4.0370083614    2.2183547699
 N    1.8525593829   -1.9743440964    3.0296286620
 C    1.8397324705   -0.6317864555    2.9482539303
 N    1.2787236385    0.0451542762    1.9964115385
 H    0.8988136991    1.9472177796    0.3342722320
 H   -0.3069239208    1.8250433923   -0.9644628187
 H   -0.8190601806    1.8149944040    0.7395394411
 H   -0.4546689717   -0.4682947022   -0.6589266420
 H    0.1233881057   -2.6339010302    0.2299281783
 H    2.3044850964   -2.4474572074    3.7999544450
 H    2.3417290952   -0.0960926023    3.7513229864