16

 C    0.1317342549    1.5290059537   -0.2738891857
 C   -0.0102931576    0.0660053754    0.0564826772
 O    1.1826505196   -0.7339473892    0.0934120602
 C    0.4398990023   -0.5766139830    1.2997853422
 C    1.1099320165    0.1789744086    2.4417076780
 O    0.1254603042    0.7236717146    3.3183240008
 C    2.0543254824   -0.6857621883    3.1521849669
 C    2.7798784251   -1.4272923782    3.7592552544
 H    0.9797197825    1.9878310355    0.2377956139
 H    0.2813547830    1.6557619266   -1.3510066565
 H   -0.7782604767    2.0692151185    0.0069396458
 H   -0.8387131947   -0.4279416700   -0.4560290589
 H   -0.0843794272   -1.4765417942    1.6300221263
 H    1.6507516708    1.0356713830    2.0292075396
 H   -0.1522567422    0.0217435086    3.9169053591
 H    3.4414884071   -2.0690627716    4.2872887269