14

 O   -0.0035556917   -0.0410164516   -0.3422154169
 C    0.0382905945    1.0872011495    0.0741110607
 C    1.2781395967    1.9157196388    0.0576837722
 C    1.1783768821    3.3945322059   -0.1915795596
 C    1.5232723878    2.9283242140    1.2136753918
 C    0.5496580278    3.0748351221    2.2646910845
 C   -0.2534571121    3.2115572578    3.1470582657
 C    2.9031395413    3.0579290240    1.6261576456
 N    4.0106552773    3.1614121709    1.9405048840
 H   -0.8579706550    1.5956634505    0.4877446219
 H    2.1606640580    1.3979845391   -0.2992873571
 H    1.9646962183    3.8644062424   -0.7690454097
 H    0.1898672845    3.8239453966   -0.3093854780
 H   -0.9603701394    3.3281502599    3.9318117750