22

 C    0.0150243837    1.4304879133   -0.3555467164
 C    0.0784448486    0.0174775893    0.2212727982
 O    0.5872667677    0.0106122261    1.5546362136
 C   -1.2804607252   -0.6621130109    0.1908687248
 N   -1.7606609922   -1.2157794472   -1.0890557292
 C   -1.4830932536   -2.1246130099    0.0412440850
 C   -0.3596908678   -3.1351583643   -0.2076199125
 C   -0.9324599645   -4.5328170687   -0.4661221942
 O    0.4604002963   -2.7238737861   -1.2887545955
 H    0.9993650942    1.9040442591   -0.3097603626
 H   -0.3174007380    1.4081228508   -1.3978005235
 H   -0.6914273273    2.0538042573    0.2093352870
 H    0.7825685461   -0.5867981558   -0.3542758026
 H    0.0545628126    0.6211301079    2.0765710170
 H   -2.0277398916   -0.1476709981    0.7998815602
 H   -2.7549471063   -1.0617483275   -1.2207658595
 H   -2.3421522642   -2.5399127837    0.5652341108
 H    0.2823626542   -3.1689238853    0.6820739538
 H   -1.6125749191   -4.5173192593   -1.3251825744
 H   -0.1205182703   -5.2302310327   -0.6867338060
 H   -1.4837372268   -4.9054305949    0.4047501009
 H   -0.1229296565   -2.2037769995   -1.8643140647