19

 O   -0.0325489743    1.3576601346   -0.4964959174
 C    0.1083812778   -0.0177356577   -0.1917690196
 C   -1.2196102152   -0.5596559410    0.3178864559
 O   -2.2608973205   -0.3370598970   -0.6729264276
 C   -2.3461563636   -1.7524461169   -0.9670291142
 C   -1.4434529017   -2.0858983663    0.2498781331
 O   -0.2831622891   -2.8361695291    0.0024449959
 C   -2.1873358412   -2.6511616805    1.4506068272
 O   -2.4152338988   -4.0277418226    1.1619992222
 H   -0.8082066796    1.4166761696   -1.0687173189
 H    0.4405846421   -0.5982866286   -1.0636008916
 H    0.8787928040   -0.1066868924    0.5804507215
 H   -1.4830635257   -0.0724561431    1.2659250049
 H   -3.3791597352   -2.1145804777   -0.9469974419
 H   -1.8783387857   -2.0085199474   -1.9243729278
 H   -0.5202547158   -3.7565247653    0.1783074621
 H   -1.5612419109   -2.5318039729    2.3471981239
 H   -3.1289251146   -2.1063179912    1.6066598193
 H   -2.7099238423   -4.4705924245    1.9624916629