19

 C   -0.1481821863    1.5702228153    0.0495658191
 C    0.0300848581    0.0552464099    0.0118138538
 C    0.9107283505   -0.5421880269   -1.1148965187
 C    2.3432957370   -0.0710140724   -0.7686949306
 C    2.3243908592   -0.6070433313    0.6563421700
 C    1.4068511440   -1.8186529857    0.5719987916
 O    0.9498252447   -1.9404665348   -0.7630964941
 C    0.8675588259   -0.5433368776    1.1462507098
 O    0.5063797020   -0.4568528793    2.4808797883
 H    0.8070614876    2.1014073086    0.1062799478
 H   -0.6825596201    1.9316988396   -0.8352118980
 H   -0.7385063450    1.8590402323    0.9262075510
 H   -0.9512648690   -0.4326151760   -0.0157580651
 H    0.5665443591   -0.4309266380   -2.1414995530
 H    3.0873807837   -0.5653148359   -1.3997500470
 H    2.4743045008    1.0107669253   -0.8417183866
 H    3.1626310823   -0.5740110094    1.3390583829
 H    1.5334993492   -2.7452400464    1.1128689555
 H    0.7215012263    0.4286111028    2.7945215832