25

 C   -0.1704885319    1.6144914744    0.0100260613
 C   -0.0223704318    0.0806468973   -0.0140218993
 C   -1.4254138878   -0.5438562138    0.0030433393
 O   -2.1461713375   -0.1168150868   -1.1457672567
 C    0.7293582286   -0.3891023111   -1.2850570787
 C    2.2208835051   -0.0243969196   -1.2862053920
 C    2.9281704944   -0.5481316412   -0.0290901461
 C    2.2253005790   -0.0591158047    1.2445081297
 C    0.7333892813   -0.4253448518    1.2378035335
 H    0.7932449455    2.1266991439   -0.0417763493
 H   -0.7800528577    1.9485691441   -0.8328859449
 H   -0.6659060022    1.9393668556    0.9325402167
 H   -1.3332545926   -1.6421099378    0.0191152767
 H   -1.9460189937   -0.2420430842    0.9271938969
 H   -3.0260738977   -0.5014325270   -1.1091720003
 H    0.6391913674   -1.4831514935   -1.3522820994
 H    0.2311696867    0.0134655781   -2.1718357731
 H    2.6960679629   -0.4317933588   -2.1861467960
 H    2.3427918792    1.0648669334   -1.3453301323
 H    2.9224483289   -1.6474392766   -0.0439743481
 H    3.9807967542   -0.2428660802   -0.0251842738
 H    2.7030902670   -0.4891621310    2.1323251391
 H    2.3431951792    1.0285023916    1.3312923644
 H    0.2474663839   -0.0406794889    2.1435044769
 H    0.6454773498   -1.5207143315    1.2813697355