22

 C    0.0008902031    1.4867159415    0.1127122460
 N    0.0148268658    0.0351769519    0.0699584804
 C   -1.0618493885   -0.6094362535   -0.0774782204
 O   -2.2837959541    0.0188815147   -0.1253379546
 C   -3.2852546157   -0.4936841694   -1.0140058749
 C   -3.4617007820   -2.0001175069   -0.8933432152
 C   -2.1054305998   -2.6805706270   -1.0824764081
 C   -1.0854665434   -2.1309314352   -0.0678015867
 C    0.3045830248   -2.7405795853   -0.2486385153
 H    0.8669786076    1.8633966374   -0.4412736348
 H   -0.9125953798    1.9398151961   -0.2875508964
 H    0.1193003923    1.8211172933    1.1511648127
 H   -4.1995156259    0.0484455325   -0.7588645079
 H   -3.0115477759   -0.2282113970   -2.0459206129
 H   -3.8703852992   -2.2436208551    0.0950738722
 H   -4.1891978266   -2.3377849329   -1.6399453279
 H   -2.1888371403   -3.7661269459   -0.9648992813
 H   -1.7400009441   -2.5008197830   -2.1031942234
 H   -1.4591194426   -2.4046125034    0.9319748845
 H    0.7166330630   -2.4864729427   -1.2301041731
 H    0.9984647543   -2.3639149327    0.5036166771
 H    0.2494602570   -3.8315521976   -0.1703759399