18

 C   -0.3321117138    0.7516338450    0.5367670955
 O    0.1907675529   -0.5201066432    0.1993364167
 C    0.5636832741   -0.6429319607   -1.1534490534
 C    1.3957387288   -1.9206088960   -1.2946970580
 O    0.6163032185   -3.0841743245   -1.0571550333
 C    0.5152920072   -3.5126848574    0.2230976624
 N   -0.2773817758   -4.4517251377    0.5021384771
 C   -0.6601150063   -0.7216011761   -2.0751892160
 O   -0.6190524028   -0.4570771759   -3.2468774727
 H    0.4115727257    1.5449810384    0.3712213190
 H   -1.2342376410    0.9962562144   -0.0419004826
 H   -0.5927906095    0.7198778686    1.5964239966
 H    1.1846252680    0.2054725876   -1.4842311463
 H    1.7646682553   -1.9972776706   -2.3200746202
 H    2.2490248802   -1.8705967506   -0.6067450996
 H    1.1788285927   -2.9790866288    0.9138269799
 H   -0.2129413904   -4.6758713516    1.4928676037
 H   -1.5868991338   -1.0679910009   -1.5687312288