17

 C    0.2215089634    1.4420173016    0.1169423412
 C   -0.0489168808   -0.0463040850   -0.1315547510
 N    0.6810323557   -0.5406977504   -1.2905445946
 C    1.7965803038   -1.1028186778   -1.1124354843
 N    2.6159298373   -1.6215583707   -2.1056339705
 C    3.7103815330   -2.2338656843   -1.5195131221
 O    4.5991305658   -2.8337569549   -2.3344875829
 C    3.6223857086   -2.0536795635   -0.1947924234
 O    2.4497488112   -1.3366434936    0.0790434861
 H    1.2723674395    1.6073602846    0.3751484318
 H   -0.0030700791    2.0271720328   -0.7798763214
 H   -0.3962258101    1.8173832531    0.9400096950
 H    0.1835139406   -0.6164250386    0.7791148513
 H   -1.1179532643   -0.1848854224   -0.3321224124
 H    2.3175848532   -1.7327712925   -3.0583877668
 H    5.3007361597   -3.2243714492   -1.8032044561
 H    4.2535029327   -2.3064648092    0.6364986401