18

 O    0.1264335205    1.3874546769    0.1202543016
 C    0.0107490029    0.0029151422   -0.0406942769
 C   -1.3379457922   -0.6912700270   -0.0291181339
 C   -2.6439666791   -0.0078741777   -0.3524644250
 C   -2.7189136499    1.4380836957   -0.6948807798
 N   -2.6501435487    0.4331543883   -1.7668802225
 C   -1.3038953310    0.1599711315   -2.3141590329
 C   -0.4962236406   -0.6640931055   -1.2923849952
 O    0.1271961641   -1.8312675647   -1.7425175479
 H    0.9162269754    1.6769182810   -0.3494975098
 H    0.7843617708   -0.5701661441    0.4743321095
 H   -1.3919718431   -1.5954703667    0.5661303060
 H   -3.5349299911   -0.5249105598   -0.0061431551
 H   -3.6784524229    1.9458706880   -0.6331288172
 H   -1.8526420484    2.0541930058   -0.4940041408
 H   -1.4084502896   -0.4581506348   -3.2110626061
 H   -0.8100777240    1.0957667848   -2.6025939164
 H    0.9895650170   -1.5980509539   -2.1031969678