19

 O   -0.5092735492    0.6082916110    0.7986887142
 C    0.0978156755    0.9301274143   -0.1909292875
 C    1.3685774767    1.7555607717   -0.1778121724
 C    1.3626497580    2.8706019188   -1.2233602113
 C    2.5800308812    3.7988952626   -1.1348273612
 C    2.5815374612    4.7350697430   -2.3467840981
 O    2.4805064150    3.9877580438   -3.5524775880
 C    1.3347802860    3.1841713889   -3.5501111708
 O    1.3333552693    2.2422150035   -2.5054441907
 H   -0.2453575455    0.6298744069   -1.2037780933
 H    1.5154291712    2.1588629495    0.8279156635
 H    2.2085600425    1.0857071495   -0.4083199485
 H    0.4474837103    3.4799520455   -1.1083250373
 H    2.5554465939    4.3765368417   -0.2042257680
 H    3.4931316503    3.1934349324   -1.1396496090
 H    1.7402842465    5.4457838016   -2.2765976217
 H    3.5074030093    5.3114795196   -2.4125980792
 H    0.4292962172    3.8178165066   -3.4785356275
 H    1.3307412106    2.6218201490   -4.4855509232