25

 C    0.1820158586    1.5052506897    0.0033166345
 C   -0.0546547129   -0.0179430943    0.0035705335
 C   -1.5755897310   -0.2632102091    0.0557208938
 C    0.5191503423   -0.6276978212   -1.3286517221
 C    1.5982810987   -1.6936396198   -1.1238601823
 C    1.1466121405   -2.7240179243   -0.0529734744
 C    1.6727168090   -1.7048567133    0.9944088150
 C    2.6567191331   -1.2039606617   -0.0979883472
 C    0.6110259545   -0.6415356490    1.2857058211
 H    1.2504924184    1.7429076754   -0.0330340893
 H   -0.2942523227    1.9777108825   -0.8634866773
 H   -0.2319511537    1.9683247133    0.9064176999
 H   -2.0766720774    0.1844264574   -0.8102679408
 H   -1.8071542909   -1.3336399024    0.0579866750
 H   -2.0144140480    0.1747041724    0.9596364398
 H   -0.3013758871   -1.0649090173   -1.9106251009
 H    0.9330120182    0.1776865603   -1.9476696360
 H    1.9534757340   -2.0749782798   -2.0851719886
 H    0.0898716695   -3.0075640627   -0.0173430793
 H    1.7587158189   -3.6299603573   -0.0792806944
 H    2.0943691952   -2.0962119582    1.9243297762
 H    3.5657380729   -1.8110387448   -0.1331444541
 H    2.9338166726   -0.1449221740   -0.1021167286
 H    1.0676257301    0.1574113964    1.8826220296
 H   -0.1667868026   -1.0851720980    1.9191916068