23

 C   -0.0351599667    1.5508837533    0.0515905817
 C   -0.0801160147    0.0285265517   -0.1190259522
 C   -1.4804187578   -0.5584080885    0.0471795987
 C   -1.5145568724   -2.0878665158    0.0563835332
 C   -1.4154702056   -2.1428458810    1.5656566960
 C   -1.9775077507   -0.6632434773    1.5221507675
 C   -3.4038025025   -1.2603736937    1.3945475702
 C   -2.7178101533   -2.5386322369    0.9058218089
 C   -3.3257936507   -3.9027050224    0.7693203897
 H    0.9810456464    1.9352443516   -0.0808616281
 H   -0.6775966979    2.0501264274   -0.6824231980
 H   -0.3762049630    1.8537189019    1.0472884991
 H    0.3005001811   -0.2343714254   -1.1151556825
 H    0.5973972747   -0.4490467541    0.6007525166
 H   -2.1759843373   -0.0541503323   -0.6395719382
 H   -1.0638828837   -2.7654978502   -0.6601405365
 H   -0.7527701238   -2.6765538531    2.2319188708
 H   -1.7641854454    0.1270343436    2.2399853172
 H   -3.8718227386   -1.4188335900    2.3715755443
 H   -4.1094860052   -0.7452136220    0.7301124500
 H   -4.0618563666   -3.9338895146   -0.0431232588
 H   -2.5619944126   -4.6571566062    0.5506787471
 H   -3.8359968739   -4.2051860261    1.6912577132