20

 C   -0.1515140299    1.5343667362   -0.0510748533
 C   -0.0135723687    0.0098679668   -0.1025962814
 C    0.8289598484   -0.4978752275   -1.2912839286
 C    2.2766304434   -0.0733356590   -1.1276315961
 O    2.8889418697    0.6377018986   -1.8816859736
 C    0.7776712053   -2.0148170737   -1.4078869545
 C   -0.3140937208   -2.6753249669   -2.2125699489
 C    1.1085923136   -2.6920484004   -2.7141530705
 H    0.8229857964    2.0279506956    0.0250764243
 H   -0.6403260279    1.9158068403   -0.9538722267
 H   -0.7507572835    1.8443838264    0.8102375404
 H    0.4332113952   -0.3565709247    0.8320260704
 H   -1.0039224300   -0.4552098923   -0.1663139172
 H    0.4660841814   -0.0477785995   -2.2230914807
 H    2.7647769760   -0.4941943491   -0.2141661666
 H    1.0864626939   -2.5390491787   -0.5061542404
 H   -0.7410119425   -3.5993589562   -1.8387319546
 H   -1.0241409774   -2.0333947847   -2.7238050327
 H    1.3552367363   -2.0581700381   -3.5594570840
 H    1.6553665410   -3.6278533633   -2.6867683053