20

 C    0.4573544160    1.6483299712    0.0481345419
 C    0.2396231767    0.1350369430   -0.0427724748
 C    1.0942916929   -0.5231464547   -1.1685396424
 N    1.8152383058   -1.6825290090   -0.6020064060
 C    1.9604875190   -1.3902652421    0.8232228939
 C    3.1302640127   -0.5300595392    1.0685780609
 N    4.0107411511    0.1836278861    1.2974433743
 C    0.6338212730   -0.6543029700    1.2484494400
 N    0.6303551647    0.1377634152    2.4628372051
 H    1.5131421555    1.8946865702    0.2069555846
 H    0.1473282422    2.1304708484   -0.8846639659
 H   -0.1239416288    2.0803633842    0.8661993694
 H   -0.8231875723   -0.0425914727   -0.2334792457
 H    0.5012959810   -0.8453617572   -2.0275104730
 H    1.8338853554    0.1965709033   -1.5386312424
 H    1.2491859601   -2.5194770524   -0.6919447876
 H    2.1080262708   -2.3149230661    1.3897545757
 H   -0.0963181988   -1.4589584568    1.3909698773
 H    0.7635394326   -0.4539373915    3.2765026551
 H    1.3924599503    0.8097635702    2.4617741397