21

 C   -0.5312542966    0.5070652554    0.4395947586
 O    0.5633603235   -0.3775940990    0.2478997547
 C    0.9616749720   -0.5324209903   -1.1198638105
 C    2.4316492777   -0.9681120231   -1.1384040065
 C    2.4100442469   -2.5102272350   -0.9237393882
 C    0.9343012902   -2.9444304552   -1.0744058348
 O    0.2835013708   -3.1946599627    0.1723251048
 C    0.2428764484   -1.7432433245   -1.7636959188
 O   -1.1558479667   -1.7695276209   -1.6128976064
 H   -0.2674512319    1.5253018836    0.1179621251
 H   -1.4188540250    0.1786244136   -0.1096746682
 H   -0.7436274903    0.5227292514    1.5116638381
 H    0.7835709379    0.4063508506   -1.6583698302
 H    2.8694446871   -0.7193042122   -2.1099143159
 H    3.0005346487   -0.4335935883   -0.3752071463
 H    3.0468276730   -3.0208738034   -1.6511705576
 H    2.7665661678   -2.7982629467    0.0682939051
 H    0.8210813662   -3.8683840691   -1.6462809309
 H    0.3776498801   -2.3772687900    0.6864416065
 H    0.4762862496   -1.7456629379   -2.8374145206
 H   -1.3073173295   -2.3310046863   -0.8373550181