23

 C    0.0457833088    1.5632393109    0.0315972492
 C    0.0730924077    0.0278283849    0.0565846199
 C    0.7611615631   -0.4734547278    1.3345122291
 C   -1.3459634875   -0.5618590579   -0.0815542549
 C   -2.0946198707   -0.2369628741   -1.3626621293
 C   -2.8517812725   -1.2561799219   -1.7711104554
 C   -2.7384643396   -2.4355922640   -0.8331043027
 C   -1.4368684177   -2.1206620969   -0.0568905970
 O   -0.3153237831   -2.7397574330   -0.6768965262
 H    1.0584265373    1.9682905305    0.1291073977
 H   -0.3772984623    1.9587614894   -0.8965372449
 H   -0.5490087623    1.9591235994    0.8637862760
 H    0.6674599562   -0.3164579810   -0.7993980731
 H    0.1787339788   -0.2048826793    2.2247298587
 H    0.8849413128   -1.5583686973    1.3160365671
 H    1.7532411008   -0.0225581088    1.4431865555
 H   -1.9363932656   -0.1812367744    0.7697941879
 H   -2.0400541766    0.7288257474   -1.8515238387
 H   -3.5044330052   -1.2461490497   -2.6371192217
 H   -3.6060052481   -2.4840066226   -0.1593996774
 H   -2.6666459102   -3.4083840013   -1.3308203565
 H   -1.4492739526   -2.5176714252    0.9605876667
 H   -0.2957052715   -2.4404630775   -1.5934664702