19

 O   -0.1139028768   -0.0024810274   -0.2657591696
 C   -0.0526031167    1.1953618320   -0.1054450452
 N   -1.0882477029    2.1103346917   -0.2582910232
 C   -0.7065909760    3.4192755064    0.2469749208
 C    0.8385286946    3.3668799646    0.1106794408
 N    1.0681514366    1.9324290039    0.2661021520
 C    1.3424615485    3.9160234471   -1.2090700221
 C    1.7075546842    5.3735066909   -1.3274809395
 C    2.7887277878    4.3218779529   -1.3491400387
 H   -2.0254576926    1.7591748820   -0.1442236052
 H   -1.1340902707    4.2314533048   -0.3475055546
 H   -0.9970705202    3.5635941016    1.2971766381
 H    1.3114774351    3.9221887354    0.9292394379
 H    1.9643475857    1.5388665030    0.0227445772
 H    0.8809443767    3.4567214716   -2.0793331369
 H    1.4689960412    5.8904479737   -2.2499011757
 H    1.6244351051    5.9923546716   -0.4393984947
 H    3.4275655329    4.2409192396   -0.4748635506
 H    3.2936086075    4.1173155745   -2.2863315507