17

 O    0.0293230218   -0.0343584140   -0.0820442860
 C   -0.0132327212    1.1666102362    0.0027866565
 C   -1.2916582724    1.9804654552    0.0309295171
 C   -1.2348822424    3.0649929961   -1.0663112552
 O   -0.0727215173    3.8627244190   -0.9487149352
 C    1.1091537535    3.1130994535   -1.1029549617
 C    1.2639891959    2.0369838685    0.0110738377
 C    1.4655158010    2.6354601389    1.3242256808
 C    1.6203469249    3.1199923838    2.4134211848
 H   -2.1497307641    1.3182142744   -0.1051327209
 H   -1.3681680545    2.4768955826    1.0045592501
 H   -1.2726785240    2.5891177146   -2.0601134161
 H   -2.0877608713    3.7428116004   -0.9820270518
 H    1.1246000102    2.6039459391   -2.0808706704
 H    1.9418912094    3.8186387280   -1.0619929687
 H    2.1032891742    1.3781686496   -0.2365819230
 H    1.7664666062    3.5487896141    3.3740023820