16

 O    0.2957806350    0.4932575827    1.0673838342
 C   -0.0638876692    0.3473605134   -0.2961108498
 C   -1.3881750820   -0.3873143639   -0.3097008047
 C   -1.9759420976   -1.1006264035   -1.5580880544
 C   -0.9317331784   -2.2374793842   -1.4459358993
 C   -1.5036348078   -1.9217597965   -0.0372971128
 O   -2.8556817325   -1.8752371403   -0.6425302920
 C   -1.3161750441   -2.6435305036    1.1971525181
 N   -1.1371923352   -3.2258729966    2.1788507353
 H    1.1319943119    0.9657787549    1.1159634698
 H   -0.2027363429    1.3244560980   -0.7873382662
 H    0.7109755785   -0.1907149590   -0.8600582125
 H   -2.1473004328    0.1651757953    0.2473431582
 H   -2.4387883062   -0.6715915286   -2.4445356898
 H   -1.2563252474   -3.1956496642   -1.8501488382
 H    0.1190475507   -2.0252737439   -1.6440695060