14

 O    0.3014444590    0.7472113807    0.9475091915
 C   -0.0827855329    0.1786709800   -0.2978464397
 C   -1.4258591652   -0.3743203163   -0.1919538174
 C   -2.5381834373   -0.8343182190   -0.1360194250
 C   -3.8289109981   -1.4012971387   -0.0402449386
 N   -4.8992435029   -0.9111066114   -0.6919482802
 N   -5.8707817088   -1.7269921311   -0.3235848412
 N   -5.5538141977   -2.7107144316    0.5103785682
 C   -4.2522509626   -2.5249832464    0.7063865195
 H    1.1890601774    1.1036737021    0.8379145594
 H   -0.0742437855    0.9306837398   -1.1034788803
 H    0.6104377829   -0.6226648325   -0.6024955096
 H   -6.8123301531   -1.6065896024   -0.6617676831
 H   -3.6802117951   -3.1718702530    1.3508774268