17

 C    0.6360288079    0.7523089816   -1.0334684118
 C   -0.3977009410   -0.3609867752   -1.0330112841
 O    0.1608655744   -1.6023275156   -1.5263493380
 C    0.8550261681   -2.3451803996   -0.6606576149
 N    1.0050406052   -2.0802782333    0.5639658730
 O    1.3809942709   -3.4539852712   -1.2575019148
 C    1.1911315122   -3.6461398405   -2.6559271587
 C    2.0232442173   -2.7516654956   -3.4729410013
 N    2.6818011663   -2.0652240060   -4.1276011796
 H    1.4353724236    0.5322910979   -0.3230875817
 H    1.0666831762    0.8825788693   -2.0301365648
 H    0.1588351454    1.6917450198   -0.7367590189
 H   -0.7969580102   -0.5382635487   -0.0323332489
 H   -1.2169496284   -0.1495096488   -1.7239059407
 H    1.5652389457   -2.7954876707    1.0200010129
 H    1.4879268098   -4.6804000558   -2.8462472183
 H    0.1433270066   -3.5191807576   -2.9387237993