16

 C    0.0044069290    1.5658892006    0.0346702356
 C    0.0243078683    0.0600140921    0.0129749318
 C   -1.1402892099   -0.6708275575    0.0515083761
 N   -2.3959134763   -0.1385548628    0.1460708569
 O   -1.1604439275   -2.0036810584    0.0433972914
 C    0.0248165149   -2.8213138909    0.0063448547
 O   -0.1586261510   -4.0073601247    0.0109903307
 C    1.2382780043   -2.0645918856   -0.0361857497
 C    1.2175234594   -0.6987508804   -0.0334485835
 H    1.0234719175    1.9607887568    0.0275429060
 H   -0.5083930869    1.9938193341   -0.8383200024
 H   -0.4923094484    1.9620286952    0.9294999213
 H   -2.5195858112    0.8144221475   -0.1541660241
 H   -3.1546230170   -0.7673235814   -0.0680899290
 H    2.1584579803   -2.6315226886   -0.0716253628
 H    2.1609389345   -0.1589884660   -0.0668927830