19

 C   -0.1024067850    1.4471355067    0.0610674526
 C   -0.0085946249   -0.0401380775   -0.0121741585
 C   -0.0524614688   -0.8002003644   -1.1226033544
 C    0.1105253222   -2.2136699216   -0.7715646316
 O    0.3028230023   -3.1712418281   -1.4918893969
 C    0.0589800706   -2.3304666961    0.7704960641
 C   -1.2642414155   -2.9824995617    1.1926813867
 O    1.1619744983   -3.1036577870    1.2143653763
 C    0.1824938118   -0.8698207709    1.2412328304
 H    0.7964010526    1.8673555944    0.5291085398
 H   -0.2267321283    1.9008816290   -0.9246556179
 H   -0.9471535291    1.7475072125    0.6936709361
 H   -0.1412647360   -0.4438542982   -2.1414970015
 H   -1.3655155641   -3.9597539020    0.7108771779
 H   -1.2744614790   -3.1220619842    2.2775247790
 H   -2.1252099018   -2.3686718789    0.9065153640
 H    1.2726654703   -3.7998483558    0.5512514911
 H    1.1796702639   -0.7028843552    1.6647000089
 H   -0.5435037194   -0.6006068410    2.0172933638