20

 C    0.0059644329    1.4546846853    0.0728914857
 C    0.0638533009   -0.0482887996    0.0432838615
 C    0.6147498763   -0.9757086665   -1.0883354919
 C    0.1190789323   -1.9378437476    0.0253811308
 C    0.8077855272   -0.9929381606    1.0475996919
 C   -1.1527986100   -1.0259961620    0.1189810445
 C   -2.0206551207   -1.0383351247    1.3646422768
 N   -2.9933912567   -2.0014400776    1.3563523315
 O   -1.9044519444   -0.2485818157    2.2855023367
 H    1.0120532360    1.8863334659    0.0333330860
 H   -0.5607942231    1.8456766775   -0.7797614715
 H   -0.4820247943    1.7901173595    0.9920745663
 H    0.0637725120   -0.9833570981   -2.0341283658
 H    1.6953211344   -0.9452571347   -1.2541525292
 H    0.1356145955   -3.0288539105    0.0110724607
 H    1.9006046083   -0.9647757416    1.0066305362
 H    0.4418183136   -0.9980021133    2.0733566587
 H   -1.7847614844   -1.0536918099   -0.7775926826
 H   -2.9989419091   -2.7374650564    0.6716225672
 H   -3.5469399768   -2.1188054994    2.1897376664