18

 C    0.2051265039    1.4205850096    0.1084727353
 O   -0.2968811223    0.1746516224   -0.3324876529
 C    0.5475717963   -0.4809227129   -1.2349239336
 C    1.7342148131   -1.2847080398   -0.6493807785
 O    1.1746678291   -2.5249050205   -1.1345987926
 C    0.0127091792   -1.8648223936   -1.6694241337
 C   -1.2894798608   -2.3143949814   -0.9970814802
 C   -1.6176820573   -3.7005981027   -1.3185919783
 N   -1.8810240999   -4.7934404334   -1.5852072350
 H    1.1517073331    1.3103615234    0.6570163082
 H    0.3693712957    2.1075554836   -0.7352347135
 H   -0.5423328218    1.8500205423    0.7784672823
 H    0.8171886694    0.1819288948   -2.0685034517
 H    2.7215280259   -1.0860502125   -1.0807597864
 H    1.7970159074   -1.2578818150    0.4454312104
 H   -0.0591079231   -2.0096023296   -2.7538083191
 H   -1.2042228594   -2.1976063739    0.0862192905
 H   -2.1085744585   -1.6657657506   -1.3267963612