17

 O   -0.2582018101    1.4222536934    0.1694500998
 C   -0.0919369047    0.0557693369   -0.1713756229
 C   -1.3311605596   -0.6738294721    0.3292909825
 C   -1.2894009735   -2.1519461414    0.0334900488
 O   -0.3886492066   -2.7333065614   -0.5151406890
 O   -2.4223288812   -2.7570197695    0.4784695008
 C   -2.5344926522   -4.1668905291    0.2742019176
 C   -3.7072235739   -4.4585439064   -0.6448322813
 O   -4.2473374009   -5.5294179508   -0.7068749277
 H    0.5165080595    1.9032330955   -0.1351921793
 H    0.0075529469   -0.0865927625   -1.2569889437
 H    0.8047148861   -0.3770342357    0.2944380720
 H   -1.4439768262   -0.5336788242    1.4101910773
 H   -2.2336619031   -0.2466161266   -0.1214795118
 H   -1.6140572791   -4.5491852451   -0.1812507455
 H   -2.6882523862   -4.6525862871    1.2413117684
 H   -4.0175762151   -3.5923559340   -1.2716366862