16

 C    0.1069804718    1.4619459413    0.2780683770
 C   -0.0029124510   -0.0161482032   -0.0323659493
 C    0.6522520007   -0.5844160844   -1.2311619301
 O    1.2271687378   -0.7629814091    0.0573237651
 C   -1.1667703207   -0.6862986348    0.4975840660
 C   -2.1531438952   -1.2077994954    0.9551186154
 C   -3.3757082577   -1.7893910353    1.4928676458
 N   -3.2237109966   -3.0695982198    1.9406099195
 O   -4.4302491687   -1.1854535634    1.5233870571
 H    1.0202122050    1.8681815975   -0.1631015585
 H   -0.7565515172    2.0021517709   -0.1204641843
 H    0.1390815231    1.6220146058    1.3594309308
 H    0.2424747343   -1.4802009995   -1.6937046772
 H    1.1858152510    0.0906098575   -1.8995200623
 H   -2.3194734897   -3.5064481940    1.9839322955
 H   -4.0104613168   -3.5118423641    2.3872666895