21

 C   -0.2537693182    1.4014161631   -0.1085766823
 C    0.0538098671   -0.0917937051   -0.0013585451
 C    0.8762824369   -0.6613303901   -1.1725873119
 C    1.4886161108   -1.9121933891   -0.5514509606
 O    1.8227555588   -1.5283360325    0.7815396640
 C    0.8694952831   -0.5483539794    1.2439235547
 C    1.6618026942    0.5303032224    1.9826267780
 C   -0.0013492795   -1.2954772882    2.2639136334
 O   -1.2032078677   -1.3529638958    2.2571906558
 H    0.6562475513    2.0071088794   -0.1659160676
 H   -0.8393875616    1.5992381848   -1.0120536027
 H   -0.8426032094    1.7503209991    0.7454610811
 H   -0.9021684328   -0.6242832738    0.0455287848
 H    0.2655715438   -0.8709864054   -2.0547547811
 H    1.6676555681    0.0393253629   -1.4643461938
 H    0.7692675092   -2.7460955738   -0.5507367448
 H    2.4083231687   -2.2534836540   -1.0343405953
 H    2.3625603344    1.0174837885    1.2994812160
 H    1.0032553861    1.2884140590    2.4161902773
 H    2.2440623333    0.0737727489    2.7889536203
 H    0.6033874232   -1.8265664911    3.0327760098