17

 C   -0.0363822889    1.5158256961    0.0746429283
 C   -0.0042359163    0.0004874270    0.0056958182
 C   -1.2475326332   -0.6272559086   -0.5954361413
 C    1.3221996371   -0.6790586796   -0.2371873406
 C    0.6945355344   -0.7246605396    1.1509498621
 O    1.2306986132    0.0765188428    2.1625440768
 C    0.1652922485   -1.9868178276    1.6240441151
 N   -0.2329085438   -2.9984788734    2.0201912841
 H    0.8512560331    1.9191778259    0.5627409945
 H   -0.0998015670    1.9309697486   -0.9370875412
 H   -0.9134849225    1.8587701822    0.6334327257
 H   -1.3720012556   -0.2905942675   -1.6303964228
 H   -1.1993680477   -1.7189266887   -0.5993201595
 H   -2.1420711547   -0.3334247236   -0.0362516361
 H    1.3452406594   -1.5943902876   -0.8184026623
 H    2.2078277726   -0.0572599279   -0.3157511586
 H    2.0308119114   -0.3485063785    2.4926306678