21

 C    0.1077675441    1.5664797549    0.1050476134
 C   -0.0112540688    0.0430659366   -0.0414680543
 C   -1.4274783452   -0.4681955443   -0.0092674750
 C   -1.9113872431   -1.6642407640   -0.7966737476
 C   -2.5821831934   -0.3378114145   -1.0197212527
 C   -3.5877268984   -0.0691007350    0.1109563403
 C   -2.4326451758   -0.2474928291    1.1136245037
 C   -2.4119938383   -0.7061793016    2.5044126595
 O   -2.2202594334    0.6794070190    2.1646211581
 H    1.1561640323    1.8793313686    0.0723895057
 H   -0.4212202421    2.0779549564   -0.7061644908
 H   -0.3232806010    1.8994161050    1.0516274539
 H    0.4544392770   -0.2758155459   -0.9823653791
 H    0.5631786352   -0.4481376487    0.7563780221
 H   -1.2396190609   -1.9916248624   -1.5845970328
 H   -2.4478606050   -2.4750346842   -0.3075295073
 H   -2.5825789859    0.1523802655   -1.9854622370
 H   -3.9450346323    0.9637214367    0.1328772223
 H   -4.4422784098   -0.7499542485    0.1867828338
 H   -3.3450943150   -0.9288640874    3.0204945664
 H   -1.5321800802   -1.2141979672    2.8978566475