20

 C   -0.2319659206    1.5326639326    0.0966448184
 C   -0.0455806291    0.0166046672   -0.0324090124
 C   -1.4072166697   -0.6898777089   -0.1599257689
 C    0.8178289724   -0.2958701429   -1.2291811457
 C    1.6412767433   -1.3228469149   -1.4071688955
 C    1.9795191291   -2.4557596650   -0.4805067040
 N    1.5369748885   -2.5126770891    0.8914733977
 C    0.9651088825   -1.6040294170    1.5491111447
 O    0.5321693813   -0.3552019997    1.2445952674
 H    0.7372565460    2.0283718689    0.1967948067
 H   -0.7395976780    1.9323260438   -0.7857807084
 H   -0.8329391270    1.7615220871    0.9800717173
 H   -1.9001620072   -0.4047485987   -1.0938691427
 H   -1.2764902927   -1.7750854813   -0.1646523378
 H   -2.0553757258   -0.4131741377    0.6772179627
 H    0.6897193979    0.4037978213   -2.0523485917
 H    2.1501650079   -1.3987863380   -2.3680646081
 H    1.6593557354   -3.3905305231   -0.9680748161
 H    3.0766429256   -2.5490843799   -0.4484286808
 H    0.7905849800   -1.7755700448    2.6131887172