18

 C   -0.0770447018    1.5298461048    0.0248342126
 C   -0.0498875687    0.0240647615   -0.0156914256
 C    0.6884603648   -0.8288002336   -1.1207864345
 C   -0.2163788848   -1.9575692900   -0.5522912003
 O    0.2847357704   -2.1270145083    0.7843816426
 C    0.4162346022   -0.7555032886    1.2347002789
 C   -1.2483474684   -0.8481535820   -0.3848634391
 N   -2.4601954891   -0.5767619769   -0.5992575236
 O   -3.1684608282   -1.7033830200   -1.0721176135
 H    0.9253507056    1.9356066433    0.1982461394
 H   -0.4544442597    1.9388555293   -0.9165473986
 H   -0.7296269929    1.8868525856    0.8282418381
 H    0.4272539632   -0.5215947689   -2.1347944151
 H    1.7656111668   -0.9756285326   -1.0035123773
 H   -0.3976177269   -2.9172627204   -1.0254190622
 H    1.4583966464   -0.5477407648    1.5050220487
 H   -0.2257467066   -0.5819782382    2.1059395374
 H   -4.0586706721   -1.3500846202   -1.1752003479