18

 C   -0.1209382165    1.5825196184   -0.2454785085
 C    0.0305338246    0.1503764790    0.2615114587
 N   -1.2598758822   -0.5377364124    0.2054121288
 C   -1.6126262570   -1.2384222598   -1.0272937855
 C   -1.3102135477   -1.9975841085    0.2180992427
 C   -0.0913855947   -2.8932919753    0.3303219205
 O    0.7901239894   -2.7063095756   -0.7686493656
 H    0.8250458917    2.1263756449   -0.1585827300
 H   -0.4202209374    1.5926368367   -1.2988243725
 H   -0.8853097068    2.1159194907    0.3269301713
 H    0.8116172626   -0.3738578599   -0.3064590956
 H    0.3461497667    0.1650422297    1.3127407079
 H   -2.6381085887   -1.1214331745   -1.3691115994
 H   -0.8642556906   -1.2925546577   -1.8143994931
 H   -2.1441334566   -2.3857452694    0.8029787449
 H    0.4226930161   -2.6925616418    1.2843049030
 H   -0.4477607976   -3.9351614659    0.3701731430
 H    1.6060746447   -3.1794591386   -0.5804010606