21

 C    0.1320912339    1.3545420835    0.1521907404
 O   -0.2290241250    0.0156447083   -0.1186424075
 C    0.5173286580   -0.5730709550   -1.1418360320
 C    1.8631395606   -1.2881306273   -0.8442707409
 C    1.8423205363   -1.9339901038    0.5464728596
 C    0.8189007720   -3.0953197601    0.5453693420
 C   -0.3834780004   -2.8203341749   -0.3891452886
 C    0.0964486738   -1.9854697400   -1.5821794492
 O    1.5017246989   -2.2730421447   -1.8586076853
 H    1.1673979336    1.4385147379    0.5134930270
 H    0.0256884659    1.9873544873   -0.7418167159
 H   -0.5424900610    1.7214695235    0.9290605850
 H    0.6142794267    0.1007727768   -2.0037148954
 H    2.8017202387   -0.7830209870   -1.0875405384
 H    2.8348937245   -2.3092423595    0.8144629969
 H    1.5728493754   -1.1696047346    1.2839544770
 H    1.3302164756   -3.9889312506    0.1790199091
 H    0.4809096611   -3.3174515901    1.5615365851
 H   -0.8138934819   -3.7663673759   -0.7321278245
 H   -1.1754468350   -2.2663895772    0.1250386746
 H   -0.5260793217   -2.0894212667   -2.4744735891