19

 C    0.2820974994    1.6172983623   -0.0462181746
 O    1.5586296407    1.3625141401    0.5941740178
 C    1.2669394919   -0.0443669046    0.7170604040
 C   -0.0585569740    0.1192100662   -0.0742496549
 C    0.5686706156   -0.7174985026   -1.2501906923
 C    1.0440632826    0.0003069775   -2.4807303896
 C    2.3635706761    0.2004202217   -2.4674350005
 C    3.0458277258   -0.3473388517   -1.2318020619
 C    1.8760784972   -0.9275002854   -0.4079792347
 H   -0.3710654194    2.2131736763    0.6043671921
 H    0.3995396822    2.1248108399   -1.0093481738
 H    1.3507389948   -0.3946270890    1.7503263748
 H   -1.0365604434   -0.1906359955    0.2912390139
 H   -0.0163941332   -1.6151049255   -1.4728511905
 H    0.3775712670    0.3192862108   -3.2754459351
 H    2.9189233152    0.7033971000   -3.2528223889
 H    3.7926733126   -1.1085607393   -1.4891653278
 H    3.5693787139    0.4445315551   -0.6840485170
 H    2.0507590149   -1.9528681563   -0.0749085410