21

 C    0.0139958096    1.6160779735   -0.0544270296
 C   -0.0047764477    0.0872577025    0.0136132896
 C    0.6781577886   -0.5639404786   -1.1891923642
 C    0.6772487479   -2.0861769025   -1.1544736267
 O    0.1721312357   -2.7109231308   -0.2486102965
 C    1.3500831933   -2.7868977366   -2.3291423819
 C    1.2979223592   -4.3190659368   -2.2182126345
 C    1.9452129914   -4.9786679671   -3.3449498653
 C    2.4851476160   -5.4993709370   -4.2842901508
 H    1.0391298646    2.0024786384   -0.0846803949
 H   -0.5021072111    1.9829262124   -0.9489562359
 H   -0.4803167856    2.0556937446    0.8171187624
 H    0.4854438712   -0.2569195115    0.9304985132
 H   -1.0358896212   -0.2762980342    0.0771077256
 H    0.2028347288   -0.2474427699   -2.1291701415
 H    1.7218190763   -0.2283835991   -1.2773509056
 H    0.8745973513   -2.4518265389   -3.2595827116
 H    2.3894649759   -2.4414474782   -2.3967626753
 H    1.7669907607   -4.6283856786   -1.2777294323
 H    0.2531132771   -4.6396039318   -2.1413239218
 H    2.9585039080   -5.9753042596   -5.1066784425