17

 O   -0.1829985076    1.3867906823    0.0366447551
 C   -0.0840617730   -0.0043977829    0.0451446864
 C   -0.4752155487   -0.7800424327   -1.1844611693
 C   -1.3447276106   -0.8355625891    0.0668420025
 C   -1.0592196519   -1.9786327795    0.9966849039
 C    0.1896480069   -1.8905978438    1.4923701464
 C    0.9071794405   -0.6512749381    1.0179554305
 C   -2.0060391591   -2.9959257857    1.2668628937
 C   -2.8440704022   -3.8363662549    1.4761466792
 H    0.5036550042    1.7318206318   -0.5443683282
 H   -0.8651637682   -0.1900390781   -2.0074268792
 H    0.0821038539   -1.6676771728   -1.4672584874
 H   -2.3292773877   -0.3854810189    0.0359419386
 H    0.6401719166   -2.6188102410    2.1554746178
 H    1.8744805818   -0.8805963924    0.5521607499
 H    1.1116248887    0.0384231935    1.8484713324
 H   -3.5720364036   -4.5848049177    1.6683672076