17

 C   -0.4859465610    1.4318977656    0.0430857372
 C    0.0201119034   -0.0171577297    0.0117334682
 C    0.7763160744   -0.4140516304   -1.2644144712
 O    0.3033578576   -0.4400575840   -2.3729141998
 C    2.1747373644   -0.8271495786   -0.9041197150
 C    2.9745329263    0.2431524495   -0.1996763777
 C    2.2832210240   -0.8221922109    0.6179971819
 C    0.9498339438   -0.4061337717    1.1702837028
 O    0.6388861862   -0.4246959217    2.3348025930
 H    0.3359222237    2.1518085088   -0.0178336582
 H   -1.1550713136    1.6091518268   -0.8024673005
 H   -1.0284705415    1.6149312934    0.9738237985
 H   -0.8514915529   -0.6822952699    0.0760168142
 H    2.6862054527   -1.5433578018   -1.5344297042
 H    4.0527859798    0.1643854455   -0.2762710689
 H    2.6039931479    1.2616043020   -0.1765854125
 H    2.8792410649   -1.5345345330    1.1740303922