19

 C   -0.0636790698    1.4344195786    0.2203412901
 N   -0.0942052470   -0.0023598684    0.0898324489
 C   -1.2344620138   -0.7269913183    0.2093065582
 C   -0.9977691855   -2.2021323797   -0.0239147987
 O    0.0900696871   -2.6485375633   -0.2995811488
 N   -2.3645906147   -0.1789099785    0.4709561063
 C   -3.5953263645   -0.9334203943    0.6570508749
 C   -4.5720251935   -0.0260723139    1.4146036621
 O   -4.7310331991    1.2055845606    0.7474684379
 H    0.9716268433    1.7750419441    0.1630950316
 H   -0.6444915260    1.9258747343   -0.5704298533
 H   -0.4898880627    1.7432656117    1.1810707295
 H    0.7285080479   -0.5188543391   -0.1755503593
 H   -1.8866950078   -2.8522643891    0.0519532994
 H   -4.0414008854   -1.1743439966   -0.3188704052
 H   -3.4702549261   -1.8737161081    1.2131722724
 H   -5.5575679461   -0.5002779581    1.4763137004
 H   -4.2006858057    0.1164394231    2.4434015334
 H   -3.8293570608    1.4716799148    0.5181260303