20

 C    0.0546946363    1.5817163811    0.0510847351
 C   -0.0334323863    0.0859411960    0.0704991130
 C   -1.3312090120   -0.7447547314    0.0268797041
 C   -0.6610659128   -1.7889066450    0.9875084163
 C   -0.5804436837   -3.2609106373    0.5574609475
 C   -1.9524344323   -3.8945749046    0.5292355746
 O   -2.5074047934   -4.2949602716   -0.4615157918
 C    0.6279776160   -0.9490827438    0.9444102209
 N    1.0886980452   -0.7068691585   -0.4193841048
 H    1.0791592194    1.9053105504    0.2518457605
 H   -0.2366704067    1.9771878545   -0.9293607114
 H   -0.6087821886    2.0263360176    0.8005638894
 H   -2.1922756057   -0.2498085476    0.4826066409
 H   -1.6228142027   -1.1059343096   -0.9654986422
 H   -1.1183154364   -1.7253547758    1.9808246694
 H   -0.1331492777   -3.3689053195   -0.4353685978
 H    0.0386239957   -3.8094022103    1.2812706474
 H   -2.4521586267   -3.9499185874    1.5256590533
 H    1.3477122874   -0.8436659403    1.7497316861
 H    0.8174911348   -1.4362393569   -1.0765017306