23

 C   -0.0603710157    1.5837616477   -0.0753421084
 C    0.0246058191    0.0571660397    0.0035988180
 C   -1.3852647875   -0.5552372416   -0.0914182566
 C    0.9224768430   -0.5472947843   -1.0992779573
 O    1.2804084894   -1.8470620763   -0.6446612393
 C    1.4382650776   -1.7937846635    0.7657718125
 C    2.8020439742   -1.2460039329    1.2715967821
 C    2.1134801554    0.0868087596    1.6813320283
 C    0.7262798863   -0.4956882092    1.2652819999
 H    0.9235356551    2.0577569611   -0.0159371149
 H   -0.5206575766    1.8964041838   -1.0195684909
 H   -0.6754463456    1.9860563896    0.7367592926
 H   -1.8886604278   -0.2362041009   -1.0108836395
 H   -1.3390509452   -1.6481028581   -0.0962295843
 H   -2.0067572067   -0.2428144477    0.7546822842
 H    0.4143472337   -0.6588542760   -2.0619401684
 H    1.8169610965    0.0776210032   -1.2575215248
 H    1.1318641525   -2.7629193631    1.1667126727
 H    3.2146021529   -1.8126312094    2.1102698895
 H    3.5655061193   -1.1760116146    0.4929460078
 H    2.1925841736    0.3410809779    2.7406392360
 H    2.4378505421    0.9570815759    1.1058948294
 H    0.0297173043   -0.6152834809    2.0977923513