14

 O   -0.0232280292   -0.0388547045   -0.0562423212
 C   -0.0186694311    1.1658009039   -0.0077319697
 N   -1.0940179649    1.9986986702    0.1355931505
 C   -0.8309527804    3.4266058920    0.0601363285
 C    0.6885143236    3.4928893338   -0.0216476338
 N    1.3420603583    2.9018743409    1.1453242059
 C    1.1959659403    2.0900238251   -0.1021943040
 C    2.3524979258    1.7028015049   -0.8508419374
 N    3.2997107006    1.4060338045   -1.4437293485
 H   -2.0072123065    1.6148666527    0.3175135332
 H   -1.2867130520    3.8753453780   -0.8312514673
 H   -1.1987867159    3.9556155700    0.9465907426
 H    1.1654052127    4.3002623108   -0.5640720606
 H    2.3047197086    3.2317697076    1.2029339918