17

 O    0.0216612472    0.0485961116   -0.5691098804
 C   -0.0381593913    1.1655019277   -0.1537725600
 C   -1.1538574591    2.0235065467    0.4649116964
 C   -0.1490287747    3.1939049556    0.6257835955
 C    0.6410062869    3.1883439220    1.9563482752
 C    1.7363339596    2.2804952454    1.3294783523
 C    0.9973260224    2.3201540560   -0.0606366216
 C    1.7428105696    2.6767373539   -1.2315052725
 C    2.3571539458    2.9810471297   -2.2206590052
 H   -1.9355411414    2.2213058518   -0.2767175635
 H   -1.6293085185    1.6285061787    1.3674980617
 H   -0.4542686866    4.1541110311    0.2145548110
 H    1.0196091566    4.1734160928    2.2364637839
 H    0.1037464442    2.7741463876    2.8136528953
 H    2.7199327545    2.7477719874    1.2726117745
 H    1.8515304844    1.2799997892    1.7520480550
 H    2.9010560703    3.2414352226   -3.0946692478