23

 C    0.0460504305    1.2832289974    0.6724085187
 C   -0.0961307491    0.2281633849   -0.4398613111
 C   -1.4231437996   -0.3780515107   -0.4891122635
 C   -2.5292487118   -0.8553083865   -0.5148061172
 C   -3.8527729966   -1.4690856734   -0.5409801897
 C   -3.8551780810   -2.9313468279   -0.0511097498
 C   -5.2516543038   -3.5561452710   -0.0859198348
 C   -5.2662685849   -5.0008033692    0.3954941430
 O   -6.6029398496   -5.4740821077    0.3207673136
 H    1.0542743912    1.7086118168    0.6706237728
 H   -0.6714769390    2.0959669955    0.5302366348
 H   -0.1393315044    0.8393486697    1.6543792660
 H    0.1319481238    0.6883934439   -1.4101499477
 H    0.6587863994   -0.5560388082   -0.2968231480
 H   -4.5446065527   -0.8810452704    0.0773059770
 H   -4.2580898114   -1.4302155277   -1.5612317143
 H   -3.1648255932   -3.5135123947   -0.6733868539
 H   -3.4519890722   -2.9630302267    0.9682939248
 H   -5.9425847069   -2.9760611964    0.5385770332
 H   -5.6551080554   -3.5269605535   -1.1058415154
 H   -4.5925455376   -5.6080764519   -0.2314326825
 H   -4.8821165162   -5.0522689866    1.4277342586
 H   -6.6161578095   -6.3865308254    0.6235690155