14

 N   -0.1279440941    1.4464551954   -0.1626080387
 C    0.0413797492    0.2254827763    0.0840334273
 O    1.2845612601   -0.3371156841    0.2459661763
 C    1.4983771979   -1.3554887859    1.1901422813
 O    1.0210078078   -2.6251117503    0.7912242138
 C   -0.3199462990   -2.8623852178    0.8082957023
 O   -0.7349348547   -3.9754054025    0.6787089805
 C   -1.2272240819   -1.6439306564    0.9903521801
 O   -1.0183332648   -0.6116310749    0.0323339625
 H    0.7718799402    1.9233525915   -0.1815732059
 H    2.5793468038   -1.4654350667    1.2610595028
 H    1.0836370440   -1.0767421885    2.1664331396
 H   -2.2472984804   -1.9885377786    0.8289507344
 H   -1.1538562880   -1.2548306873    2.0148447537