16

 O   -0.2615057469    1.3110481908   -0.0636181531
 C   -0.0222558056   -0.0395809119   -0.0210885647
 C    0.8999850130   -0.8783314864   -0.8889746302
 N    0.0889878426   -2.0994525011   -0.4958795361
 C    0.3929596220   -2.2082922161    0.9894048270
 C   -0.3474080958   -0.9070959650    1.2101923559
 C   -1.0693535123   -1.1264959741   -0.1139530641
 C   -2.4148500587   -1.1838043404   -0.5161138429
 C   -3.5663452366   -1.2298888980   -0.8652941768
 H    0.2865567639    1.7469882228    0.5983458112
 H    0.7630018187   -0.6767274140   -1.9538793183
 H    1.9673780782   -0.9466842744   -0.6505164484
 H   -0.1251888365   -3.0772082338    1.4025709682
 H    1.4611525267   -2.2661522714    1.2261110869
 H   -0.7644738832   -0.4634420022    2.1063416410
 H   -4.5804188395   -1.2707015848   -1.1767034156