17

 C   -0.2930198884   -1.0114609036   -0.6851184811
 C   -0.1708609127    0.1181586049   -0.2885056530
 C    0.0073553480    1.4750104578    0.1816438770
 C    0.1038350069    1.7609118874    1.7206458662
 C    1.2425628217    2.7825478533    1.4388663657
 C    1.3967976564    2.1483896171    0.0553322541
 C    2.5950285088    1.5340854511   -0.5482784795
 N    1.9934858471    2.7636846372   -1.1159381199
 H   -0.4118358956   -2.0093330931   -1.0279630695
 H   -0.7530041637    2.1290281642   -0.2638226089
 H   -0.8040968448    2.1325038703    2.1974330278
 H    0.4601258817    0.8810476845    2.2590758994
 H    0.8758889329    3.8112813948    1.3731553001
 H    2.1116973389    2.7580607879    2.0990779697
 H    3.5696689069    1.6765374567   -0.0885816564
 H    2.4674306070    0.5950767586   -1.0803190172
 H    1.4550833689    2.5330322809   -1.9486539346