20

 C   -0.3014102127    1.3068989451   -0.0988766226
 O   -0.1937681424   -0.1118837096   -0.2229296492
 C    0.6876527156   -0.5577788046   -1.1385897039
 N    1.3260663755    0.2504873699   -1.8858718890
 N    0.7362883539   -1.9551597107   -1.0938836159
 C    0.1952993621   -2.6845200539    0.0551127438
 C    1.2078296716   -2.6702306767   -2.1822086111
 N    1.3088983607   -3.9333350162   -2.1883429360
 C    1.7888353245   -4.5586115027   -3.4017611285
 H    0.6692181018    1.7500631160    0.1374220057
 H   -0.6674158544    1.7493832330   -1.0285626109
 H   -1.0113383050    1.4740566358    0.7122228383
 H    2.0177891427   -0.2122675927   -2.4652617905
 H   -0.8962479255   -2.7484207615    0.0074099935
 H    0.6141323899   -3.6890506105    0.0272336031
 H    0.4760939950   -2.1802400949    0.9794521291
 H    1.4587068383   -2.0390840471   -3.0419900337
 H    1.0347081414   -5.2572379898   -3.7833023011
 H    2.0330361172   -3.8440650965   -4.2050961601
 H    2.6859747397   -5.1500515725   -3.1838641810