15

 O    0.0191870230   -0.0525596654    0.0971684893
 C    0.0024898335    1.1474324572    0.0289070195
 N   -1.1745286854    1.8694543069    0.0198405396
 C   -1.3300140810    3.3101445020   -0.0341682983
 C   -0.0053509784    3.9595569081    0.3952206895
 C    1.1306370076    3.2518394508   -0.3242783771
 O    1.1569069308    1.8566582873    0.0006098436
 C   -1.7333496203    3.7681672623   -1.3840208553
 N   -2.0545676995    4.1249552442   -2.4350298851
 H   -1.9962650125    1.2879186701   -0.0256776391
 H   -2.1270084728    3.6122825984    0.6553635585
 H   -0.0115471167    5.0259862693    0.1590852623
 H    0.1085580093    3.8415707049    1.4767187920
 H    1.0372791656    3.3709091216   -1.4114335657
 H    2.1041107667    3.6399295621   -0.0194011036