15

 C    0.0766348090    1.5221520323    0.1788836649
 C    0.0161680797    0.0154125717    0.0268762179
 O    0.6955108118   -0.5584671652    1.1644453735
 C    0.7489063617   -1.8940206542    1.2112761875
 N    0.2404006029   -2.6474499795    0.3197410133
 C    1.4463455623   -2.3592333489    2.3816124628
 C    2.0202442287   -2.8166145668    3.3420936057
 C    2.6687529504   -3.3298623836    4.4274424062
 N    3.2206021536   -3.7688787735    5.3505704072
 H    1.1123360080    1.8718090654    0.2017543706
 H   -0.4294907929    1.9962874071   -0.6669847033
 H   -0.4169685079    1.8425185738    1.1003934724
 H   -1.0117438297   -0.3604105121    0.0063733340
 H    0.5088718940   -0.3313025456   -0.8870671404
 H    0.3888200282   -3.6298471412    0.5387149178