12

 C   -0.0054622965    1.4322637290   -0.0160304027
 N    0.1355684244   -0.0112283680    0.0488688412
 C    0.6995951730   -0.6305393787   -0.8897124622
 O    1.2839551413    0.0211539261   -1.9691826764
 N    1.4687584847   -0.6980027973   -3.2170827819
 N    1.3828236893   -1.9204645287   -3.1908252418
 C    1.1440780489   -2.5881542420   -1.9558649432
 N    0.8064446015   -2.0225784566   -0.8696512239
 H    0.8749304608    1.9108931035    0.4316186187
 H   -0.1126054951    1.8198423832   -1.0357130330
 H   -0.8738817497    1.7244428766    0.5792870989
 H    1.2558187273   -3.6657246171   -2.0164366936