13

 O   -0.8657612874    1.1405792085   -0.1934691195
 C    0.2531361782    0.8999746561    0.1933616399
 C    1.3931212927    1.8326346024    0.0369350274
 C    1.1349060604    3.3330812342   -0.0701751815
 C    1.6730769159    2.6317523525   -1.2591997417
 O    3.0805162687    2.5856148288   -1.3965748678
 C    3.5348766857    1.9102712040   -0.3053067269
 N    2.6914834919    1.4334768753    0.5188080063
 H    0.5175888443   -0.0555086138    0.6925115145
 H    0.0844691245    3.5971702066   -0.1202399039
 H    1.7809683946    3.9889740417    0.5029216409
 H    1.1348750025    2.5273043223   -2.1918193044
 H    4.6123161877    1.8266553513   -0.2407168132