23

 C   -0.2506584209    1.6870848594    0.6808295841
 C   -0.0564319478    0.1668202100    0.6677511053
 C   -1.3026078909   -0.5645591245    0.1731662955
 C   -1.6738062086   -0.4647303269   -1.3443180262
 C   -1.6862206353   -2.0077519123   -1.4466317697
 C   -0.2987828384   -2.6285323688   -1.7780058404
 C   -0.1017285765   -2.9448638064   -0.2645587925
 O    1.0955760624   -2.5692063526    0.3797545682
 C   -1.3596540906   -2.1268048685    0.0920625093
 H    0.6510257270    2.2004302257    1.0295964872
 H   -0.4826933444    2.0697944018   -0.3195564108
 H   -1.0754971647    1.9770505768    1.3422633455
 H    0.8043817159   -0.0966842801    0.0461744527
 H    0.1910814862   -0.1844645499    1.6766187881
 H   -2.1516757039   -0.2302320252    0.7810088686
 H   -2.6423537219    0.0071478939   -1.5296767608
 H   -0.9306564785    0.0265070359   -1.9817842460
 H   -2.5527352001   -2.4848417531   -1.9045080016
 H   -0.3029617898   -3.4993438125   -2.4387917910
 H    0.4202694297   -1.8998060832   -2.1645312488
 H   -0.3161974565   -4.0084850380   -0.0797108260
 H    1.7930017813   -3.1660299689    0.0900997113
 H   -2.0274149738   -2.5925692528    0.8189994678