16

 O   -0.3068031367    1.3525213816    0.0883387409
 C   -0.0451484862   -0.0449309126    0.0144372362
 C    0.7310477628   -0.3894088776   -1.1807461244
 C    1.4110225733   -0.6446972130   -2.1388902648
 C    0.6393353183   -0.5851544636    1.2802422177
 C    1.9555208502    0.0919214751    1.7190866729
 O    1.3722478895    0.5277916192    2.9599774958
 C    0.0971501328   -0.0631698340    2.6292831216
 H    0.5173626566    1.8201108564   -0.0855284564
 H   -1.0376869320   -0.5079139779   -0.0582842642
 H    1.9920925955   -0.8761539023   -2.9975435912
 H    0.7052145287   -1.6728585509    1.2078184690
 H    2.8088969913   -0.5787913373    1.8732285467
 H    2.2882853734    0.9359805440    1.0984427265
 H   -0.6926881427    0.6908761647    2.5450931776
 H   -0.1986058849   -0.8314814117    3.3534564762