20

 C   -0.1061119342    1.5085427649   -0.0207214827
 C    0.0127674929    0.0160891672    0.0188447706
 C    0.5364388876   -0.9908359901   -0.9571002320
 C    1.2746270288   -1.7534936301    0.1495122221
 C    0.4820711477   -0.9073592478    1.1953914500
 C   -0.7877467345   -1.6511978045    1.6119242341
 O   -1.5840761436   -0.9238109601    2.5359465891
 C   -1.4825189667   -1.8639540178    0.2378453868
 N   -0.9095222617   -0.8671726142   -0.6921838690
 H    0.8471248564    1.9862950939    0.2294464045
 H   -0.4079221491    1.8373864882   -1.0188789342
 H   -0.8541330133    1.8758490618    0.6929959305
 H    0.8595057507   -0.8709358010   -1.9860754702
 H    1.1650367999   -2.8431914502    0.1927262539
 H    2.3390171159   -1.5068372946    0.1522453424
 H    1.0454472707   -0.4805873866    2.0242945995
 H   -0.5636877395   -2.5980276140    2.1127724644
 H   -1.8462624704   -0.0965711236    2.1175534219
 H   -1.3404812970   -2.8749281339   -0.1555362918
 H   -2.5590017305   -1.6921486975    0.3338945002