15

 C   -0.0285073436    1.4332521378    0.0617983377
 O   -0.0150340258    0.0154095307   -0.0150465988
 C    0.5887138653   -0.6007814725   -1.0488192769
 C    0.6508274020   -1.9496677056   -1.1262434522
 C    1.3019864000   -2.6104088564   -2.2528073233
 O    1.3825045498   -3.8162344996   -2.3677433911
 N    1.8632687338   -1.7536953697   -3.2524129231
 C    1.7654964755   -0.4894278262   -3.1092973888
 N    1.1544183861    0.1545095618   -2.0540040436
 H    0.9861214372    1.8486037303    0.1127051962
 H   -0.5763232186    1.8823772473   -0.7768629508
 H   -0.5515542492    1.6744564138    0.9872102022
 H    0.2122788830   -2.5526827621   -0.3434377569
 H    2.1829832517    0.1871481463   -3.8543060239
 H    1.1250114528    1.1594184642   -2.0372067767