16

 C   -0.0735827337    1.4992586175   -0.0087752207
 C   -0.0265352082   -0.0033095329    0.0281171380
 N    0.0192964174   -0.6336888411   -1.1548817805
 C    0.0615255229   -1.9687425905   -1.1437945597
 C    0.1128317353   -2.6740489130   -2.4711618019
 N    0.0623632253   -2.7450510547   -0.0484587483
 C    0.0166582784   -2.1080991520    1.1193826810
 C   -0.0296092360   -0.7229845120    1.2204431430
 H    0.8045224516    1.8902091455   -0.5324002410
 H   -0.9519878248    1.8342971218   -0.5693700369
 H   -0.1084399622    1.9297164761    0.9945901795
 H    1.0128119508   -3.2938777931   -2.5349528507
 H   -0.7432473720   -3.3484662254   -2.5737979820
 H    0.1083411659   -1.9510351957   -3.2868754428
 H    0.0170610847   -2.7314428557    2.0117667390
 H   -0.0663378253   -0.2273459347    2.1833672142