20

 C    0.1455249858    1.4873210263   -0.0769845480
 C    0.2199024600   -0.0393939830   -0.0048688483
 C    0.6745009536   -0.5660930520    1.3502492895
 C    0.8368020741   -2.1105839430    1.4314991620
 N    2.2633037715   -2.3286926431    1.7045736177
 C    2.7914399391   -1.1771340995    1.7942739173
 C    4.2488735323   -0.9559875405    2.0674033199
 O    4.9346463725   -2.1718712749    2.2042193014
 O    2.0210009695   -0.0786671558    1.6406204842
 H    1.1216994684    1.9331051086    0.1315444922
 H   -0.1759065740    1.8176700718   -1.0688818021
 H   -0.5672844415    1.8833168931    0.6547504044
 H   -0.7643778607   -0.4777101850   -0.2151155925
 H    0.9031724160   -0.4253820589   -0.7720448976
 H    0.0287490154   -0.1756017522    2.1441973452
 H    0.2293707709   -2.5554054549    2.2263188779
 H    0.5534104518   -2.5983461073    0.4916031863
 H    4.6691699134   -0.3548971743    1.2459289322
 H    4.3427159212   -0.3445241591    2.9783997329
 H    4.2708298408   -2.8663020562    2.0806388653