20

 C    0.8132125442    1.3609141086   -0.3407162466
 C    0.0018945849    0.1100082779   -0.0039521184
 N    0.1328910731   -0.9399781242   -1.0511506142
 C    1.2329633916   -1.8619500621   -0.6983055502
 C    2.4231416329   -1.8051017559   -1.6608485017
 C    1.6151375905   -1.4611700269    0.7255079682
 O    2.6441858532   -1.6839459415    1.3150045906
 C    0.4982822600   -0.5877028522    1.2828786346
 O    0.9378751634    0.2301297796    2.3268909233
 H    1.8822830956    1.1365766582   -0.4236695369
 H    0.4797480901    1.7736527642   -1.2959737140
 H    0.6958617568    2.1135030665    0.4427054636
 H   -1.0537554231    0.3822378239    0.0772904939
 H   -0.7376533909   -1.4467945147   -1.1405974683
 H    0.8690129301   -2.8985125502   -0.6606415820
 H    2.7951334247   -0.7817700402   -1.7572140883
 H    3.2357726571   -2.4370000812   -1.2911125104
 H    2.1221918825   -2.1507914830   -2.6528771893
 H   -0.3013706196   -1.2717944655    1.6247411145
 H    1.8031500329   -0.1207438013    2.5899542716