17

 C    0.4619679862    1.6758227378    0.1778247637
 C    0.2618738529    0.1512771249    0.2788374955
 N   -1.0810539191   -0.1083776314    0.8035528945
 C   -1.8825810743   -0.8432830481    0.1548472508
 N   -3.1579372752   -1.0757016618    0.6538667555
 C   -4.1013680430   -1.8577641484    0.0275498999
 O   -3.9381155387   -2.4315380357   -1.0221823309
 C    0.5938935456   -0.5093367146   -0.9888062020
 C    0.8442700320   -1.0498773219   -2.0335470768
 H    1.4937112669    1.9095587300   -0.0965127568
 H   -0.2048047797    2.0946844566   -0.5804962647
 H    0.2298908635    2.1355608429    1.1414375092
 H    0.9586315829   -0.2201529114    1.0435833098
 H   -1.6865961740   -1.3439594667   -0.7939426397
 H   -3.3848418655   -0.6330120926    1.5334591035
 H   -5.0422208731   -1.8996557362    0.6082672606
 H    1.0783325426   -1.5279433433   -2.9529151421