23

 C   -0.2057727716    1.5473572257    0.0021404676
 C    0.0313875548    0.0427939169    0.0196561006
 C    1.1162187365   -0.5224057078   -0.9600539537
 C    1.9131081257   -1.0441861220    0.2396441253
 C    2.7802557591   -2.2917069114    0.4260993368
 C    3.6460560557   -1.5024406476    1.4594199832
 C    2.9198287648   -0.1755652653    1.0723064207
 C    1.7887251232    0.2773805870    2.0319969275
 C    0.7850993639   -0.6031862462    1.2381330937
 H    0.7293553146    2.1129186865    0.0741306601
 H   -0.6933656172    1.8470990582   -0.9322308638
 H   -0.8506608435    1.8625802216    0.8302502262
 H   -0.9278710199   -0.4626271693   -0.1281815162
 H    0.7330728154   -1.3152699406   -1.6108461647
 H    1.6298266874    0.2124742338   -1.5902707569
 H    2.2793925797   -3.2015108766    0.7725782755
 H    3.3483638214   -2.5395846518   -0.4772413473
 H    3.4871872343   -1.7988519798    2.5003916025
 H    4.7206972307   -1.5155666076    1.2641428168
 H    3.5518024077    0.5908180698    0.6167257593
 H    1.9357927915   -0.0233620277    3.0744195149
 H    1.5695003004    1.3486609770    2.0237638600
 H    0.1915064454   -1.3207927128    1.8097763821