19

 C   -0.1313982772    1.5356192789    0.0457106873
 C    0.0524521526    0.0192533285    0.0216180755
 C    1.0145304134   -0.5251192934   -1.0944968496
 C    2.0373930902   -1.2646142187   -0.2075603703
 C    3.0985186210   -2.1399847577   -0.8016131639
 O    1.1565630903   -1.9079546434    0.7934155927
 C    0.8046427726   -0.5589660234    1.2397536356
 C    2.2813017465   -0.2416829539    0.9303085850
 O    3.2105651322    0.3033769042    1.4397658314
 H    0.8300027405    2.0551762255    0.1267039416
 H   -0.6217391270    1.8836693916   -0.8686499815
 H   -0.7501568949    1.8470899837    0.8940260431
 H   -0.9216541650   -0.4734719812   -0.0485155602
 H    0.5185636524   -1.2168083994   -1.7800542843
 H    1.4779073041    0.2745322898   -1.6812892564
 H    3.7479127683   -1.5451211258   -1.4511197290
 H    3.7134954882   -2.5909802206   -0.0188708179
 H    2.6528261201   -2.9381307385   -1.4037633341
 H    0.3592327116   -0.5112724662    2.2317839349