20

 C    0.0290318751    1.4346547404   -0.4442432387
 N    0.0265613513    0.0247512001   -0.0783566504
 C    1.2899709052   -0.6819672741   -0.2266148787
 C    0.7453803561   -0.3954005048    1.1367489105
 C    1.3797076248    0.5684205179    2.1069643498
 C    0.4696315735    1.4865480882    2.9194969343
 C    1.0987851843    0.3299645977    3.6035335222
 C    2.7602121104    1.0855823606    1.8758709624
 O    3.2461288204    2.0182904493    2.4728545549
 H    0.9629739443    1.9684475612   -0.2062772995
 H   -0.1390008428    1.5123599678   -1.5228347211
 H   -0.7931991670    1.9471901883    0.0638001183
 H    1.2384922241   -1.6888302859   -0.6335065783
 H    2.1481535877   -0.1075377131   -0.5706224448
 H    0.2333938310   -1.2198840807    1.6300507425
 H    0.8700954565    2.4724139130    3.1251927754
 H   -0.5884009714    1.4396637918    2.6897114016
 H    0.4911228547   -0.5365073055    3.8412217910
 H    1.9225477673    0.5236657220    4.2802467719
 H    3.3541097247    0.5229892859    1.1260556269