20

 C   -0.0508406420    1.4142532750    0.0079628524
 N   -0.0124549464   -0.0363162928    0.0674180767
 C   -1.0904705881   -0.6940337927    0.0178444071
 O   -2.3542455481   -0.1537730082   -0.0904875876
 C   -3.3066340013   -1.2134617950   -0.1290554202
 C   -2.5062923068   -2.4848461756   -0.0237398603
 C   -3.1692067661   -3.8217134062   -0.0291861386
 C   -1.2076667891   -2.1616377879    0.0630062831
 C    0.0049581489   -3.0233493249    0.1834115467
 H    0.7107640538    1.7629251958   -0.6984343679
 H   -1.0220467166    1.8293162101   -0.2849672363
 H    0.2179579994    1.8276917255    0.9885894346
 H   -4.0167896101   -1.0901724614    0.7013451705
 H   -3.8802326914   -1.1519099737   -1.0653232030
 H   -3.8790201034   -3.9145058064    0.8026059273
 H   -3.7458374538   -3.9732754264   -0.9505219535
 H   -2.4456124328   -4.6354369512    0.0530697433
 H    0.6902211531   -2.8359884822   -0.6497137634
 H    0.5586986170   -2.7779051657    1.0955419836
 H   -0.2453913259   -4.0865965060    0.2001606956