16

 O   -0.2217291589    0.2587363041    0.4450812349
 C   -0.0168766660    1.2483980926   -0.2298799362
 N    1.2038349858    1.7040599876   -0.5946625262
 C    2.4412580126    1.0685645134   -0.1710878619
 C    3.5077679399    2.1024547360    0.0261550925
 C    4.4933995245    2.1686820476    0.9745779991
 N    5.2132055184    3.3059443418    0.6750614098
 C    4.6361177416    3.8749597622   -0.4174148597
 N    3.6077385812    3.1745489206   -0.8368577611
 H   -0.8300212975    1.8916404936   -0.6222065846
 H    1.2959242881    2.5525455932   -1.1327293222
 H    2.2401189737    0.5162357442    0.7499311036
 H    2.7616911078    0.3307603874   -0.9215037644
 H    4.7433376630    1.5364949731    1.8099968320
 H    6.0087539331    3.6558054684    1.1820660386
 H    5.0040184226    4.7901298241   -0.8563406843