17

 C    0.0254444022    1.4962946523   -0.0196504305
 C   -0.0103923452    0.0029597459    0.0003416176
 C   -1.0971915056   -0.7744344111    0.1068310131
 C   -0.7512075691   -2.2105469603    0.0986862147
 C   -1.4781160966   -3.3145692547    0.7536319826
 O   -1.5274661970   -3.1562198054   -0.6567823214
 C    0.7622103935   -2.2660848501   -0.0696155829
 O    1.4229748219   -3.2660084885   -0.1571885297
 C    1.2589761134   -0.8162666273   -0.1010995492
 H    0.6250960641    1.8888221274    0.8113851352
 H    0.4949688808    1.8638896633   -0.9409092049
 H   -0.9778772679    1.9245721706    0.0492140909
 H   -2.1175214287   -0.4180878499    0.1863833192
 H   -0.9066797047   -4.1718076793    1.1067822734
 H   -2.4009280535   -3.0941498151    1.2896466807
 H    1.8302680118   -0.6192889059   -1.0174510180
 H    1.9514379105   -0.6412120817    0.7328117492