15

 N   -0.0433720925   -1.1466710063    0.0724989674
 C   -0.0543750699    0.0092426812    0.0440534793
 C   -0.0845215825    1.4457948349   -0.0034800887
 N   -1.0469744372    2.2257528479    0.8178126914
 C   -0.6692126107    3.3625108114   -0.1005560823
 C    0.7492174425    3.6453427411    0.4252734191
 C    1.2797862535    2.2882126450   -0.0639567740
 O    1.1333374185    2.4212570173   -1.5077156374
 C   -0.2637238799    2.3282539172   -1.2621919143
 H   -1.9820473347    1.8957681225    0.5755664308
 H   -1.3827364808    4.1726669571   -0.2245676399
 H    1.2753446629    4.4573371148   -0.0784407655
 H    0.7486057644    3.7801439903    1.5070735914
 H    2.2398014025    1.8907512411    0.2543705377
 H   -0.9014430458    2.1343944245   -2.1229321750