21

 C    0.6507849054    1.2107106150    0.1709470395
 C    0.0334474526   -0.1576184534    0.0550161403
 C    0.0981973077   -0.8727503386   -1.0741031488
 C   -0.5288413074   -2.2247331728   -1.2902735564
 C   -1.0103279093   -2.9097621122   -0.0237000807
 C   -0.0367396743   -3.1754927665    1.0987570574
 O    1.3256534729   -2.8772965269    1.0039519567
 C   -1.0938702503   -2.1122027537    1.2738348927
 C   -0.6972747946   -0.6470803146    1.2847971514
 H    1.3947217914    1.2436766650    0.9770119639
 H    1.1387635593    1.5162180696   -0.7583266055
 H   -0.1081304260    1.9636742094    0.4202564961
 H    0.6156378035   -0.4485333002   -1.9327721145
 H   -1.3771126819   -2.1084802667   -1.9801563246
 H    0.1834153271   -2.8753845785   -1.8177107335
 H   -1.7748177402   -3.6638432526   -0.1874796169
 H   -0.1593959256   -4.0973537601    1.6583270077
 H    1.4262398537   -2.0857031641    0.4607345782
 H   -1.9118049146   -2.3538189283    1.9468193768
 H   -0.0829890249   -0.4355644647    2.1724764883
 H   -1.6001147545   -0.0314810348    1.4084026218