17

 N    0.0148975662   -1.1552111322   -0.0396549389
 C    0.0133065707    0.0013224636   -0.0420561529
 C    0.0292237529    1.4476816594   -0.0135417222
 C   -0.2860888032    2.3023646964    1.2741070487
 N    0.4777265412    3.4062264732    0.5503946632
 C    1.3400793340    2.2768721907    0.0371077304
 C   -0.4839703719    3.6231525805   -0.5718324404
 C   -0.1762882746    3.1879970909   -1.9781032040
 C   -0.8447696828    2.2197777357   -1.0315254379
 H   -1.3332352170    2.5260145168    1.4853882877
 H    0.2424365661    1.9779533486    2.1728914714
 H    2.0136334916    1.9450277400    0.8273956110
 H    1.9081763587    2.4609571478   -0.8719462011
 H   -1.2135292698    4.4003772128   -0.3831272105
 H   -0.8378659406    3.6122873651   -2.7274907992
 H    0.8317085660    3.0419230039   -2.3449591041
 H   -1.8553918277    1.8718041268   -1.2039934812