20

 C    0.4671504827    0.6002390030   -1.3410355403
 C   -0.0046426395    0.0336940590   -0.0048175657
 O    0.1038182833    1.0276642976    1.0391080078
 C   -1.4145980596   -0.5250344383   -0.0754393826
 C   -1.7240482853   -2.0117988297    0.0845608906
 C   -0.6477521777   -3.0610051203    0.2580568866
 C   -2.0444860122   -1.0462170308    1.1979733862
 O   -1.2588504156   -1.0802724141    2.3507746631
 H    1.4752959623    1.0126329532   -1.2483663488
 H    0.4741745058   -0.1794118879   -2.1093816219
 H   -0.2020966261    1.3988807481   -1.6843770918
 H    0.6921098073   -0.7436053382    0.3169787961
 H   -0.5144624888    1.7368478610    0.8280222699
 H   -2.0714927222    0.0236557532   -0.7482196002
 H   -2.5822915735   -2.3439464920   -0.4938491446
 H    0.0381669780   -2.7917869048    1.0637114639
 H   -1.1016134431   -4.0198476544    0.5292056206
 H   -0.0722700864   -3.2151882791   -0.6614868177
 H   -3.0931160508   -0.8112009548    1.3803737026
 H   -0.7576910087   -0.2510934206    2.3630851362