18

 C    0.4623493864    1.4577976512    0.0443872758
 C    0.3064868587   -0.0638378442   -0.0549494483
 N   -1.0954540912   -0.4242158167    0.0045514759
 C   -1.7229390422   -1.0362373841   -0.9235674160
 N   -3.0630445985   -1.3470398903   -0.8096362147
 C   -3.8677375896   -1.0568689465    0.2709155669
 N   -5.0956441905   -1.3920583840    0.2647651763
 C   -1.1715163691   -1.5109361892   -2.2490059529
 O   -1.8571645692   -2.0879402467   -3.0587841362
 H    1.5202209739    1.7307756806    0.1053084892
 H    0.0288765283    1.9510745480   -0.8311695202
 H   -0.0502413221    1.8350099176    0.9332697174
 H    0.8461461603   -0.4293858664   -0.9387301759
 H    0.7912469566   -0.5242570991    0.8159533326
 H   -3.4783817838   -1.8316415794   -1.5951299263
 H   -3.3270819016   -0.5373137163    1.0644327962
 H   -5.5398999692   -1.1044883615    1.1345985630
 H   -0.1084045072   -1.2993974930   -2.4459695127