16

 O    0.0979217139    1.3838658973   -0.1811642176
 C    0.0190994158    0.0015558754   -0.0404814208
 C    0.7506672204   -0.7070044954   -1.1898903260
 O    0.1116639002   -1.9605126364   -1.3667761498
 C   -1.2793702885   -1.7540303005   -1.1486983211
 C   -1.3612945203   -0.7737126883    0.0155638091
 N   -0.9168791936   -1.2893174221    1.3157151868
 C    0.2788789267   -0.6185664141    1.3620895813
 O    1.1521477425   -0.5325498064    2.1838132006
 H    0.1093865876    1.7856891926    0.6938441548
 H    0.6606969591   -0.0680231054   -2.0833517544
 H    1.8079628889   -0.8886192196   -0.9855091144
 H   -1.7604999133   -1.3088148759   -2.0352239457
 H   -1.7368281780   -2.7282335129   -0.9550464171
 H   -2.2685926385   -0.1678850491    0.0543921499
 H   -1.2709761530   -2.0387582692    1.8923704246