18

 O   -0.0185543468   -0.0608692950    0.0134158699
 C   -0.0253078648    1.1452759539    0.0290054221
 C   -1.2948319366    1.9767952294    0.0864793995
 C   -1.7174106586    2.4570902700   -1.3211314796
 C   -0.7242074061    3.3964414459   -2.0198585441
 C    0.6691242047    2.7928456284   -2.2595736090
 N    1.5097651289    2.7225011131   -1.0662631928
 C    1.3002563139    1.9355814896    0.0227949841
 O    2.0593357882    1.8647483250    0.9690997470
 H   -2.0824778682    1.3490147315    0.5116115007
 H   -1.1374333072    2.8412842848    0.7430032942
 H   -1.8855130232    1.5746028775   -1.9512489796
 H   -2.6840260881    2.9636976985   -1.2320244302
 H   -1.1428509504    3.6742551440   -2.9943386441
 H   -0.6098686822    4.3250353505   -1.4472724504
 H    0.5709392493    1.7974501642   -2.7141794324
 H    1.2114656503    3.4092209951   -2.9803759818
 H    2.3789480769    3.2366310635   -1.0530535634