19

 O   -0.2905394292    1.1247297918    1.2840692249
 C   -0.0936837673    0.1405149838    0.2675379609
 C    0.9042211868   -0.9635722670    0.6897337961
 C    0.0701191937   -2.0414461625    1.3655754106
 C   -0.9275142416   -1.6068430351    2.4093005385
 C   -1.3772789826   -1.8156367041    0.9796655876
 C   -1.4411381306   -0.6044495337    0.0519029473
 C   -2.6543473279    0.2817712933    0.2706431636
 O   -3.3897488817    0.6430616126   -0.6133347948
 H    0.5437088331    1.5851500333    1.4173698743
 H    0.2197060364    0.6347102707   -0.6606952328
 H    1.3930089839   -1.3785044803   -0.1999232454
 H    1.6932772115   -0.5484640547    1.3287197640
 H    0.4767538165   -3.0447874177    1.4238407104
 H   -1.2436594199   -2.3548666188    3.1283886018
 H   -0.8651842078   -0.5978213777    2.7976599315
 H   -2.0381789946   -2.6473046000    0.7631996819
 H   -1.4827437813   -0.9436181383   -0.9883938120
 H   -2.8390210073    0.5639538841    1.3268255515