17

 N    0.0151214250   -1.1421700691    0.0062946603
 C   -0.0261587480    0.0151164140    0.0407367593
 C   -0.0359872599    1.4359957383    0.0838429192
 C   -1.1341233727    2.2035149200    0.0350050281
 C   -0.8004486828    3.6682417913    0.0713549174
 C    0.7058471748    3.6805140760    0.3755007002
 C    1.5366827854    4.8930851309    0.2020257531
 N    1.2246237857    4.3900903100    1.5539186904
 C    1.2370822513    2.2576187974    0.1605866194
 H   -2.1462698531    1.8258078907   -0.0430325220
 H   -1.0341168965    4.1429867559   -0.8921563989
 H   -1.3817475929    4.2100408650    0.8290449988
 H    2.5800000129    4.8025723497   -0.0894910823
 H    1.0500725572    5.8017020300   -0.1454848324
 H    0.4930154503    4.9586811118    1.9747925295
 H    1.8903147069    1.9560137035    0.9844203262
 H    1.8140676566    2.1622786347   -0.7678163564