16

 O    0.1207433741    1.3747451390    0.2546793126
 C   -0.0149194675   -0.0083329746    0.1141458937
 C   -0.4414050929   -0.8713950680    1.2624795305
 C   -1.4755457271   -0.1199004466    2.1065924286
 C   -2.4162109205   -0.0246583842    0.8458247971
 C   -2.8898848959    1.2755954932    0.3953865022
 C   -3.2708914035    2.3492104981    0.0050016385
 C   -1.3282984812   -0.7226143970    0.0052919803
 H   -0.6265794413    1.8045426916   -0.1766925461
 H    0.7658513744   -0.4517299472   -0.5032671282
 H    0.1371932980   -1.7247654330    1.5939452690
 H   -1.9241320720   -0.7175863405    2.9008896001
 H   -1.1335611127    0.8351437278    2.5090720781
 H   -3.2721519459   -0.6919332828    0.9811750571
 H   -3.6227461067    3.2947181016   -0.3270713026
 H   -1.5416821993   -1.4216315474   -0.7950517008