19

 N    0.8814000891   -0.1659111547    0.7816158890
 C   -0.0166643569    0.2815004164   -0.1442779950
 O    0.2007856879    1.2409134858   -0.8596118745
 C   -1.3149527661   -0.5023552506   -0.1420525286
 C   -2.0924819392   -0.8243172967   -1.3601455837
 C   -1.4397528794   -0.6933470365   -2.7279289360
 C   -0.1146704807   -1.4805087644   -2.6037430515
 C   -0.3491749225   -2.4384891632   -1.4093121372
 N   -1.4549273116   -1.9128424403   -0.5796537613
 H    1.7421971660    0.3415808539    0.9068742147
 H    0.6718216703   -0.9355241328    1.3933797143
 H   -1.8786391718   -0.3157738857    0.7727451556
 H   -3.1768537749   -0.7722351231   -1.3080073217
 H   -2.1006790655   -1.1442643460   -3.4755413467
 H   -1.2714696585    0.3487381230   -3.0064338417
 H    0.1279483611   -2.0290725981   -3.5173614337
 H    0.7130228544   -0.7978102068   -2.4074664261
 H   -0.6736428310   -3.4251993335   -1.7563052088
 H    0.5494478794   -2.5855259967   -0.8021027071