19

 C   -0.0826681066    1.5785317777    0.0605280384
 C    0.0907675297    0.0734494115    0.0748436747
 C    1.3552567919   -0.6832150105   -0.2160546347
 C    2.6023907188   -0.0438574494    0.3783217032
 O    3.0061793405    1.1551980324   -0.2508037033
 C    1.9260158837    0.0122289959    1.7903305469
 C    0.7078590588   -0.7269383352    1.2044945034
 C    0.0369804160   -1.8061335951    1.8437670774
 C   -0.5220179473   -2.7163648666    2.4002752133
 H    0.8193352332    2.1036184264    0.3731277457
 H   -0.3138689913    1.9149016186   -0.9558145265
 H   -0.9137818339    1.8771291150    0.7089771156
 H   -0.7687847207   -0.4561364187   -0.3318197001
 H    1.3757477231   -1.4772703934   -0.9529598939
 H    3.4262544494   -0.7691813953    0.3899862151
 H    3.8338747155    1.4408560988    0.1491991140
 H    2.4592068753   -0.5737298235    2.5407826476
 H    1.7258175465    1.0106743882    2.1879404718
 H   -1.0192055526   -3.5180766068    2.8867660113