20

 C   -0.6905987799    0.7236723618    0.0667891349
 O   -0.0307242198   -0.4953624584   -0.1877242185
 C    0.9563405598   -0.4289710454   -1.1994923633
 C    1.7569263813   -1.7365519587   -1.1441932159
 C    0.8770697736   -2.7409935006   -1.9040828831
 N    0.1439915912   -1.8961713396   -2.8520972519
 C    0.3498538535   -0.4701192581   -2.6164078534
 C   -0.7131489281   -2.4201437079   -3.7591852135
 O   -0.9099535545   -3.6091133152   -3.9167247179
 H    0.0200053470    1.5155442790    0.3506663093
 H   -1.2735971587    1.0792153453   -0.7958998690
 H   -1.3772037782    0.5493122625    0.8982887236
 H    1.5837070583    0.4627096842   -1.0577719738
 H    2.7141857929   -1.5974468853   -1.6562473633
 H    1.9550102606   -2.0357408017   -0.1141093577
 H    1.4491254432   -3.5070784126   -2.4337751263
 H    0.1740377501   -3.2532757772   -1.2386197574
 H   -0.5890989279    0.0864695534   -2.6859181472
 H    1.0545878555   -0.0332285921   -3.3384706509
 H   -1.2240158799   -1.6373733934   -4.3567502046