18

 O   -0.0759884716    0.5962971835    1.4333756556
 C   -0.1243064829    1.3733914721    0.5074981777
 C   -1.4533203994    1.9511739643    0.0291914526
 C   -1.6428920039    2.0062869594   -1.4989662053
 C   -0.9807567738    3.2138974296   -2.1800966419
 C    0.4468074904    3.4765565516   -1.6783827974
 O    1.1624199271    2.2674948272   -1.4727565633
 C    1.1989349537    1.8193141812   -0.1389160721
 H   -2.2273260050    1.3427979209    0.5039616759
 H   -1.5471489240    2.9624410209    0.4527466690
 H   -1.2532431778    1.0834157611   -1.9404278082
 H   -2.7155378602    2.0211339681   -1.7178395048
 H   -0.9657421274    3.0433089517   -3.2619593885
 H   -1.5765752551    4.1208415383   -2.0144142984
 H    1.0062536565    4.0639493921   -2.4148350689
 H    0.4294999764    4.0621342652   -0.7471845322
 H    1.6216713755    2.5948259015    0.5257921197
 H    1.8766407612    0.9627553012   -0.1051752197