16

 C    0.0200466251    1.5567250892    0.0677347590
 C   -0.0068581156    0.0301954236    0.0256898952
 O    0.6913168360   -0.5373156990    1.1321591261
 C   -1.4370765991   -0.5201907718   -0.0664633491
 C   -1.4474250346   -2.0593330406   -0.1287504769
 C   -2.7968108262   -2.6159520083   -0.1088689753
 N   -3.8723701119   -3.0385837443   -0.0904066907
 H    1.0500281649    1.9144694020    0.1444943547
 H   -0.4326180604    1.9874481540   -0.8308173869
 H   -0.5398630100    1.9313647499    0.9340035729
 H    0.5573801861   -0.3131251281   -0.8512596420
 H    0.3275437265   -0.1525505330    1.9379237794
 H   -2.0118257824   -0.1873367350    0.8072689201
 H   -1.9387146807   -0.1074699789   -0.9483976179
 H   -0.9399115408   -2.4056494949   -1.0369019816
 H   -0.8788211271   -2.4561093148    0.7180284132