19

 O    0.0050579963    1.4156171475    0.0877456727
 C   -0.0134555046    0.0037397993   -0.0121469424
 C   -1.4242360748   -0.4855088622   -0.0449680592
 C   -2.5317594901    0.2578331210   -0.0165695649
 C   -3.7887397056   -0.5733447226   -0.0483107363
 C   -3.2563200682   -1.9913452949   -0.2839517630
 C   -4.0684227892   -3.2029272975   -0.1504128290
 O   -3.7455703853   -2.6796019841   -1.4418402029
 C   -1.7354702560   -1.9643678793   -0.0965562129
 H    0.9212573196    1.7050357116    0.0664459508
 H    0.5092215326   -0.3428018831   -0.9218725725
 H    0.5132139761   -0.4669538159    0.8382260321
 H   -2.5364411234    1.3385985766    0.0383271844
 H   -4.3512566044   -0.4976735383    0.8927440774
 H   -4.4789819145   -0.2932483385   -0.8526246908
 H   -3.5930248888   -4.1506063309    0.1037255447
 H   -5.1164743354   -3.1240525869    0.1391233650
 H   -1.2448607392   -2.4874733351   -0.9265514533
 H   -1.4261184751   -2.4738104467    0.8272206302