22

 C    0.3366183182    1.3916746048    0.6424179801
 C    0.0969350149   -0.0403867597    0.1575880916
 C    1.0188326070   -0.4229975219   -1.0015621606
 N    0.7779675609   -1.8194653894   -1.3776533569
 C   -0.2232569988   -2.1053966385   -2.3742795224
 C    1.2279375965   -2.3411267843   -2.6837938539
 C    1.8856350004   -1.4703606247   -3.7160764715
 C    3.0806136137   -2.0860491136   -4.4192222522
 O    1.4976861450   -0.3489904208   -3.9733455011
 H    1.3635333076    1.5238341530    1.0012041418
 H    0.1726844667    2.1168830985   -0.1621203042
 H   -0.3375036871    1.6484803007    1.4650498978
 H    0.2438286990   -0.7511982197    0.9787357598
 H   -0.9460988030   -0.1517795073   -0.1650540893
 H    0.8847481563    0.2707355793   -1.8409293211
 H    2.0654130822   -0.3485250244   -0.6802288524
 H   -0.8677100017   -2.9605406642   -2.1861491909
 H   -0.6810402591   -1.2684964067   -2.8995688749
 H    1.6204969936   -3.3536301177   -2.6226883746
 H    2.7965851733   -3.0319063799   -4.8951683374
 H    3.4676810593   -1.3959117620   -5.1692188346
 H    3.8659308951   -2.3232900115   -3.6919406133