21

 O    0.0802338251    1.4311059015    0.0448027921
 C   -0.0227080768    0.0343479465    0.0467570734
 C   -0.4381216265   -0.6695609986    1.3054617444
 C   -1.1286448913    0.1355385596    2.4018162638
 C   -2.2778518055    0.9081726259    1.7076073407
 C   -2.5868150718    0.1116691656    0.4346793235
 C   -3.9422674870   -0.5202693684    0.2283146449
 C   -3.5144181307    0.6514642490   -0.6250867817
 C   -1.3540596956   -0.6835754392    0.0863940460
 H   -0.3067229118    1.7542826257   -0.7755006858
 H    0.7564377675   -0.4648894176   -0.5310701113
 H    0.1275288843   -1.5471349187    1.6000137099
 H   -1.5272699085   -0.5644510999    3.1445870786
 H   -0.4437202487    0.8095346806    2.9253484401
 H   -3.1567358760    1.0100261075    2.3515203048
 H   -1.9365803829    1.9113907718    1.4447039126
 H   -3.9919310758   -1.4997150521   -0.2369093631
 H   -4.7017034668   -0.3491477667    0.9845698328
 H   -3.9891233418    1.6117905502   -0.4490764162
 H   -3.2771136075    0.4587862403   -1.6667882563
 H   -1.4756859120   -1.5657991130   -0.5346712534