17

 C   -0.3446148403    1.2981687546   -0.8717839225
 C   -0.0672062444    0.0414759633   -0.0792877236
 C    1.1354705503   -0.7656010026   -0.3700169920
 O    1.0828930445    0.0775574370    0.7825374844
 C   -1.2473712447   -0.6195526767    0.5349775958
 C   -1.3151035216   -1.2298871762    1.7617585254
 N   -2.6113112456   -1.6829498017    1.8675867766
 C   -3.2606944978   -1.3279282983    0.7237813461
 N   -2.4689788799   -0.6834890828   -0.1016273718
 H    0.5777614884    1.6900166288   -1.3071725182
 H   -1.0627314049    1.0852646735   -1.6677686556
 H   -0.7806235437    2.0667267151   -0.2258699983
 H    1.1224273876   -1.8354028001   -0.1679103684
 H    1.8228905929   -0.4440442548   -1.1522910209
 H   -0.5857837096   -1.3608987836    2.5417793095
 H   -3.0070702663   -2.1693899694    2.6543251239
 H   -4.3005423447   -1.5632511760    0.5525539497