17

 O    0.3288296089    1.2684019413   -0.3914243671
 C    0.1053776426   -0.0709209349   -0.0037078615
 C   -1.3752473826   -0.3368481954    0.2601968230
 N   -2.1164078685   -0.0033589954   -0.9584006389
 C   -2.4708786928   -1.0906051538   -1.8554203366
 C   -3.5338456832   -0.3908730981   -1.0586404906
 C   -4.2007884189   -1.0751512975    0.0151158853
 C   -4.7819113785   -1.6135537996    0.9202344665
 H   -0.3726995450    1.4706760642   -1.0242205440
 H    0.4715018080   -0.7785389855   -0.7678008551
 H    0.6825917051   -0.2488181101    0.9099481904
 H   -1.5335186490   -1.3754560079    0.5874042867
 H   -1.7279792664    0.3265308407    1.0568191350
 H   -2.3810497845   -0.8894330066   -2.9192446414
 H   -2.2233517663   -2.1056762262   -1.5508915478
 H   -4.1457747925    0.3502718950   -1.5680392227
 H   -5.2937447364   -2.0968670502    1.7154537688