17

 O    0.3383272089    0.8745678685    1.1048799683
 C    0.0872028071    0.0184753110    0.0002898242
 C   -1.2922331291   -0.6108036999    0.0498557211
 C   -1.5838085825   -2.0517592897   -0.2002474644
 N   -1.7983249920   -1.4059023518    1.1794120140
 C   -0.6330880792   -2.2176463840    1.7080074657
 C   -0.5133608114   -2.9099465604    0.3662654848
 N    0.0360910023   -3.9508615616   -0.1014057199
 O    0.9146410083   -4.5134217565    0.8415079272
 H   -0.3879645572    1.5032787545    1.1716920001
 H    0.1863134747    0.5520551059   -0.9577641842
 H    0.8757210305   -0.7363972432    0.0248669284
 H   -2.0827800115    0.0508633773   -0.3058806145
 H   -2.3984423129   -2.3841129118   -0.8338810692
 H    0.2013742714   -1.6188826473    2.0777417374
 H   -0.9735169372   -2.8968625245    2.4934905847
 H    1.2367701398   -5.2946976965    0.3793417363