19

 C    0.0246257818    1.5421750754   -0.1277279584
 O    1.3482675833    1.5518465366    0.4604725232
 C    1.4709440572    0.1140022853    0.3518065407
 C    1.1565738115   -0.6264067263    1.6676337900
 C   -0.3545578036   -0.6510151150    1.2711147911
 O   -0.9077011915   -1.9214009927    0.9790175105
 C   -0.6247031103   -2.2504493203   -0.3801088017
 C   -0.5985494214   -0.9134653127   -1.1433742857
 C   -0.0176886873    0.0156651063   -0.1009869373
 H   -0.7128731169    2.0753467188    0.4858329830
 H    0.0346244350    1.9800433577   -1.1354268351
 H    2.3402140851   -0.1836757819   -0.2429345846
 H    1.5803341390   -1.6334070696    1.7213460415
 H    1.4126832373   -0.0734169470    2.5738133505
 H   -1.0388035304   -0.1314788621    1.9477383628
 H    0.3496645418   -2.7576819416   -0.4651875033
 H   -1.3974583763   -2.9434178419   -0.7226041732
 H   -0.0121991590   -0.9659125532   -2.0651050812
 H   -1.6170448753   -0.6009162158   -1.4027691527