19

 C    0.0419363082    1.5286192535    0.0834380064
 C    0.0339590337    0.0239217591    0.0472732698
 C    0.7879841621   -0.7112002801   -1.0919429474
 C    0.5569496219   -2.1827811174   -0.6235515601
 C   -0.2646632380   -1.8737595702    0.6480944033
 N    0.4337768033   -0.7216431570    1.2885022985
 C   -1.2906829223   -0.8263241593    0.1137318757
 C   -2.2675285806   -0.3620968844    1.0806406288
 N   -3.0813153702    0.0138137244    1.8110718710
 H    1.0662998497    1.9018913619    0.1927616393
 H   -0.3664680488    1.9426421794   -0.8444463424
 H   -0.5502419716    1.9000576993    0.9233483689
 H    0.3728833375   -0.5014607381   -2.0820177508
 H    1.8439672279   -0.4253523080   -1.1058997361
 H    0.0117912671   -2.7900785787   -1.3516149711
 H    1.4854832293   -2.7058033687   -0.3789739946
 H   -0.5768850779   -2.6975591171    1.2887122542
 H    1.4424789235   -0.8561677992    1.3715753240
 H   -1.7797800548   -1.0522473891   -0.8364732973