11

 N    0.0627797630   -1.1177237903   -0.0857610021
 C   -0.0033822933    0.0334775527   -0.0234490602
 C   -0.0802829165    1.4665545097    0.0550174440
 N   -1.1523413656    2.1326368140   -0.0760673789
 C   -0.7600810705    3.5441189228    0.0765586499
 C    0.7721424279    3.5087839753    0.3220420906
 O    1.0975700569    2.0939537645    0.2848140650
 H   -1.0330005578    4.0959835722   -0.8280202083
 H   -1.3140430527    3.9861873000    0.9102207734
 H    1.3544159791    4.0069974268   -0.4564588245
 H    1.0705330596    3.8954914523    1.2991581011