20

 C    0.1955945636    1.6302266675    0.0541488829
 C   -0.0490836694    0.1292594739   -0.0040942352
 C    0.5162693422   -0.5015584734   -1.3018047521
 C    1.0562260667   -1.9184841122   -1.1780120803
 C    1.5212895651   -2.4333967897    0.1200460873
 C    0.5890998911   -1.8353537649    1.1783098781
 C   -0.5463712068   -2.6415521786    0.4810137677
 N    0.3680749278   -3.1069293459   -0.6132991178
 O    0.5221595606   -0.4253829230    1.1797421919
 H    1.2696782793    1.8406742543    0.0540985396
 H   -0.2584162218    2.1258494341   -0.8096817242
 H   -0.2376869734    2.0520939569    0.9649977451
 H   -1.1351783490   -0.0412895578    0.0244629772
 H   -0.2459210837   -0.4446819533   -2.0881519185
 H    1.3617272775    0.1067682534   -1.6487911853
 H    1.6425166670   -2.2259950713   -2.0405834622
 H    2.4758537506   -2.9200303670    0.2883416368
 H    0.7898881870   -2.1341559845    2.2078224563
 H   -0.8480426901   -3.5071307388    1.0752304143
 H   -1.4444701343   -2.1185096395    0.1444845286