20

 C   -0.4851127665    0.9943756129   -0.0308047002
 O    0.3279199293   -0.1606898810   -0.0459954627
 C    0.9927163479   -0.3839363929    1.1626731023
 C    0.1614350043   -1.0193634670    2.3266517717
 N    1.0806054183   -2.1545607747    2.2876424551
 C    1.8350076711   -1.6829584058    1.1238638894
 C    0.9617130847   -3.3523909175    2.9220834798
 C    1.9888719478   -4.3986650639    2.5186756770
 O    0.0927767509   -3.5459925208    3.7548305585
 H    0.1041119977    1.8995648286    0.1824187648
 H   -0.9324011816    1.0868350987   -1.0226965080
 H   -1.2901016389    0.9212481854    0.7151855722
 H    1.5571941717    0.5068769750    1.4707734368
 H    0.1503895432   -0.4826621670    3.2799805376
 H   -0.8650278513   -1.2792308226    2.0442618510
 H    1.6618435581   -2.2564188767    0.2058127075
 H    2.9119652944   -1.5687504654    1.2864142293
 H    3.0097696314   -4.0126781195    2.6037633018
 H    1.8715513630   -5.2672732135    3.1658967870
 H    1.8398625347   -4.7060379922    1.4775680588