17

 N    0.1112571708    1.1232955696    0.6625471959
 C   -0.0690320999    0.2111856897   -0.3331999667
 O    0.7585348016    0.0185952740   -1.2041611138
 C   -1.3755454638   -0.5755071114   -0.2688581692
 C   -2.0372714990   -0.7155933004   -1.6627688776
 N   -2.7015898882   -2.0039933709   -1.5717244929
 C   -2.2107901585   -2.8409064251   -0.6050915289
 O   -2.5390588584   -3.9904403838   -0.4170729988
 C   -1.1544399067   -2.0410246907    0.1661887735
 H    0.9876568762    1.6178510791    0.7042374382
 H   -0.5514604835    1.2485426619    1.4068610405
 H   -2.0832796707   -0.0984032180    0.4167788469
 H   -2.7522148078    0.0896041724   -1.8584311082
 H   -1.2632006620   -0.6965914344   -2.4389881966
 H   -3.2885033450   -2.3725838077   -2.3032403594
 H   -0.1685113309   -2.3948046193   -0.1550868484
 H   -1.2428224842   -2.2102215149    1.2401763655