21

 C   -0.2551034647    1.6321229459   -0.1363104120
 C   -0.0711287380    0.1168641265    0.0036426490
 C    0.7395716804   -0.4910589379   -1.1437988818
 C    2.2667708777   -0.1488418556   -1.1586120830
 C    2.8621297283   -1.5626116323   -1.2944118822
 O    2.7889864510   -2.2124506005   -0.0244729366
 C    1.4152232479   -2.6237289892    0.0825585331
 C    0.8133925894   -2.0395146944   -1.2076978265
 O    1.9216414311   -2.2440551543   -2.1036707161
 H    0.7091277769    2.1509661515   -0.1449725458
 H   -0.7737762757    1.8821530512   -1.0684395628
 H   -0.8433179809    2.0377046071    0.6924113608
 H    0.4161659487   -0.0991644370    0.9621591188
 H   -1.0585663312   -0.3626410689    0.0445742720
 H    0.2936312853   -0.1635223796   -2.0894238574
 H    2.5439753681    0.4855771678   -2.0042161476
 H    2.6071456986    0.3286708358   -0.2365218903
 H    3.8704645156   -1.6577498752   -1.6963324203
 H    1.3555999234   -3.7183838377    0.0953362875
 H    0.9713859276   -2.2310345021    1.0019821793
 H   -0.0767290294   -2.5430820009   -1.5833939885