23

 C   -0.0597931917    1.5872721826    0.1008773230
 C    0.0561100810    0.0595427027    0.0345627904
 C    0.7321243123   -0.4878978876   -1.2413385451
 C    2.1998312984   -0.0339028955   -1.3103204419
 C    0.5950098450   -2.0321148586   -1.3489426602
 C   -0.8710079202   -2.4861154615   -1.4546848086
 C    1.3811374931   -2.6154496987   -2.5353267344
 H    0.9158251087    2.0793997157    0.1499864421
 H   -0.5864075543    1.9807580735   -0.7762099228
 H   -0.6225089565    1.8941046595    0.9884136351
 H    0.6101129687   -0.3039907728    0.9116745043
 H   -0.9520358634   -0.3564707399    0.1210722257
 H    0.2058721554   -0.0558397949   -2.1076896568
 H    2.6635832884   -0.2863178031   -2.2665670420
 H    2.2886133331    1.0488114356   -1.1884542346
 H    2.7921038420   -0.5052839254   -0.5158276010
 H    1.0164363441   -2.4618595506   -0.4270793677
 H   -0.9285731056   -3.5747250603   -1.5575226684
 H   -1.4666095558   -2.2120337604   -0.5807856597
 H   -1.3513944404   -2.0471320304   -2.3378587827
 H    2.4593496872   -2.4707091699   -2.4360032480
 H    1.2017074092   -3.6922848388   -2.6202975762
 H    1.0658858413   -2.1548822811   -3.4799890806