18

 C   -0.1007237431    1.4857125902   -0.0505181823
 N    1.2193430248    0.8366517909   -0.0447492166
 C    0.0077463960    0.0058654109    0.0461376960
 C   -0.2083977639   -0.7374550292    1.3216886001
 C    0.2374059521   -0.1656700170    2.6673708546
 C    0.4686463408   -1.4023079664    3.5102444395
 C    0.2708842873   -2.5306330595    2.8235579036
 C   -0.1748753289   -2.2107638046    1.4359241791
 O   -1.4303329505   -1.4862507908    1.3857064404
 H   -0.3210095642    2.0736603016    0.8358382006
 H   -0.4789177943    1.9068056619   -0.9781014262
 H    1.6027210606    0.7976277453   -0.9846151079
 H   -0.2951198756   -0.5581795921   -0.8335458656
 H    1.1499423340    0.4297192624    2.5462224544
 H   -0.5289117492    0.4876487404    3.1015684696
 H    0.7361709040   -1.3437248907    4.5593641646
 H    0.3796613430   -3.5396498788    3.2009530596
 H   -0.0003217628   -2.8776347745    0.5961453366