17

 C   -0.0019089545    1.5055400390   -0.0084090065
 C    0.0395645913   -0.0172756387   -0.0107165457
 O   -1.2530976574   -0.5774641772   -0.1214646480
 C    1.0677453272   -0.6412466784   -1.0009489240
 O    2.3000255411    0.0436390778   -0.6223899974
 C    2.2359930772   -0.7464826723    0.5674415278
 C    1.5038149618   -1.9011212867   -0.1130813139
 O    0.5856139313   -2.0741993845    0.9615946559
 C    0.7670205835   -0.6536512443    1.2025909759
 H    0.9972234221    1.9337435989    0.0781125606
 H   -0.4437476461    1.8794065814   -0.9408308468
 H   -0.6213590733    1.8558819573    0.8229853510
 H   -1.7252714743   -0.0791640632   -0.7965410960
 H    0.8668319030   -0.6533947752   -2.0709412455
 H    3.1292822634   -0.7693413659    1.1883916018
 H    1.9108854587   -2.8055300497   -0.5601519167
 H    0.5260163450   -0.3350597681    2.2149160876