18

 C    0.0537533501    1.3746741341   -0.3298268531
 C   -0.0352156391   -0.0824585799   -0.0505695110
 C   -0.6767031118   -1.1145211371   -0.6606875539
 C   -0.3748974603   -2.3043805072    0.0961426311
 C    0.4347968072   -1.8867509493    1.1063192144
 O    0.6480065251   -0.5430047652    1.0354755805
 C   -0.8167890114   -3.6888345780   -0.1568802274
 C   -2.1017138731   -3.9702302625   -0.8545226684
 N   -0.8263395084   -4.2383388619   -1.5324911590
 H    1.0889315606    1.6866237556   -0.5089490886
 H   -0.5357146520    1.6200152438   -1.2158376856
 H   -0.3253587390    1.9678916271    0.5099694355
 H   -1.2963525231   -1.0362167373   -1.5414904851
 H    0.9180086184   -2.3992330343    1.9217608507
 H   -0.4750521576   -4.4094717394    0.5820491023
 H   -2.6765814535   -4.8545206881   -0.5930373336
 H   -2.7000272206   -3.1189078791   -1.1684255853
 H   -0.6176582216   -3.4890264514   -2.1888144434