14

 C   -0.0410229842    1.5740118186   -0.0728584306
 C    1.5110086219    1.3550004072   -0.0053022421
 N    1.1684160004    0.1993389416    0.9108817382
 C   -0.0277782428    0.0070327813    0.0028894643
 C    0.6497422602   -0.3066454459   -1.3170801811
 N    0.6965792313   -1.0447810598   -2.3714041130
 O    1.8189202302   -0.5674174526   -3.0663744151
 N    2.4439681713    0.4860251635   -2.3807484286
 C    1.7248174677    0.6351442347   -1.3228152099
 H   -0.4210761627    2.0134737925    0.8494503722
 H   -0.4600269035    2.0469333996   -0.9609786736
 H    2.2108548144    2.1066332266    0.3486979891
 H    1.8403021706   -0.5679672373    0.8603334311
 H   -0.8628317448   -0.5858995200    0.3650628491