23

 C   -0.0128799820    1.5666831934    0.0132601676
 C    0.0306514060    0.0359344650   -0.0079312737
 C    0.7178867164   -0.4999802066   -1.2752236121
 C    0.7672219719   -2.0360980955   -1.2974490784
 C    1.4094386681   -2.6200099871   -0.0355415542
 O    2.8265857967   -2.4016992343    0.0188436470
 C    0.7595904695   -2.0698846575    1.2470303842
 O    1.4326596469   -2.5738605097    2.3859891680
 C    0.7232291852   -0.5333169354    1.2419227326
 H    0.9996113646    1.9880724376    0.0204103994
 H   -0.5311958144    1.9630988377   -0.8664101207
 H   -0.5308536009    1.9368821860    0.9040068093
 H   -1.0062780968   -0.3338762129   -0.0143215711
 H    0.2038733041   -0.1342662248   -2.1712490301
 H    1.7362415385   -0.0839042806   -1.3320170721
 H   -0.2560091291   -2.4265721442   -1.3720415711
 H    1.3093869474   -2.3985408459   -2.1774429552
 H    1.3089841512   -3.7102200854   -0.0328201832
 H    2.9975974931   -1.4755753660   -0.1822359612
 H   -0.2703266765   -2.4477496548    1.3001300390
 H    2.3688718913   -2.5781634070    2.1434653258
 H    1.7551111968   -0.1532982459    1.2933998057
 H    0.2291356717   -0.1887196260    2.1563282444