17

 C    0.1719190075    1.6412833153   -0.4238248751
 C    0.2333179844    0.1427035577   -0.2204171290
 C    1.4843483215   -0.6642968570   -0.3517481973
 O    2.6197345847    0.0513642824    0.1477221464
 C    2.0932909941   -0.0415600329    1.5079868016
 C    2.1773570816    1.2384859493    2.3156468964
 C    0.7747211783   -0.6161428609    0.9874652976
 H    1.1599964911    2.0887538664   -0.3024894641
 H   -0.1719457095    1.8676455564   -1.4390034518
 H   -0.5201103826    2.1223273207    0.2755458448
 H   -0.6260222652   -0.3954942892   -0.6194545694
 H    1.6684313165   -1.4657273763   -1.0588332155
 H    2.6500378979   -0.8343092421    2.0277983453
 H    1.5887443479    2.0469789928    1.8806602077
 H    1.8123847566    1.0537364577    3.3319968760
 H    3.2195220905    1.5669212126    2.3885423182
 H    0.1928629049   -1.3752708529    1.4938495682