21

 C    0.2446079061    1.2063996404   -0.9160562801
 C    0.5475937401   -0.2736972286   -0.6882516323
 C   -0.6554007111   -1.1201812373   -1.1232170613
 C    1.8806271642   -0.8756298231   -1.2738785757
 C    2.2363350072   -1.4070297529    0.1248646682
 C    2.4082799582   -0.2924877677    1.1375386579
 C    3.0890585751    1.0004673056    0.8774220816
 O    3.6402367274    1.6408617252    1.7420718064
 C    1.0100476705   -0.7339759054    0.7100463724
 H    1.0677160393    1.8600964630   -0.6205867096
 H    0.0327014754    1.3967484113   -1.9746464564
 H   -0.6392725632    1.5105934980   -0.3440263915
 H   -0.8690110916   -0.9716398888   -2.1873826806
 H   -0.4728076063   -2.1871062308   -0.9587664203
 H   -1.5530722980   -0.8424740179   -0.5589476021
 H    1.6890249884   -1.6755548431   -1.9924170709
 H    2.5862851873   -0.1754048025   -1.7282497706
 H    2.6414338537   -2.3899261489    0.3330104684
 H    2.6362373526   -0.6485688744    2.1394075005
 H    3.1055440899    1.3512463880   -0.1747174732
 H    0.3377747749   -1.0964048201    1.4808690693