11

 O   -0.0235019812    0.0248074883   -0.3029488622
 C    0.0808696119    1.1907944650   -0.1635023371
 C   -0.8811499245    2.4084866809   -0.0162582528
 O    0.2676724642    3.2776509688    0.0860150502
 C    1.2441348954    2.2213137977   -0.0419250101
 C    2.1135386216    2.0795257329    1.1186415328
 N    2.7922401692    1.9471233640    2.0440745710
 C   -1.7374812344    2.6966257394   -1.1593018008
 N   -2.4093770365    2.9053404551   -2.0755913539
 H   -1.4689336017    2.3901649707    0.9099032203
 H    1.8389111960    2.3175075171   -0.9587601375