14

 C   -0.0616645237    1.5113605407    0.0576147102
 C    0.0379257928   -0.0337112222   -0.0093089245
 C   -1.3837280548   -0.6148126942    0.0138843095
 O   -1.8791036411   -1.1273686770    0.9788865661
 C    0.7364457300   -0.4856243842   -1.2021253915
 C    1.2862805098   -0.8756110917   -2.2079147889
 C    1.9107979079   -1.3067490278   -3.3369545148
 C    2.4647210284   -1.6901955711   -4.3389785658
 H    0.9368416219    1.9527406475    0.0249218657
 H   -0.6341391476    1.9007827237   -0.7891572099
 H   -0.5536492712    1.8128495661    0.9861220941
 H    0.5430815059   -0.4039443964    0.8900692680
 H   -1.9363082645   -0.4943521671   -0.9437556759
 H    2.9526082362   -2.0267174664   -5.2200278623