12

 O    0.0196342491   -0.0687598000    0.0028953490
 C    0.0186802306    1.1363235878    0.0059856186
 C    1.2156732458    1.9445449345    0.0001092810
 C    2.2389736973    2.5752841123   -0.0050572437
 N   -1.1853629252    1.8715778019    0.0158847905
 C   -1.3979916804    3.2393212307    0.0207971562
 N   -2.6672764299    3.5062999223    0.0299797792
 N   -3.3508123783    2.2872975241    0.0313840480
 C   -2.4627132609    1.3411579723    0.0230103635
 H    3.1489878254    3.1265071126   -0.0095834767
 H   -0.5918721590    3.9545341903    0.0172641657
 H   -2.6428379244    0.2790080912    0.0214720587