18

 O   -0.3506176863    0.3500354660    1.3274664089
 C   -0.0314773695    1.2244272240    0.4919443556
 O    1.0631468247    1.6376915061    0.0925309119
 C   -1.2572711086    2.0468192685   -0.1012865225
 C   -2.6138610604    1.6288744898    0.4965333465
 N   -2.5811172840    2.8447942973    1.4112833918
 H   -3.4493472531    3.3566380060    1.5476548227
 C   -1.6533324204    2.8038689583    2.6375475965
 C   -0.5973972018    3.6599671501    1.8929473972
 C   -1.3995416284    3.4328038869    0.5982718952
 H   -1.1938320531    2.0979283641   -1.1861458129
 H   -3.4930457126    1.7064497711   -0.1473987018
 H   -2.5675807267    0.6905015790    1.0502923056
 H   -2.1433060923    3.2411094259    3.5072025831
 H   -1.3399019331    1.7725426799    2.8025958514
 H   -0.5885812407    4.7038230076    2.2134319413
 H    0.4136356759    3.2576342760    1.8615133250
 H   -1.6477327997    4.2924503034   -0.0249907153