21

 C   -0.0790333124    1.5729746949   -0.0056503019
 C    0.0462157231    0.0442268322    0.0303522032
 C   -1.3241368155   -0.6314587111    0.1822117507
 C    0.7706858771   -0.4775791428   -1.2122035829
 C    2.2696271682   -0.1068708192   -1.4814203300
 C    2.5411100572   -1.5732310169   -1.9725415152
 O    3.7115214096   -2.2529390488   -1.6370356838
 C    1.2669416800   -1.9313833554   -1.2083413766
 O    1.0074144923   -2.9002696898   -0.5450855457
 H    0.8990802968    2.0583963371   -0.0825636111
 H   -0.6815673956    1.8960243155   -0.8629811819
 H   -0.5673309410    1.9438567800    0.9014110830
 H    0.6564317914   -0.2301264715    0.9023110426
 H   -1.9743338646   -0.3917702279   -0.6680240917
 H   -1.2189956735   -1.7176832569    0.2372840645
 H   -1.8283635049   -0.2868127041    1.0908569770
 H    0.1697209029   -0.2852607776   -2.1105832634
 H    2.4697932901    0.6886170240   -2.1990199472
 H    2.8045511052    0.0885719093   -0.5481113497
 H    2.3816985321   -1.6246929141   -3.0578990196
 H    3.4945638314   -2.8437661871   -0.9045579703