19

 N   -0.0973068442    1.3065542467   -0.0945146811
 C   -0.0265109703    0.0494990743    0.0464554160
 O    1.1917563624   -0.5848429708    0.1063159078
 C    1.3898314238   -1.6910388056    0.9989626768
 C    0.6519654160   -2.9890107617    0.6257489419
 N   -0.7851920676   -2.8850309510    0.3694344428
 C   -1.0746485487   -2.0727477248   -0.8577446892
 C   -1.2716758307   -0.7980326565    0.0052807296
 C   -1.4448234037   -1.8072340750    1.1758150381
 H    0.8432124782    1.7078134560   -0.0667565680
 H    2.4677515099   -1.8757960666    0.9795405999
 H    1.1366599798   -1.3752093809    2.0184545475
 H    1.1111171449   -3.4311696221   -0.2651538608
 H    0.8197578309   -3.6929813574    1.4526165233
 H   -0.2773997276   -2.0571688479   -1.6046458305
 H   -2.0046916067   -2.4119920644   -1.3244862052
 H   -2.1138113277   -0.1432179369   -0.2167118600
 H   -2.4992042998   -2.0532160172    1.3346113130
 H   -0.9951149888   -1.5811235182    2.1451057980