25

 C   -0.7461664491    1.7246877232   -0.9967190414
 C   -0.4352834022    0.3039987542   -0.5212934787
 O   -0.0857283542    0.2942673121    0.8618588875
 C   -1.6434044381   -0.6256643486   -0.6846810505
 C   -1.3832892975   -2.0954985687   -0.3840040368
 C   -0.4157221582   -2.7741948694   -1.3393590269
 C   -1.3709909780   -2.5586888547    1.0553815566
 C   -2.5119562833   -2.9632987969    0.1528319765
 C   -3.9245280355   -2.4758239872    0.3967334765
 H    0.1190238164    2.3822868152   -0.8505380811
 H   -0.9966432429    1.7398895946   -2.0626123523
 H   -1.5879050436    2.1415473348   -0.4340785134
 H    0.4040971948   -0.0862108695   -1.1194040948
 H    0.6683598137    0.8800673453    0.9806413057
 H   -2.4350045596   -0.2364850397   -0.0364362537
 H   -2.0056337457   -0.5278521229   -1.7172743357
 H    0.5862111467   -2.3332257797   -1.2876502971
 H   -0.3123519922   -3.8380092062   -1.1034873019
 H   -0.7600439148   -2.6964673305   -2.3784397831
 H   -0.6411645024   -3.3058817384    1.3506253100
 H   -1.5687589094   -1.8114364262    1.8155774540
 H   -2.4755425787   -3.9906818533   -0.2042199088
 H   -3.9482967217   -1.4796101587    0.8469346731
 H   -4.5069520502   -2.4370486186   -0.5313537815
 H   -4.4460868447   -3.1504564001    1.0851857676