7

 O   -0.0258399853   -0.0760558801    0.0033219103
 C    0.0007790538    1.1312141534    0.0063253158
 C    1.2003568631    1.9254440393    0.0000999413
 C    2.2004106400    2.5945401367   -0.0050200553
 C   -1.2435554559    1.9207466659    0.0178834292
 N   -2.2238647748    2.5336202073    0.0269577520
 H    3.0877027690    3.1812986775   -0.0093714633