15

 C   -0.0598553590    1.8896484797    0.0131321561
 C   -0.0881364182    0.3654091314   -0.0969037317
 O    0.5139216186    0.0297323404   -1.3698301603
 C    0.1626189060   -1.1503846494   -1.9241481424
 O    0.6150982949   -1.5293294387   -2.9605806026
 C    0.6183890241   -0.2928082968    0.9975384001
 C    1.1906591656   -0.8397057790    1.9124606637
 C    1.8403343386   -1.4497692794    2.9401629372
 C    2.4142185678   -1.9927551276    3.8527834587
 H    0.9712284956    2.2483385753   -0.0098479672
 H   -0.6078659789    2.3266836832   -0.8249019471
 H   -0.5233150684    2.2047942281    0.9508449686
 H   -1.1318548250    0.0204999908   -0.1044873780
 H   -0.5840841241   -1.7063529048   -1.3251509832
 H    2.9230737926   -2.4684613730    4.6545065580