17

 O   -0.0833083744   -0.0214303797   -0.0090948130
 C   -0.0016118808    1.1861726911    0.0441492171
 C    1.2584562819    1.9338916856    0.0177091739
 C    1.2953402884    3.2754995020    0.0450741313
 C    2.6349279069    3.9680773707   -0.0031771864
 C    3.7415221723    2.9030353726   -0.1015894868
 C    3.4421240387    1.8488257488   -1.1908461446
 C    2.6043756422    1.2363562197   -0.0446114335
 O    3.4892273868    1.8935131550    0.9167371678
 H   -0.9118342591    1.8239281835    0.1162639673
 H    0.3856727235    3.8687539777    0.1091463702
 H    2.6801435224    4.6642825162   -0.8517871247
 H    2.7745027532    4.5757332644    0.9007367386
 H    4.7455765881    3.3280640100   -0.0288051237
 H    2.9308105169    2.1526279230   -2.1063324409
 H    4.3250537905    1.2496945698   -1.4169424386
 H    2.5405138925    0.1576461397    0.0924264058