16

 C    0.1584113773    1.5226554160   -0.1797689433
 C   -0.0730394356    0.0625385153    0.1105441287
 O    0.5682635799   -0.8155696075   -0.8864843722
 C    1.3440072159   -1.4240091681    0.0559667898
 N    2.2405524877   -2.2929584429   -0.0042193319
 C    0.7895255303   -0.6229262723    1.2360591812
 N    1.8147618799    0.1890809049    1.8641132268
 C   -0.0129943579   -1.4076676977    2.1815082688
 N   -0.6473395207   -1.9796700807    2.9607772467
 H    1.2241581632    1.7555197198   -0.1781614706
 H   -0.2710694451    1.7760489134   -1.1532620943
 H   -0.3335596067    2.1367510621    0.5813751759
 H   -1.1339150044   -0.1906505013    0.1733304289
 H    2.4155948155   -2.6068579181   -0.9596315844
 H    1.5004967890    0.5504127932    2.7588924363
 H    2.6340097318   -0.3879279063    2.0315265237