19

 O   -0.0645711024    1.3232422060    0.3732214642
 C    0.0368205981   -0.0401110596   -0.0492694865
 C    0.5949557598   -0.1661178547   -1.4989683746
 C   -0.4078605800   -1.0489601565   -2.1950650273
 C   -1.4719108658   -1.3070925455   -1.4369427596
 C   -1.3938291044   -0.6737329282   -0.0718981296
 C   -1.4548010654   -1.6801690825    1.1127386763
 C   -0.0256902480   -1.7569182201    1.5853235423
 C    0.7691139687   -0.8899775124    0.9635914975
 H    0.8275845180    1.6549637978    0.5208023793
 H    0.6431086397    0.8290077105   -1.9605413073
 H    1.6113564762   -0.5797332872   -1.5228885516
 H   -0.2656729731   -1.4023218340   -3.2109712513
 H   -2.3246290227   -1.9048905475   -1.7427725636
 H   -2.1476972716    0.1116888651    0.0467968183
 H   -2.1170890020   -1.3362593948    1.9177514698
 H   -1.8382777538   -2.6581350379    0.7969784270
 H    0.2917789487   -2.4460451851    2.3615096993
 H    1.8329591100   -0.7670371333    1.1464233574