20

 C   -0.7184268002    1.3967345856    0.4369260441
 O   -0.8497858094    0.0067324563    0.6062351443
 C   -0.6739084290   -0.7067584974   -0.6128053207
 C   -0.8354268221   -2.1753439591   -0.3825624154
 C   -1.9385670068   -2.8042218970    0.1665679541
 C   -3.2258678692   -2.2489676515    0.6826425308
 N   -1.6715672136   -4.1514800303    0.1718474676
 C   -0.4288722084   -4.3991191130   -0.3594378510
 C    0.1136090332   -3.1880891806   -0.7106330796
 H   -0.8769736550    1.8634725696    1.4124677927
 H    0.2842073301    1.6719372284    0.0712638116
 H   -1.4594056044    1.7979831069   -0.2740650965
 H   -1.4011087797   -0.3301586233   -1.3543810198
 H    0.3281065764   -0.5052381379   -1.0259492274
 H   -4.0594426048   -2.4017923507   -0.0157258215
 H   -3.5118108075   -2.7086918682    1.6364630226
 H   -3.1136819746   -1.1774353978    0.8547979311
 H   -2.2926492105   -4.8523060130    0.5378189248
 H   -0.0432297746   -5.4029937732   -0.4321280445
 H    1.0862269900   -3.0307858536   -1.1527998775