19

 C    0.0141862265    1.3986027495   -0.0228340019
 O   -0.0088104311   -0.0064663608    0.0058202111
 C    0.6601199309   -0.5856252760   -1.0936884057
 C    0.5821359250   -2.0727134703   -0.9802693474
 C   -0.0280148572   -2.8178852325   -0.0100724956
 N    0.1942056324   -4.1313574966   -0.3762506330
 C    0.9176708973   -4.1247719882   -1.5351590508
 C    1.3505069598   -5.3679135967   -2.2386580044
 N    1.1665627010   -2.8915223142   -1.9225716342
 H    1.0430473172    1.7922972009    0.0051444206
 H   -0.4784338319    1.7983175394   -0.9238962026
 H   -0.5233624441    1.7539717347    0.8598345069
 H    0.2077351352   -0.2521727818   -2.0442420520
 H    1.7152861130   -0.2616348075   -1.1231172747
 H   -0.5778039222   -2.5444625562    0.8730404147
 H   -0.1216655721   -4.9448999974    0.1239898354
 H    0.4968224164   -5.9832183606   -2.5461081298
 H    1.9094048227   -5.0848354323   -3.1313184818
 H    1.9968654513   -5.9909461234   -1.6094061348