19

 C   -0.3964370362    1.4914843824   -0.0161042185
 C   -0.0409676589    0.0213147218    0.1082905229
 O    0.5336203639   -0.4285915610   -1.1186464548
 C    1.4798604319   -1.4647599546   -0.8753481645
 C    1.4793448027   -1.7376945964    0.6479907256
 N    2.7020853961   -2.2117581804    1.2665871224
 C    0.9856063861   -0.3706526786    1.1985537144
 C    2.0908894964    0.5806190540    1.3072875083
 N    2.9816506732    1.3142487714    1.3807812837
 H    0.4983242842    2.0950824239   -0.1875308232
 H   -1.0774880591    1.6316931023   -0.8594851024
 H   -0.8945922788    1.8461764056    0.8915257106
 H   -0.9558045850   -0.5572405962    0.3202781675
 H    1.2119331539   -2.3591734409   -1.4515271992
 H    2.4751462543   -1.1320264719   -1.2022809967
 H    0.6920589235   -2.4635572042    0.8798737759
 H    2.9338243305   -3.1402491445    0.9294567820
 H    3.4815508832   -1.6027919356    1.0314649498
 H    0.5206351080   -0.4790363070    2.1815475961