16

 C    0.1896469142    1.5283595073    0.0257438217
 C    0.0884396861    0.0769577908    0.0176866134
 C   -0.0021901556   -1.1221089156    0.0101753627
 C   -0.1224048112   -2.5682803465    0.0012223089
 C   -1.5651922528   -3.0860923142   -0.0844346542
 O   -2.5208253596   -2.3926634727   -0.2859766576
 C   -1.6779384112   -4.6127831837    0.1207211517
 C   -2.9960675781   -5.1471280721   -0.1931326258
 N   -4.0315002244   -5.5923383506   -0.4424374262
 H    0.8221820772    1.8874691735   -0.7932380277
 H   -0.7972290436    1.9893749422   -0.0886766625
 H    0.6209194964    1.8922283141    0.9645796980
 H    0.4186517882   -3.0035262447   -0.8531814001
 H    0.3482491445   -3.0146274636    0.8892016078
 H   -0.9167156857   -5.1252162219   -0.4794015079
 H   -1.4345767044   -4.8326931325    1.1684230577