21

 C   -0.1638973088    1.5873979545   -0.0598689998
 C    0.0337213314    0.0722411102   -0.0173498068
 C    0.8699351076   -0.5156179332   -1.1912950323
 C    1.6168710056   -1.6912914444   -0.5621312713
 C    2.5959649785   -1.4216689004    0.5704382373
 C    1.1825387073   -1.9209723830    0.8582358821
 C    0.7681169730   -0.4651412614    1.2242414132
 C    2.2911344222   -0.0884706314    1.2515943149
 O    2.8355473916    0.0157345726    2.5519718819
 H    0.7925428410    2.1208155055   -0.0374530468
 H   -0.6884685710    1.8900346468   -0.9724253944
 H   -0.7569938024    1.9339365775    0.7931883528
 H   -0.9554340235   -0.4054832245   -0.0371407235
 H    0.2299870878   -0.8476658717   -2.0147883451
 H    1.5573507927    0.2318574400   -1.6051510083
 H    1.8609749229   -2.5540670535   -1.1729975622
 H    3.5418721622   -1.9489119686    0.6385141052
 H    0.8275886440   -2.8558361554    1.2717431449
 H    0.2619923379   -0.2843135930    2.1742434612
 H    2.5913112652    0.8327101693    0.7424491272
 H    2.6551286450   -0.8157154856    3.0062766598