21

 C   -0.0912697505    1.5243329149   -0.1356676955
 C    0.0304154926    0.0106409132   -0.0233896228
 O    0.6953602176   -0.4538575835   -1.1931405477
 C    0.7115213024   -1.8697062632   -1.2892807508
 C    1.4660727523   -2.5071251625   -0.1213517998
 C    0.8899855787   -2.0124231991    1.2136550159
 C    0.7716632279   -0.4660810020    1.2447522422
 C    2.1494370603    0.1606124353    1.3679456200
 O    2.6534851848    0.4699628587    2.4190541718
 H    0.8936551441    1.9988507372   -0.1825433899
 H   -0.6373173679    1.7908202909   -1.0441381843
 H   -0.6274893590    1.9295859939    0.7276303021
 H   -0.9829695920   -0.4287180403    0.0059232844
 H   -0.3237278964   -2.2523195952   -1.3194798874
 H    1.1841474988   -2.1048396169   -2.2471145382
 H    1.3950580876   -3.5985142567   -0.1871653035
 H    2.5289122566   -2.2503045722   -0.1990775904
 H   -0.1166990401   -2.4285646594    1.3499977754
 H    1.4934298077   -2.3580186705    2.0587545083
 H    0.2101794448   -0.1729317321    2.1383314442
 H    2.6943585496    0.3014324995    0.4096242759