21

 C   -0.0510760970    1.6039103815   -0.1800081155
 C    0.0699562723    0.0879969270   -0.0586953395
 C    1.1632313174   -0.6996195987   -0.8431265978
 C    2.5189980362   -0.1039756092   -0.3721045139
 C    2.1755995487   -0.6870313644    0.9964886939
 C    1.2400278043   -1.7011067126    0.3807464136
 C    0.6519862853   -0.5739584376    1.1993205052
 C    0.0395552069   -0.6450407243    2.5648639242
 O    0.2044827005    0.5468753317    3.3289046590
 H    0.8695738025    2.1174189498    0.1104292555
 H   -0.2928415198    1.8996535179   -1.2074380880
 H   -0.8576964351    1.9842637202    0.4591027286
 H   -0.9022154871   -0.3762470225   -0.2683300329
 H    1.0054928430   -0.9685281360   -1.8861092180
 H    3.3594245130   -0.6387286168   -0.8238857351
 H    2.6795359416    0.9744613355   -0.4778527267
 H    2.8256050687   -0.8182486959    1.8524123715
 H    1.1614780579   -2.7747233472    0.4748121086
 H   -1.0268237600   -0.9124797301    2.4818584111
 H    0.5224808508   -1.4356637879    3.1505660334
 H   -0.2003256401    1.2671820195    2.8360425429