19

 O   -0.2055277727    0.0053829123   -0.5342959682
 C   -0.0869280858    1.1770017058   -0.2502912759
 N   -1.0960027940    2.0315993783    0.0991180531
 C   -0.6729822637    3.3628778668    0.4963810970
 C    0.7543887003    3.4490289853   -0.0942259532
 C    1.2271561531    1.9823280786   -0.1815258623
 C    2.0435342383    1.5255294676    1.0128741291
 C    2.8995918394    0.3230617325    0.9159972854
 N    3.5095072204    1.6647620782    1.0203779807
 H   -2.0286448949    1.6782221662    0.2438785155
 H   -1.3359878640    4.1314369287    0.0868637255
 H   -0.6679749431    3.4776313168    1.5894456584
 H    0.7056594512    3.8851857160   -1.0957611430
 H    1.4130725098    4.0742308912    0.5122024924
 H    1.8000543214    1.7830642317   -1.0926503033
 H    1.5927726023    1.7536165735    1.9782887326
 H    3.0462111150   -0.3148665121    1.7822289748
 H    2.9259033723   -0.1959117810   -0.0378483139
 H    3.8304927450    1.9641584137    0.1018126855