21

 C   -0.2250316078    1.4497705921    0.0115114771
 C    0.0067535699   -0.0637677493    0.0431113065
 C   -1.2753254347   -0.8188188281   -0.2908002619
 C    1.2800201797   -0.4840755869   -0.7658921206
 C    2.0771291952   -0.4889068343    0.5537595185
 C    0.7525536198   -0.5208410676    1.3420419321
 O    2.9343997900   -1.6120589661    0.7486759643
 C    4.2215893492   -1.3979530181    1.0746275948
 O    5.0018229541   -2.2840158988    1.2543582041
 H    0.6857892676    2.0099094382    0.2492695605
 H   -0.5622520266    1.7722631907   -0.9799693493
 H   -0.9920970384    1.7423022554    0.7373155919
 H   -1.6408526864   -0.5518335752   -1.2892983574
 H   -1.1168638599   -1.9018168276   -0.2702720688
 H   -2.0698482909   -0.5820894954    0.4265463338
 H    1.1953128858   -1.5009030633   -1.1583313124
 H    1.6225511527    0.1812363942   -1.5626634980
 H    2.6458938077    0.4338507003    0.7121896898
 H    0.6741496635    0.1151602202    2.2275762257
 H    0.5013586368   -1.5492441535    1.6148159184
 H    4.4696873428   -0.3207574869    1.1556256709