19

 C   -0.8357445857    1.3809628587    0.2141901521
 C   -0.1812881140    0.0305038046    0.0082916125
 O    0.9004906784    0.0821042344   -0.9663187998
 C    1.8542634599   -0.4638418304   -0.0403510481
 C    3.0198639477    0.4697100537    0.2128759208
 O    3.9512367106    0.1868007282    0.9226375023
 C    0.7913278897   -0.4988399750    1.0669677552
 C    0.9369209753   -0.1203525168    2.5102549183
 C    0.5828447235   -1.5374260858    2.1212050236
 H   -0.1069507317    2.1233124600    0.5521355791
 H   -1.2779565769    1.7296813061   -0.7241770270
 H   -1.6357447014    1.3104416904    0.9593085555
 H   -0.9280813258   -0.7138849402   -0.3013514632
 H    2.2331979778   -1.4480015958   -0.3483288119
 H    2.9225033804    1.4597680112   -0.2874670742
 H    1.9388924926    0.0695049372    2.8802574770
 H    0.1655047049    0.4989089661    2.9562610951
 H   -0.4324267661   -1.8797294276    2.2975963940
 H    1.3415355206   -2.3045474990    2.2373005185