20

 C   -0.0245536617    1.4252348235   -0.2465025424
 C    0.0203099594   -0.0690558316    0.1023291877
 C    0.7454764783   -0.3290233805    1.4248920285
 N   -1.3252192691   -0.6477294434    0.1035226260
 C   -2.2079084097   -0.7314994059    1.1304722151
 N   -3.3732824850   -1.2252343059    0.7553721535
 C   -3.2497776566   -1.4611906237   -0.5890898023
 N   -4.3413276987   -1.9404939945   -1.3216091374
 C   -1.9938079308   -1.1085281657   -1.0247236843
 H    0.9891078385    1.8295535967   -0.3305554022
 H   -0.5412785626    1.5865345294   -1.1961472116
 H   -0.5559620456    1.9850122525    0.5296786958
 H    0.5640923707   -0.5946717011   -0.6911620090
 H    1.7828099253    0.0077650005    1.3454478532
 H    0.2856254528    0.2213280089    2.2515641306
 H    0.7444300343   -1.3932469715    1.6741857794
 H   -1.9592577656   -0.4320531055    2.1361712388
 H   -5.0177630878   -2.3674984861   -0.7013739737
 H   -4.0821927984   -2.5895382203   -2.0525363893
 H   -1.5163480377   -1.1422660260   -1.9895112966