15

 O    0.0413307254    0.0823147377    0.6978355980
 C    0.0160988102    1.1244701618    0.1213107935
 O   -1.1661160860    1.7046560979   -0.2215531747
 C   -1.1788381020    2.9708782867   -0.9127647685
 C   -0.7088039418    2.7829212549   -2.3561079586
 O    0.7310091892    2.8149217421   -2.2661532398
 C    1.0744475290    3.0296357347   -0.9283826831
 C   -0.0685594588    3.8487221469   -0.3423285615
 O    1.1569625238    1.7818846790   -0.2082011042
 H   -2.1958932490    3.3487134103   -0.8180489022
 H   -1.0350459730    1.8256870126   -2.7709556812
 H   -1.0494399139    3.5971037054   -3.0064920676
 H    2.0795889183    3.4449043590   -0.8836878188
 H   -0.0882260965    4.8538384959   -0.7697899371
 H   -0.0645768148    3.9016804352    0.7464697558