16

 O   -0.0238749716    1.3012761863    0.1588406789
 C   -0.0053714272   -0.0381416668    0.0392444607
 N   -0.2264817581   -0.7338106077   -1.0426867980
 C   -0.0902126475   -2.0596672724   -0.6388785033
 C    0.2127605531   -2.1306352959    0.6883057098
 N    0.2653399617   -0.8047441132    1.1209058528
 N   -0.2476249040   -3.1625698473   -1.4998436433
 C   -1.2521131045   -3.0316881407   -2.5669467899
 C    0.1939362023   -2.9840919596   -2.8920418007
 H   -0.2338141580    1.6472076563   -0.7174089172
 H    0.3898805880   -2.9628187462    1.3459129429
 H    0.4633915422   -0.4693414265    2.0474438374
 H   -1.8317918645   -3.9299133968   -2.7599356869
 H   -1.7986563596   -2.0946904433   -2.6174349257
 H    0.6065665394   -2.0154993055   -3.1581239545
 H    0.6904944783   -3.8468545307   -3.3269518232