24

 C   -0.0345412909    1.5185185243   -0.0935993756
 C    0.0509889471   -0.0131569555    0.0419726573
 C    0.3870926022   -0.3680301340    1.5028056581
 C   -1.3003179631   -0.6368268638   -0.3493102878
 C    1.1598578636   -0.5187850088   -0.9274654755
 O    2.4332883659    0.0593001981   -0.6232715908
 C    1.2754015875   -2.0282454434   -1.0314170918
 C    0.7966710319   -2.7454676815   -2.2409215518
 N    2.2369475366   -2.5947789549   -1.9907338902
 H    0.9355330812    1.9793522444    0.1069151025
 H   -0.3419846889    1.8068352681   -1.1052984011
 H   -0.7682569398    1.9299640513    0.6075838235
 H   -0.3761151735    0.0374431529    2.1749315160
 H    0.4252279317   -1.4490628552    1.6717380396
 H    1.3471170457    0.0625154130    1.8053222093
 H   -1.5454566870   -0.4262525257   -1.3964726873
 H   -1.3043180443   -1.7227435518   -0.2167409405
 H   -2.1047619539   -0.2220946255    0.2674264546
 H    0.9236256024   -0.1285012444   -1.9270317746
 H    2.8209179942   -0.4396731614    0.1034614657
 H    1.2593282413   -2.5651929508   -0.0840936289
 H    0.4190814531   -3.7609837394   -2.1592609646
 H    0.3360889565   -2.1562683572   -3.0301051304
 H    2.6188205003   -1.8402915488   -2.5577946957