19

 C   -0.0646790797    1.4992205488   -0.2649622063
 C   -0.0778579504    0.0180214022    0.1330818977
 C   -1.4562716705   -0.5816839094    0.1016881439
 O   -2.3820888692    0.0614092131    0.9584821376
 C   -3.4093526969   -0.8811140357    1.2856744742
 C   -3.2470733636   -1.9713286895    0.2391979135
 O   -3.4412038006   -1.3323798577   -1.0633872856
 C   -2.0265297354   -1.1855254866   -1.1774762207
 C   -1.7193629525   -2.0600215947    0.0170395902
 H    0.9483057487    1.9082958810   -0.2079045025
 H   -0.4297480638    1.6361021977   -1.2878342645
 H   -0.7087715226    2.0798987711    0.4001229643
 H    0.5677156160   -0.5606001405   -0.5389561537
 H    0.3337627808   -0.1004572574    1.1431254089
 H   -3.2729023364   -1.2689525707    2.3075551649
 H   -4.3813306710   -0.3844054464    1.2120898580
 H   -3.8484505079   -2.8731366083    0.3577422001
 H   -1.5954779475   -1.1165969586   -2.1705472290
 H   -1.0441527973   -2.8857008285    0.1980036492