15

 O   -0.1984315707    1.4488446312    0.2535605202
 C    0.0069966876    0.0700332231   -0.0054707282
 C   -1.3570376277   -0.6004406064    0.0912429852
 C   -1.3036242580   -2.0882028135   -0.1712949335
 O   -0.2867188845   -2.6939860988   -0.4326163609
 C   -2.5808837793   -2.7840540770   -0.0915348365
 C   -3.6370848009   -3.3699393621   -0.0149142635
 C   -4.8972240037   -4.0735279827    0.0409946005
 O   -5.3897456750   -4.4933637243    1.0604441387
 H    0.6530510689    1.8927781267    0.2037904635
 H    0.4323396699   -0.1014645265   -1.0044632520
 H    0.6942176388   -0.3868622713    0.7205519480
 H   -1.7959457344   -0.4329972422    1.0834400793
 H   -2.0584204381   -0.1414050761   -0.6178452141
 H   -5.3860048530   -4.1993560601   -0.9454691667