23

 C    0.0895745128    1.5446184867    0.0649226806
 C   -0.0201247624    0.0184201991    0.0531358522
 O    0.6312526941   -0.5295711551    1.1994247865
 C   -1.4691865236   -0.5084050138   -0.0697236947
 C   -2.1913156692    0.0776717401   -1.2926615288
 C   -1.4695724756   -2.0486608495   -0.0883777400
 C   -2.8483164458   -2.6781135749    0.2014576910
 C   -2.8133977314   -4.1357870097    0.1938867161
 C   -2.7587580260   -5.3366087102    0.1800978307
 H    1.1265945833    1.8325191407    0.2568677435
 H   -0.2190587657    1.9881340615   -0.8850407232
 H   -0.5374912180    1.9762540927    0.8561982923
 H    0.5584951703   -0.3719089596   -0.7950154985
 H    0.2109652425   -0.1515655487    1.9802495667
 H   -2.0021428061   -0.1765787724    0.8372749034
 H   -2.3217088226    1.1599514850   -1.2143689018
 H   -1.6286089124   -0.1284285599   -2.2112643507
 H   -3.1870550574   -0.3580128368   -1.4151462601
 H   -1.1142495353   -2.4025034608   -1.0644627623
 H   -0.7556472547   -2.4097106694    0.6554888195
 H   -3.2080771793   -2.3289550595    1.1789415214
 H   -3.5893784463   -2.3363973791   -0.5317205107
 H   -2.7201693014   -6.3974027865    0.1710393967