22

 C   -0.7874919815    1.7912082667   -0.2542577704
 O   -0.7881479907    0.5997661140    0.4965655106
 C   -1.5472129261   -0.4614258502   -0.0624103267
 C   -0.9627328346   -1.0388878568   -1.3659967125
 O    0.3117134119   -1.6208217566   -1.2256699372
 C   -1.7396824288   -1.5155989887    1.0318185577
 N   -1.0378277379   -2.8157587125    0.9073103757
 C   -0.7093488095   -1.9208103066    2.0318175147
 C    0.6981145887   -1.3801974856    2.1061611663
 H   -0.3145534224    2.5571733842    0.3656977550
 H   -0.2194486245    1.7048722805   -1.1905735929
 H   -1.8116754786    2.1172940734   -0.4985610366
 H   -2.5489589640   -0.0725553112   -0.3240372192
 H   -1.7027716405   -1.7556039912   -1.7604972907
 H   -0.8713608119   -0.2413137219   -2.1113096602
 H    0.1738635691   -2.3647764725   -0.6151444274
 H   -2.7637724273   -1.5729759040    1.3937661979
 H   -1.6361583353   -3.5844691163    1.1921421681
 H   -1.1238067313   -2.2128193894    2.9966116919
 H    1.0625367421   -1.1029794031    1.1172194266
 H    0.7293431582   -0.4922585189    2.7437665992
 H    1.3641506750   -2.1370423432    2.5358805202