19

 C   -0.0114234331    1.6211504259   -0.1860264740
 C    1.5532569457    1.4263869173    0.0294842911
 C    1.1439654928    0.1459067390    0.8012172100
 C    0.7787825640    0.2095027977    2.3641849608
 C   -0.7093754316   -0.1705433849    2.3586869485
 C   -0.5874848472   -0.9861468003    1.0682121121
 C   -0.1234923504    0.0661273949    0.0189070293
 C    1.0544106328   -1.3498493871    1.2299030560
 O    1.4005915848   -1.0933141976    2.5761381379
 H   -0.4475103166    2.2046387848    0.6290221932
 H   -0.3445863918    2.0367375750   -1.1400682349
 H    2.0593976464    1.2211464761   -0.9174595047
 H    2.1011241035    2.2003358730    0.5732982807
 H    1.1617094295    0.9830184278    3.0294520390
 H   -0.9600710903   -0.7552306842    3.2461599438
 H   -1.4010707414    0.6701075852    2.2627570823
 H   -1.3314303249   -1.7503903611    0.8443620384
 H    0.0806044139   -0.4264125338   -0.9384087921
 H    1.4742669739   -2.2493247678    0.7796617725