16

 C   -0.0821352475    1.4127795742   -0.0352972849
 C   -0.0256369065   -0.0808656658   -0.0342297300
 N    1.0108921639   -0.8549944747   -0.7651568093
 C    0.1519667876   -2.0652537996   -0.5217860241
 C    0.3259834381   -2.2412445514    1.0058423930
 O    0.6295294748   -3.1645172692    1.7067631065
 C   -0.3265248981   -0.9181072493    1.2321010124
 C   -1.0809264290   -1.1228969883   -0.1374424937
 O   -2.4143932489   -1.0776710528   -0.4129348458
 H    0.8240081517    1.8323025805    0.4121500763
 H   -0.1711706730    1.7955855263   -1.0577770454
 H   -0.9472113712    1.7681445453    0.5312866379
 H    0.9280953693   -0.6068289668   -1.7521916192
 H    0.1956140899   -2.8960664959   -1.2201358365
 H   -0.7006350274   -0.4611961761    2.1386297510
 H   -2.8766032835   -1.7310568365    0.1265445817