21

 C    0.0437427548    1.5097312108   -0.0347305525
 C   -0.0417367654   -0.0126140914    0.0398683717
 C   -1.5142491913   -0.4517627433    0.0124742258
 O    0.6656415530   -0.4817949403   -1.1352588950
 C    0.8942324315   -1.8634445457   -1.1693485115
 O    1.6408742616   -2.3185213354   -0.0659540134
 C    0.9334034253   -2.0698288953    1.1470810479
 C    0.7135778527   -0.5585951896    1.2856359367
 O    1.9720785289    0.0736144021    1.4495738565
 H    1.0843722620    1.8323018856   -0.0227193285
 H   -0.4324797585    1.8625577147   -0.9537468081
 H   -0.4669776920    1.9630592865    0.8203042571
 H   -1.9832834223   -0.0971765803   -0.9097507074
 H   -1.6491027263   -1.5343727915    0.0633203364
 H   -2.0517248030   -0.0130812043    0.8588821254
 H   -0.0553009747   -2.4236109852   -1.2245665043
 H    1.4917358073   -2.0595594868   -2.0623616682
 H   -0.0124105120   -2.6314836693    1.1630144635
 H    1.5681316160   -2.4278554312    1.9606300236
 H    0.1365074847   -0.3387098195    2.1905772762
 H    2.5180870576   -0.2341471805    0.7146575882