19

 C    0.1500726053    1.7783372663    0.1118832185
 C   -0.2492903161    0.3177487807    0.0882285540
 C   -1.6969554204    0.0310852708   -0.2996556118
 C   -1.9362887813    0.0190700089   -1.8094112791
 O   -1.3537027335   -1.1755662619   -2.3239673434
 N    0.7925096189   -0.6028114564   -0.3766518905
 C    0.3987024841   -0.6483425435    1.0445972116
 C    1.3849589971   -0.2286625200    2.0112050600
 N    2.1476781181    0.1145436173    2.8098676729
 H    1.2080756799    1.8863183919    0.3565264365
 H   -0.0175010450    2.2385733657   -0.8678531743
 H   -0.4383738235    2.3314625207    0.8514234876
 H   -2.0120854456   -0.9458795515    0.0841563790
 H   -2.3502220021    0.7808504591    0.1603005485
 H   -3.0178942740    0.0407483074   -2.0094848711
 H   -1.4942593001    0.9094192718   -2.2793199175
 H   -1.3155940412   -1.1150071845   -3.2827404040
 H    0.3691920465   -1.3758610853   -0.8850173025
 H   -0.2118568071   -1.4795958476    1.3880937956