18

 C   -0.0751608945    1.5029753679    0.2446005232
 C   -0.1808033954   -0.0212241466    0.1472141199
 C   -1.5789258586   -0.5409536690   -0.2595430426
 C   -1.9862007110   -0.1177770233   -1.6777670961
 C   -1.5543704426   -2.0704247459   -0.1820714373
 N   -2.2505017272   -2.6198516216    0.8560811016
 O   -0.9350097967   -2.7509756204   -0.9785069132
 H    0.9209671841    1.7983898375    0.5886676948
 H   -0.2448146278    1.9894154135   -0.7204242537
 H   -0.8046385850    1.9090267282    0.9549991776
 H    0.5483234859   -0.4098115098   -0.5724564231
 H    0.0846118511   -0.4594885174    1.1177331378
 H   -2.3135209855   -0.1493873673    0.4578399677
 H   -2.9940149663   -0.4703940883   -1.9190290867
 H   -1.9781589921    0.9695252137   -1.7876719551
 H   -1.2964046133   -0.5547661403   -2.4043831893
 H   -2.7767393046   -2.0666550527    1.5079687989
 H   -2.2435865606   -3.6215196884    0.9601504555