12

 N    0.2279911172    0.8177942186    0.8834589372
 C   -0.0421012778    0.1062628596   -0.2399141813
 O    0.6439044266    0.0600790421   -1.2357293827
 C   -1.3191909551   -0.7238519410   -0.1299842713
 C   -1.4248056301   -1.7524615680    0.9331386049
 O   -2.1347299967   -0.5216838673    1.0304113292
 C   -2.0314020919   -0.9293483074   -1.3754302799
 N   -2.6235296925   -1.0971964524   -2.3522739373
 H    1.0193167068    1.4405704298    0.8682685689
 H   -0.4887438221    0.9397115140    1.5804806926
 H   -2.0369264461   -2.6321624315    0.7509213992
 H   -0.5881667983   -1.8707903664    1.6178567104