18

 C    0.0936488912    1.5724355138    0.0161954499
 C    0.0122979151    0.0345391725    0.0332150583
 N    0.7351162861   -0.4584051508    1.2151940291
 C   -1.4451170048   -0.4828446711    0.0763379861
 C   -2.2441836884   -0.0407677414    1.2998005030
 O   -3.4940436708   -0.7120109499    1.2235545643
 C    0.6299182839   -0.4755643134   -1.2197606028
 N    1.1422246954   -0.8938586836   -2.1686104643
 H    1.1299096130    1.8994303098   -0.1102037887
 H   -0.4937057789    1.9844596826   -0.8079170732
 H   -0.2789549682    1.9710898827    0.9617128897
 H    0.7606890693   -1.4746502882    1.2070184575
 H    1.7016904038   -0.1457995530    1.1862652763
 H   -1.9660766200   -0.1645943804   -0.8320742055
 H   -1.4324633563   -1.5786252563    0.0593283428
 H   -1.6958163429   -0.3007939881    2.2146826655
 H   -2.3843539096    1.0506508357    1.2940570535
 H   -4.0120484380   -0.4674251009    1.9957617785