18

 C   -0.2669406234    1.3431548664    0.3541334625
 N    0.0275415555   -0.0244148167   -0.0373382665
 C   -0.0137305284   -1.0597547868    0.9834159854
 C   -1.3458196343   -1.2817532375    1.5491105706
 C   -2.4412497609   -1.4435775594    2.0202748014
 C   -3.7725555371   -1.6615459280    2.5714018070
 O   -3.9405149720   -0.8711031050    3.7408662532
 C    0.2776730179   -0.3330765806   -1.3428259918
 O    0.3108310582    0.4572951620   -2.2609885343
 H    0.4718473884    1.7060163946    1.0790441078
 H   -0.2287076373    1.9591355468   -0.5439793865
 H   -1.2613836584    1.4083271945    0.8079473832
 H    0.3600908507   -1.9885446100    0.5366176000
 H    0.6828152851   -0.8025921622    1.7942634329
 H   -4.5212706211   -1.4070444335    1.8036833399
 H   -3.8954520882   -2.7346987759    2.7910491988
 H   -4.8281984889   -1.0368177334    4.0746511764
 H    0.4609662242   -1.4180227754   -1.4766310700