16

 C   -0.2377155037    1.3999400238    0.1068506849
 N   -0.2184185265   -0.0223640030    0.3908916232
 C    0.8683328112   -0.6554742223    0.8878340825
 O    1.9323643740   -0.1146019923    1.1358111178
 C    0.7414144394   -2.2023181777    1.0741042681
 N    1.6439139569   -2.7066983553    2.1117973300
 C   -0.6307874834   -2.6502652070    1.2922342528
 C   -1.7705392023   -2.9899613694    1.4713654504
 H    0.7687500984    1.7832465124    0.2776764771
 H   -0.5242331162    1.5887373614   -0.9330888718
 H   -0.9363753457    1.9292835001    0.7645048594
 H   -1.0678552830   -0.5576566831    0.2994142289
 H    1.0834161225   -2.6179130976    0.1131494191
 H    2.4890635485   -2.1399928050    2.0428981427
 H    1.2440097335   -2.4863302240    3.0208450180
 H   -2.7691114535   -3.3134568310    1.6349524368