18

 C   -0.0039612006    1.4476286733    0.1030492873
 C   -0.0272865767   -0.0442034834   -0.0348171898
 C    0.6134548673   -0.9549675808   -1.1130199557
 C    0.0143190477   -1.9062725517   -0.0416624754
 N    0.5098716477   -0.9677716254    1.0658995496
 C    0.1106145495   -3.3310268136    0.0494316744
 C    0.1793270008   -4.5301899696    0.1144921673
 C   -1.2694883107   -0.9943950659   -0.0513432847
 O   -2.1119678475   -1.0099537234    1.0430540777
 H    1.0180248445    1.8251626247    0.2153803549
 H   -0.4444934777    1.9211464222   -0.7803172558
 H   -0.5827818600    1.7546112596    0.9797710362
 H    0.1690920604   -0.9699866689   -2.1138133210
 H    1.7056376533   -0.9421181798   -1.1547354128
 H    1.5343486300   -0.9547525618    1.0639033543
 H    0.2352391519   -5.5888863655    0.1762861856
 H   -1.8672490114   -1.0152418638   -0.9639287760
 H   -1.5211231784   -1.0174421660    1.8125198739