21

 C    0.0058153721    1.5274218909   -0.0073748324
 C    1.5160597239    1.8556645629   -0.0202898842
 C    2.0993930376    1.5271396068    1.3734247890
 C    1.8791155735    0.0450786960    1.7598165443
 C    0.4848608169   -0.5071657556    1.3784976264
 C    0.0290718159   -0.0179379066   -0.0156190573
 C    1.1304120017   -0.3050993420   -1.0324685205
 O    1.1746213360    0.5944564329   -2.1493296014
 C    2.0433460089    0.8451980411   -1.0353375766
 H   -0.4998614436    1.9309506648    0.8743470880
 H   -0.4851565077    1.9148569188   -0.9003254445
 H    1.7256270420    2.8942550272   -0.2939259498
 H    3.1716431334    1.7546062964    1.4114796996
 H    1.6185170166    2.1862235432    2.1066260332
 H    2.6438954577   -0.5631258664    1.2646743812
 H    2.0455431209   -0.0843256670    2.8346122701
 H    0.5069184257   -1.6029361892    1.4198525183
 H   -0.2644224961   -0.1862714995    2.1125403654
 H   -0.9354563780   -0.4587071942   -0.2855696197
 H    1.4567611382   -1.3220709574   -1.2368373438
 H    3.1073594144    0.7576834167   -1.2420225454