9

 O    0.1180478066    0.0356329521    0.0020256594
 C    0.0169745550    1.2077882978    0.0091064551
 O   -1.1332117972    1.9516558687    0.0296742441
 N   -0.8136104407    3.3207390281    0.0317671972
 C    0.4630236332    3.3181746644    0.0131393186
 O    1.0690780886    2.1302067991   -0.0015695493
 N    1.2844011032    4.5334294823    0.0071797985
 O    0.6772362478    5.5852636240    0.0213936147
 O    2.4877977034    4.3528954936   -0.0108701483