21

 C   -0.3564647149    1.4629353434   -0.0258786715
 C    0.0381815776   -0.0092126234   -0.0245934363
 C    1.2739093259   -0.3532028986   -0.9205315485
 C    2.0953685066   -0.5352863165    0.3586419714
 C    0.8401720846   -0.4683300210    1.2378842452
 C    3.3175373334   -1.3692838082    0.6560936446
 C    4.3122796917   -1.2188759933   -0.4909443664
 O    4.2411223134    0.2328297789   -0.4217930553
 C    3.3759472291    0.1448276008    0.7130599372
 H    0.5092618603    2.1023256077    0.1817730509
 H   -0.7633789628    1.7616689782   -0.9981687209
 H   -1.1161674721    1.6714495189    0.7357392916
 H   -0.8401377928   -0.6270344078   -0.2307936042
 H    1.1480344659   -1.2751564926   -1.4969717540
 H    1.6185339306    0.4364317928   -1.5937723729
 H    0.8627008808    0.2380098936    2.0744919271
 H    0.5239956421   -1.4443461660    1.6194023217
 H    3.3516000882   -2.1134205118    1.4415611885
 H    5.3239500530   -1.5617591780   -0.2467768183
 H    4.0173499767   -1.6032451835   -1.4748794837
 H    3.5173338128    0.8559552964    1.5205522339