17

 O    0.0415493801   -0.0443066018   -0.2110707873
 C   -0.0161913451    1.1559187214   -0.0848435267
 N   -1.1239479428    1.9695936763   -0.2900677471
 C   -0.8730669108    3.3151307959    0.1982199956
 C    0.6665704124    3.3939011182    0.1238470947
 C    1.2750849872    4.2002542179   -1.0587150375
 O    1.7033532912    5.2443043064   -0.1645827929
 C    1.3529306835    4.4668997513    0.9960856189
 N    1.0217379670    2.0072620458    0.2936852204
 H   -2.0293472993    1.5382937933   -0.1925404799
 H   -1.3522919065    4.0789539997   -0.4203457342
 H   -1.2044222611    3.4534708775    1.2385217934
 H    2.1221006756    3.6965153842   -1.5454251977
 H    0.5822584073    4.5639502314   -1.8262437399
 H    0.7098092584    5.0211367364    1.6907301218
 H    2.2349745797    4.0994979493    1.5378547454
 H    1.9624644633    1.6850298168    0.1261330732