18

 C    0.0802734548    1.4712602473   -0.0652858841
 C   -0.1683328951   -0.0214973801    0.1215907184
 N    0.6011381198   -0.5304639249    1.2512490369
 C    0.8336796519   -1.8434528212    1.4568050400
 N    1.3110038557   -2.4030765042    2.5405604724
 C    1.3796485882   -3.7215705612    2.1599467489
 C    1.8776388943   -4.7984609383    3.0617362048
 N    0.9756940339   -3.9825833499    0.9439439296
 O    0.5946846732   -2.6966129396    0.4548728865
 H    1.1390025170    1.6715178925   -0.2521813924
 H   -0.5000449052    1.8468601778   -0.9121356632
 H   -0.2241452669    2.0383460526    0.8218358155
 H   -1.2427580309   -0.2135794965    0.2573467296
 H    0.1431372369   -0.5751053711   -0.7678712020
 H    0.6426530214    0.0308230023    2.0879149508
 H    1.2681631920   -4.8434277257    3.9693418475
 H    1.8422063466   -5.7642299692    2.5556474592
 H    2.9067527124   -4.5887633804    3.3685479117