22

 C   -0.0232194394    1.6608404083   -0.0345995693
 C   -0.0027196089    0.1348867102    0.0862567216
 C   -1.4031972252   -0.5111451393   -0.0163545688
 C   -2.0515112332   -0.1309413628   -1.2778362747
 N   -2.5190852305    0.1833048199   -2.2870537056
 C   -1.4029960766   -2.0550772470    0.1006151216
 C   -0.7364704379   -2.5613714755    1.3809673991
 O   -2.7688020569   -2.4344339349    0.0567552703
 C   -3.0117785455   -3.7234149105   -0.4623297766
 H    0.9878615947    2.0665616376    0.0617387357
 H   -0.4253810942    1.9782450083   -1.0006688082
 H   -0.6402774593    2.1113128144    0.7504851434
 H    0.6429180650   -0.2929632276   -0.6901238936
 H    0.4294557524   -0.1484029775    1.0503499073
 H   -2.0331277223   -0.1320917126    0.7994211702
 H   -0.8767084941   -2.4659738643   -0.7758599547
 H    0.3410634493   -2.3779016915    1.3795105460
 H   -1.1763388840   -2.0805526236    2.2607445950
 H   -0.8848067640   -3.6404736124    1.4763200351
 H   -2.6284232717   -3.8230248677   -1.4884893338
 H   -2.5673782395   -4.5176973972    0.1554584987
 H   -4.0952218184   -3.8612501644   -0.4761826089