13

 C    0.0315613056    1.5038635104    0.0161661903
 C   -0.0883160494    0.0226477587    0.0522231324
 C   -1.1077846603   -0.8518934314   -0.1588698448
 C   -0.5111002093   -2.1291337175    0.0433222759
 C   -1.1818610877   -3.4487083496   -0.0628182966
 O   -0.6514328044   -4.5144756111    0.1138393017
 N    0.7665383163   -2.0254902118    0.3515300621
 O    1.0298798950   -0.6725764363    0.3564895574
 H    0.7724611262    1.8179342079   -0.7259541174
 H   -0.9298359666    1.9522283165   -0.2399539275
 H    0.3513809859    1.8938052216    0.9877422761
 H   -2.1292982353   -0.6280487786   -0.4186932444
 H   -2.2589434859   -3.3699497087   -0.3298695253