15

 N   -0.1130378411    1.3052572133   -0.0282330334
 C    0.0693377846   -0.0307281989   -0.0157135514
 O    1.1490401172   -0.5994035138    0.0138795503
 N   -1.1438157723   -0.7490577909   -0.0444326790
 N   -2.3564253570   -0.0887842254    0.0055546839
 C   -3.2456651298   -1.0619308215    0.0427701712
 C   -2.6637460191   -2.3491065267    0.0171882803
 C   -1.3009362167   -2.1199158781   -0.0421532306
 N   -0.2383316744   -2.9727870479   -0.1555074122
 H    0.6969277988    1.8937717705    0.0429503833
 H   -1.0507043170    1.6732186058   -0.0005156741
 H   -4.2976400356   -0.8154441700    0.0852911402
 H   -3.1578667281   -3.3064280124    0.0251276168
 H   -0.3840877423   -3.9030266180    0.2012732680
 H    0.6605817329   -2.5473665661    0.0349885267