20

 C   -0.0014807816    1.5265314164    0.1295473972
 C   -0.0323479151   -0.0022936209    0.0754383487
 C   -1.4781919086   -0.5259399687    0.0551060173
 O   -2.1678039846   -0.0967127882   -1.1008233047
 N    0.6202062465   -0.4887999294   -1.1407422711
 C    0.9302859770   -1.9409293966   -1.2279736869
 C    2.3000408538   -1.5548356171   -1.8014308662
 O    3.1922181452   -2.1383100551   -2.3357083667
 C    2.0254367614   -0.0945686370   -1.4173252782
 H    1.0195411796    1.9154202332    0.0851657166
 H   -0.5746611755    1.9457628618   -0.7007447747
 H   -0.4493624250    1.8749318375    1.0647933618
 H    0.4694393527   -0.4080632911    0.9766583793
 H   -1.4711334260   -1.6263112367    0.1310317120
 H   -2.0239208628   -0.1449222189    0.9247378393
 H   -1.5310298805   -0.1861940157   -1.8233432360
 H    1.0308805585   -2.4411588782   -0.2505370643
 H    0.2664592545   -2.5348852148   -1.8636848441
 H    2.1627691660    0.6668653654   -2.1910514027
 H    2.6037927043    0.1931429342   -0.5247448666