15

 C   -0.0149854942    1.4444750989    0.0645315957
 C   -0.0043698017   -0.0344831859   -0.0612426314
 N   -0.0985694174   -0.7452154082   -1.1522927973
 C   -0.0329473854   -2.0327199911   -0.6753530200
 C    0.0986054197   -2.0575912816    0.6879749561
 O    0.1192955821   -0.7549604803    1.1091561443
 C    0.1632680204   -3.3938425990    1.1410257240
 C    0.0635987903   -4.1482535027   -0.0185006983
 N   -0.0564507503   -3.3228415622   -1.1264936740
 H    0.9109941932    1.8091934618    0.5221348853
 H   -0.1183335217    1.8830662389   -0.9282020830
 H   -0.8460982854    1.7820253874    0.6931402839
 H    0.2651624880   -3.7811396019    2.1411327907
 H    0.0684169149   -5.2194239781   -0.1385801150
 H   -0.1404832525   -3.6306361762   -2.0787908211