17

 O    0.2924064007   -0.3366489073    0.1466841386
 C    0.1117467859    0.8075779870   -0.1748310235
 C    1.0934198815    1.9305153431    0.1096033773
 C    1.2716808456    2.8625451798   -1.0841203201
 C    2.6089325708    3.6617675106   -1.1547005555
 C    2.8951534330    2.7977734897   -2.3980057903
 O    1.6020758273    2.1568099377   -2.3032274819
 C    0.0610677925    3.7595469222   -1.3139863616
 O   -0.7159201537    4.0904783185   -0.4566060970
 H   -0.8212051997    1.1193762906   -0.6947518320
 H    0.6875510295    2.5243137094    0.9398587537
 H    2.0429542495    1.4884114505    0.4204301906
 H    2.4981276310    4.7303057776   -1.3492730740
 H    3.2663310479    3.5197460749   -0.2967173434
 H    3.0110757715    3.3404542935   -3.3420310188
 H    3.7134389528    2.0761683060   -2.2970528622
 H   -0.0267753962    4.1092831262   -2.3666610998