20

 C   -0.4575812174    1.3466666689    0.0904577553
 C   -0.0113574860   -0.0885991254    0.0257575090
 N   -0.3369147873   -1.0385989145    1.1223820658
 C    1.0746828071   -0.6768610164    0.8562191803
 C    1.8148729174   -1.7421206765    0.0663639442
 C    0.8517980137   -2.0802572346   -1.1000258280
 C    0.0232797097   -0.8140065901   -1.3002285964
 C   -0.9566003931   -0.6371019706   -2.3722704349
 O    0.3239167035    0.0050761278   -2.4427054744
 H    0.0386580597    1.9353956040   -0.6852890495
 H   -1.5398196649    1.4343581559   -0.0622111221
 H   -0.2225219923    1.7844663697    1.0657857379
 H   -0.6704667735   -0.5000508903    1.9193350151
 H    1.6047982406   -0.0748284120    1.5880081773
 H    2.7536943296   -1.3214046334   -0.3111561798
 H    2.0605718113   -2.6207688787    0.6702115100
 H    1.3698137030   -2.3533367298   -2.0216434065
 H    0.1921350080   -2.9036406417   -0.8163319956
 H   -1.1152520426   -1.4394361594   -3.0922880610
 H   -1.8067025364    0.0301173371   -2.2355720369