15

 N    0.0114668406    1.3259244962    0.0511573620
 C   -0.0489310013   -0.0272632898    0.0024181577
 N   -1.1137774072   -0.7815617854    0.0597157071
 C   -0.5674643484   -2.0324680167   -0.1032690372
 N    0.7345074236   -2.0663654771   -0.2348467702
 O    1.0958717650   -0.6942814725   -0.1720619041
 C   -1.3857803200   -3.2596159199   -0.1256334088
 C   -1.2382270216   -4.2117159167   -1.2690466093
 N   -0.7398818735   -4.5674609177    0.0592400736
 H    0.8986840632    1.7363426650    0.2940619494
 H   -0.8059691751    1.7815050794    0.4233424076
 H   -2.3557560507   -3.1464302504    0.3476377929
 H   -2.1055361835   -4.7733267995   -1.6047099616
 H   -0.5252444027   -3.9434297787   -2.0430964566
 H    0.2682152415   -4.4288336261    0.0979192275