21

 C   -0.1541115817    1.4735866293   -0.1206479932
 C   -0.0582154908   -0.0197363762   -0.0902037168
 C   -1.0605063888   -0.9076056003   -0.0156535406
 C   -2.5367710932   -0.5888643011    0.0482400683
 C   -3.0567391886   -0.3017298529   -1.3489636987
 O   -3.5096602978    0.7554459782   -1.7061154671
 C   -0.5524235431   -2.3336361303    0.0306052701
 C    0.9444511700   -2.1989841876   -0.3374239419
 C    1.2890100448   -0.7126539775   -0.0801337061
 H    0.3376957571    1.9167244495    0.7555449141
 H    0.3625536138    1.8771620174   -1.0005319330
 H   -1.1867203141    1.8279427969   -0.1525490610
 H   -3.0838635516   -1.4506869362    0.4519419813
 H   -2.7530609997    0.2795232701    0.6758716762
 H   -2.9566784550   -1.1530901508   -2.0605411259
 H   -0.6950790858   -2.7544550454    1.0376102795
 H   -1.0929753194   -3.0014779665   -0.6517614214
 H    1.5829655059   -2.8878185048    0.2210723067
 H    1.0792976652   -2.4249170272   -1.3997959508
 H    1.9764558857   -0.3037218723   -0.8304628221
 H    1.7817560873   -0.5653900623    0.8925620724