19

 C   -0.0847158385    0.8959702058    0.4477006724
 O   -0.2282219335   -0.1694621263   -0.4810508319
 C   -1.4085256451   -0.8583389313   -0.3392193098
 C   -1.4158003822   -2.2737501331   -0.7745743480
 C   -1.4764826115   -1.9872793293    0.7244386350
 O   -0.3473913660   -2.1443690979    1.5149089882
 C    0.0648192308   -3.4910219473    1.6922806324
 C   -2.7795731832   -2.1291690026    1.4125874444
 O   -3.8535075818   -2.0688412598    0.8573251476
 H    0.8553526703    1.3971323034    0.2088200789
 H   -0.9089178444    1.6178847662    0.3561059037
 H   -0.0477133387    0.5189895875    1.4764082948
 H   -2.3253696277   -0.2755409842   -0.4381500297
 H   -2.3172470414   -2.6740046322   -1.2241923931
 H   -0.4711299174   -2.6591440770   -1.1408269277
 H    0.9414234631   -3.4682245147    2.3429957450
 H   -0.7181973638   -4.0981684564    2.1673979051
 H    0.3373292991   -3.9592153570    0.7373227761
 H   -2.6897608781   -2.2558165336    2.5147538067