21

 O    0.2063664136    1.3144377898    0.0974614481
 C    0.0603812076   -0.0733897651    0.0809494882
 C   -1.4086922726   -0.4772724272    0.0027734615
 O   -2.2488514569    0.3942643078   -0.0883529127
 C   -1.7459230286   -1.9519592677    0.0513248006
 C   -3.2108130836   -2.2678510661   -0.2671907225
 C   -3.5266240458   -3.7426662862   -0.1440240690
 C   -3.8600315436   -4.3400044986    1.2020702432
 C   -4.9316711147   -4.2001300945    0.1478839150
 H   -0.6968494957    1.6592372322    0.0042657277
 H    0.5805889690   -0.5248587356   -0.7816539328
 H    0.5036429676   -0.5327887807    0.9796334615
 H   -1.0659645618   -2.4880872742   -0.6247134771
 H   -1.4883008721   -2.3131957795    1.0576146610
 H   -3.8532206241   -1.6909465707    0.4068340203
 H   -3.4440735471   -1.9129787051   -1.2781988239
 H   -2.9530251210   -4.3823157330   -0.8115203254
 H   -3.4935924921   -5.3331635243    1.4369687247
 H   -3.9039916215   -3.6710261891    2.0560319260
 H   -5.6896986158   -3.4379613806    0.2961402741
 H   -5.2955527507   -5.0978660516   -0.3393324884