19

 C   -0.0145298089    1.5247560566    0.0107011586
 C    1.3359767861    0.8083684719   -0.0066733472
 C    0.0596003700    0.0434801571    0.0018103017
 C   -0.5600056127   -1.0342911243    0.9054409531
 O   -1.7523160563   -1.0270476240    0.0139145944
 C   -0.5779575851   -1.0243348589   -0.9011517104
 C    0.0553595639   -2.1045113390   -0.0099847784
 C    1.3286820090   -2.8743300664   -0.0268861358
 C   -0.0246621704   -3.5854908337   -0.0173518607
 H   -0.3119383632    2.0238871705    0.9272747929
 H   -0.3300642135    2.0339290694   -0.8942134751
 H    1.9165106019    0.8425345911   -0.9231191899
 H    1.9346360386    0.8325208620    0.8983585204
 H   -0.7277102697   -1.0398775068    1.9834411490
 H   -0.7670527475   -1.0180583622   -1.9756025098
 H    1.9091000375   -2.9007440384   -0.9436616250
 H    1.9272186286   -2.9107903811    0.8778148004
 H   -0.3240786522   -4.0934672266    0.8936916766
 H   -0.3421922059   -4.0834417772   -0.9277962948