16

 O    0.0146284689   -0.0777359868    0.6089157403
 C   -0.0345642660    1.0883604613    0.2832989194
 N    1.0023666576    1.7935561251   -0.2529583870
 C    2.3371998525    1.2438900710   -0.3374970924
 C    2.9511464509    1.1513097352   -1.7136268364
 C    4.2159096435    1.5764143122   -1.7344961020
 C    4.6862723583    2.0674078678   -0.3893277214
 C    3.3872561355    2.0919214486    0.4257912635
 O    3.1761140105    2.7169520498    1.4284736999
 H   -0.9494069579    1.7047933682    0.3715856489
 H    0.8849083956    2.7871998234   -0.3790009228
 H    2.2690575035    0.2525502687    0.1328334303
 H    2.4016083379    0.7490188901   -2.5559966325
 H    4.8584889737    1.5696210476   -2.6071039640
 H    5.4004892462    1.3810438259    0.0873216988
 H    5.1629549893    3.0537168819   -0.3982541526