15

 C   -0.1119225137    1.4431778198    0.0179488806
 N   -0.0144817436    0.0024612766    0.0384271711
 C   -0.0257598333   -0.7659660891   -1.1297796463
 O   -0.0610690432   -0.3595569592   -2.2785471637
 N    0.0044218789   -2.0639692359   -0.6675766729
 C    0.0392150409   -2.1051555630    0.7356212306
 C    0.0181492270   -0.8226773885    1.1625318166
 N   -0.0744602782   -0.2592699156    2.4412854345
 H    0.8250795286    1.9226541230    0.3267365978
 H   -0.3247492793    1.7297116870   -1.0135769407
 H   -0.9159581024    1.7846339000    0.6760429556
 H   -0.0163350252   -2.8497468975   -1.2913184909
 H    0.0730751728   -3.0271082996    1.2879252659
 H   -0.1421836135   -0.9762103485    3.1527169484
 H    0.7124848841    0.3433201307    2.6638000933