22

 C    0.3135676722    1.3057330251    0.5381080732
 C   -0.0423713397   -0.0879755133    0.0044860084
 C   -1.5559736054   -0.1895532559   -0.2286847595
 O   -2.2108060022   -0.0433248192    1.0257439886
 C    0.7242321638   -0.5312853104   -1.2511019921
 C    0.7627631958   -2.0385583669   -1.4518338133
 C    0.6628602162    0.3185423759   -2.5024923550
 C    1.9494810510    0.2199150671   -1.7202863062
 H    1.3465950115    1.3495198677    0.8930151914
 H    0.1839716554    2.0806308798   -0.2269521160
 H   -0.3455610624    1.5515635020    1.3734277004
 H    0.1910930125   -0.8111875752    0.7982924182
 H   -1.8696377575    0.5968639380   -0.9337713509
 H   -1.8077230958   -1.1576142103   -0.6857069033
 H   -3.1592074125   -0.0314798636    0.8698984479
 H   -0.2404444592   -2.4723828121   -1.5253591561
 H    1.2986236470   -2.2996754681   -2.3697667077
 H    1.2745547092   -2.5309489404   -0.6164374041
 H    0.5961683810   -0.1847772507   -3.4615342479
 H    0.1269302457    1.2612019330   -2.4638568339
 H    2.2759681087    1.0976167315   -1.1762367041
 H    2.7619659547   -0.3635966341   -2.1408961381