14

 O    0.0583174270    1.3048058814   -0.4982885604
 C   -0.0250904759    0.0085729714    0.0837924674
 C   -1.4473567924   -0.4487787580    0.0197104845
 N   -1.7343201517   -1.7116618250   -0.2702179874
 N   -3.0911739474   -1.7687014034   -0.1947985341
 C   -3.6410801280   -0.5747330241    0.1173921003
 O   -4.9858657773   -0.4868743496    0.2094373880
 C   -2.6082247630    0.3242717692    0.2737098471
 H    0.9492535132    1.6350965051   -0.3498304422
 H    0.6015656331   -0.7260349214   -0.4413163784
 H    0.3094595638    0.0367322931    1.1340918493
 H   -3.5752290742   -2.6273664373   -0.3925301971
 H   -5.2195811387    0.4224355083    0.4196240866
 H   -2.6691299185    1.3729125204    0.5111612263