21

 C    0.2122694167    1.5475171845   -0.3214949606
 C    0.0383428535    0.0675358585   -0.0601517345
 C    1.2139061316   -0.8714683039   -0.1238195220
 C    0.5547329419   -0.5933756702    1.2089397431
 C    1.2181013929    0.1771679310    2.2934830031
 C    2.6437731087    0.7054257884    2.3014734960
 C    2.1943885859   -0.2204801846    3.3865164493
 O    1.4875237597    0.4906316013    4.4030293700
 C    0.4647578640    0.8609590494    3.4398711017
 H    1.1662663505    1.9149216737    0.0661299867
 H    0.1858317281    1.7590994603   -1.3962426927
 H   -0.5856645508    2.1324600235    0.1499986389
 H   -0.9019788380   -0.3374200417   -0.4258979654
 H    1.0844467103   -1.8541700906   -0.5639345052
 H    2.1882616431   -0.4303464951   -0.3067963073
 H   -0.0788092452   -1.3952573307    1.5833095412
 H    3.2953468927    0.2619056880    1.5554459511
 H    2.8543488201    1.7451996518    2.5405579553
 H    2.6618951645   -1.1623056837    3.6508275015
 H    0.3166488287    1.9462557161    3.3806401621
 H   -0.4858337489    0.3712013639    3.6831422680