15

 C   -0.0458632358    1.4157084321   -0.0390646933
 N    0.0023548857   -0.0267863304    0.0168942324
 N   -0.0867300047   -0.7590026349   -1.1101524768
 C   -0.0328361089   -2.0293250963   -0.7023930612
 C    0.0736224597   -2.1107733215    0.6971934733
 O    0.1378022656   -3.1896452459    1.5389480115
 C    0.0880166183   -0.7988298334    1.1384831041
 N    0.2439615205   -0.2479972968    2.4213312834
 H    0.5461546375    1.8215956553    0.7841042256
 H    0.3719521234    1.7317298599   -0.9953168931
 H   -1.0728719785    1.7921589855    0.0403427560
 H   -0.0727508380   -2.8316091637   -1.4257124131
 H    0.3966592530   -3.9628067527    1.0296583329
 H    0.6060847800   -0.9555463318    3.0513501358
 H   -0.6316363678    0.0891020445    2.8117787824