22

 C    0.0521293470    1.5282675238    0.0826372609
 C    0.0285753006    0.0091784225    0.0036407170
 C    0.6999743865   -0.5330647660   -1.2682756132
 C    0.9549639303   -2.0292669294   -1.1655147070
 N    2.1736350662   -2.4285738981   -0.4322869437
 C    0.8566051459   -2.6956966117    0.1608851039
 C    0.4929166980   -1.8715453363    1.3857803924
 C    1.3210517779   -2.2509079912    2.6061328763
 O    0.6862301458   -0.4835101020    1.1641049030
 H    1.0854464675    1.8873432889    0.1131605582
 H   -0.4427750282    1.9680623436   -0.7888720810
 H   -0.4576469554    1.8740600237    0.9858349965
 H   -1.0198905199   -0.3400860632    0.0188747780
 H    0.0590675802   -0.3204658269   -2.1313685440
 H    1.6520349056   -0.0147514471   -1.4271310648
 H    0.6918130487   -2.6215119878   -2.0387983534
 H    2.5561956390   -3.2825297050   -0.8290833365
 H    0.5046676383   -3.7256500519    0.1924071925
 H   -0.5786222332   -2.0541209339    1.5916513894
 H    2.3823576425   -2.1131040638    2.3847978975
 H    1.0518664567   -1.6199557974    3.4572990282
 H    1.1494376199   -3.2970953708    2.8787932399