21

 C    0.1006170465    1.5530294205    0.2312152151
 C   -0.0107935937    0.0563213354   -0.1107035071
 C   -1.4134274682   -0.4750667887   -0.0521259764
 C   -2.2355821258   -0.7390073963   -1.1335726453
 N   -2.0510420524   -0.5869952356   -2.5280753431
 N   -3.4531163608   -1.1887275176   -0.6581082724
 C   -4.5755466634   -1.5928677868   -1.4767771332
 C   -3.4059732912   -1.2264048514    0.7132284433
 C   -2.1695108974   -0.7832091101    1.1165636438
 H    1.1406701723    1.8945613290    0.1898053837
 H   -0.4858845551    2.1603475189   -0.4663712704
 H   -0.2820600145    1.7520365967    1.2371709525
 H    0.4015281365   -0.1159126848   -1.1133996770
 H    0.6274928273   -0.5120317509    0.5778337343
 H   -1.4783166658    0.2216931399   -2.7361225996
 H   -1.6069843330   -1.3945349223   -2.9561555719
 H   -4.6146240930   -2.6811169957   -1.6106091695
 H   -5.5099665354   -1.2669317953   -1.0121126087
 H   -4.4746675038   -1.1244306062   -2.4568315734
 H   -4.2559316295   -1.5719385147    1.2803359876
 H   -1.8340472594   -0.6923808539    2.1393454377