19

 C    0.0811243712   -1.2214931946   -0.0289068152
 C    0.0587335786   -0.0206950385   -0.0143360484
 C   -0.0054057589    1.4402201507    0.0188999638
 C   -0.8011611599    1.9328450228    1.2489548484
 C   -1.3468342384    3.3709310394    1.1124767336
 O   -0.6392705402    4.2086473779    0.2153780904
 C    0.7591012438    4.3013532365    0.4252081113
 C    1.5095073448    3.2541561817   -0.3946241341
 O    1.3376985907    1.9258723503    0.0584702596
 H    0.1112662894   -2.2827723214   -0.0525267595
 H   -0.4957773746    1.7946486225   -0.9014877515
 H   -1.6420217614    1.2577317563    1.4366988315
 H   -0.1256859907    1.8423627753    2.1049624111
 H   -2.3653018372    3.3478289208    0.7127966746
 H   -1.3971525528    3.8344821904    2.1105037725
 H    1.0651073011    5.2990032947    0.0866897987
 H    1.0138848526    4.2133536508    1.4914980000
 H    1.1913274279    3.3496912871   -1.4452046499
 H    2.5870747640    3.4446723775   -0.3430879467