15

 N   -0.0441681328    1.2235738501    0.3390775872
 C    0.0597524288   -0.0364988316   -0.1407127425
 O    1.0515981174   -0.5265774661   -0.6492684332
 C   -1.2566749634   -0.8251728331   -0.0439847960
 N   -1.0507402766   -2.2379504016   -0.2934767671
 C   -1.4216868759   -2.9251315533    0.8279291327
 C   -2.0100225963   -2.1544421556    1.7860733103
 C   -1.9236591101   -0.7754420058    1.3588200518
 O   -2.2616238515    0.2623167888    1.9064325936
 H    0.7966778169    1.7759324592    0.3954511596
 H   -0.8286538231    1.4391726762    0.9466153255
 H   -1.9608829746   -0.3914019680   -0.7648075615
 H   -0.1946463782   -2.4757762597   -0.7795861389
 H   -1.2427842400   -3.9932400784    0.8664840767
 H   -2.4298771907   -2.4934943912    2.7195708917