18

 C   -0.0323162412    1.5177917920    0.1301630166
 C    0.0403277076    0.0196422485   -0.0614354943
 O    1.0705838222   -0.5610891108   -0.3017360933
 C   -1.2904857749   -0.7627397887   -0.0041618188
 C   -1.8549277404   -0.9230925955   -1.4764358104
 C   -1.2648375708   -2.3549668440   -1.5153604454
 C   -1.0809876003   -2.3121316506    0.0232503688
 C   -2.2169014454   -0.2076201940    0.9673283426
 N   -2.9605423807    0.2255739545    1.7406225327
 H    0.9265345828    1.9662782795   -0.1302324279
 H   -0.8343944145    1.9533724405   -0.4747359239
 H   -0.2734539070    1.7429136544    1.1746674416
 H   -2.9459891374   -0.9049891073   -1.4743864410
 H   -1.4892876687   -0.1978439339   -2.2067859917
 H   -1.9182530700   -3.1334124644   -1.9116576088
 H   -0.3074503229   -2.3926459045   -2.0369940173
 H   -0.1128568523   -2.6234897830    0.4138264665
 H   -1.8846626862   -2.8117623327    0.5661575740