15

 O    0.2848785151    1.2601621102   -0.1373599906
 C    0.1368163145   -0.0892944420    0.2015793662
 C   -0.0325598858   -0.3482501104    1.7069248038
 O   -1.2657333295   -1.0744222932    1.4707364301
 C   -1.2858499859   -0.7183385299    0.0994680403
 C   -2.4641132255    0.0549544974   -0.5101718068
 O   -2.5770483960   -0.9584392837   -1.5660315442
 C   -1.6172380505   -1.7557231126   -0.9885341190
 O   -1.2427331003   -2.8275734603   -1.3366343073
 H    0.6401926646    1.3240564677   -1.0289838655
 H    0.8962350296   -0.7243259934   -0.2660849259
 H    0.7215197762   -0.9690277686    2.1983558128
 H   -0.2010435047    0.5699844964    2.2804461995
 H   -3.3597049075    0.0756259406    0.1133762318
 H   -2.2370327644    1.0380031918   -0.9248655753