19

 C    0.0663680663    1.3776545838    0.0942614065
 O    0.0171892469   -0.0203056107   -0.0964594640
 C   -1.2847143707   -0.5706486205   -0.1074413375
 C   -1.1968013813   -1.9851614215   -0.6593150777
 C   -2.5884319158   -2.5967697911   -0.7002029829
 O   -3.2799538607   -2.5646416763    0.5599247421
 C   -3.1186494071   -1.5505001884    1.4448040157
 O   -3.8892793148   -1.4446505491    2.3586703165
 C   -1.9039087582   -0.6385368652    1.2944300651
 H    1.1108208221    1.6777650327   -0.0168901892
 H   -0.5373216912    1.9093661247   -0.6575151348
 H   -0.2787358510    1.6810385962    1.0927673802
 H   -1.9321293449    0.0345115053   -0.7666562085
 H   -0.7735316775   -1.9779163756   -1.6682710904
 H   -0.5316196081   -2.5803859507   -0.0234561558
 H   -3.2131082752   -2.0773197387   -1.4388961867
 H   -2.5517391966   -3.6521898462   -0.9788557779
 H   -1.1398069757   -1.0345067640    1.9764558677
 H   -2.1974641066    0.3386209554    1.6822279515