20

 C   -0.3034236302    1.5076591286    0.0014761450
 C    0.0861649014    0.0324728323    0.0123454082
 C    0.9637947527   -0.3713295518   -1.1957323999
 C    1.3484740751   -1.8471718068   -1.1653244247
 C    2.6773043086   -2.2600260745   -0.6338306249
 N    1.4636520177   -2.5705721181    0.1130127067
 C    1.2177319043   -1.8465445799    1.3622509226
 C    0.8368455543   -0.3664673583    1.2737648049
 O    1.0913405227    0.4022263946    2.1719885263
 H    0.5853410359    2.1445362902    0.0384773109
 H   -0.8653479256    1.7511932070   -0.9054686158
 H   -0.9173511991    1.7576368790    0.8698938168
 H   -0.8179147521   -0.5948952507   -0.0189285066
 H    0.4223260493   -0.1534708459   -2.1214257978
 H    1.8577671901    0.2633663142   -1.2051525481
 H    0.8976759171   -2.4546084855   -1.9472362906
 H    3.2078692394   -3.1170958509   -1.0408556095
 H    3.3226909334   -1.4617405174   -0.2665411955
 H    0.3640364096   -2.3315949424    1.8603139474
 H    2.0714932754   -1.9490556435    2.0381068146