15

 N   -0.0254396608    1.4865682054    0.1274384225
 C    0.0515244283    0.0739425762   -0.0259409158
 C    1.2429491075   -0.6249414663    0.6903887274
 N    0.9646237601   -2.0714398311    0.7087699282
 C    1.5377518977   -1.4600944838   -0.5108627735
 C    0.3641580690   -0.8062707893   -1.2831123423
 O   -0.9203900672   -1.4716500184   -1.1547866144
 C   -1.2734891808   -0.7335357809   -0.0389595624
 O   -2.3015830832   -0.7608423038    0.5507556129
 H    0.8661023168    1.9350577542   -0.0557206662
 H   -0.7229622336    1.9008000600   -0.4814352179
 H    1.8940426822   -0.1531145627    1.4162336908
 H    1.7257508114   -2.5304457987    1.2073028553
 H    2.4808452369   -1.7988074567   -0.9196566990
 H    0.5453760658   -0.4228024640   -2.2854401054