19

 C   -0.5886082399   -0.1190787753    1.1045299976
 C   -0.0954342869    0.4344399398    0.1577135711
 C    0.5380407650    1.1257472848   -0.9580135787
 C    1.7346713258    1.9731920573   -0.5100560192
 O    2.3669253672    2.6204007563   -1.6375103537
 C    2.2034785399    3.9340533336   -1.0529315569
 C    1.4717076693    3.3319580254    0.1410457957
 C    0.2351376538    3.8312776264    0.8243612686
 C    1.5399155994    3.7208449285    1.5828485685
 H   -1.0349795525   -0.6193347325    1.9279341710
 H    0.8953316561    0.3998018643   -1.6991056683
 H   -0.1847631735    1.7715511548   -1.4699979687
 H    2.4481170574    1.3402548734    0.0351837350
 H    3.1710815230    4.4033475197   -0.8311954452
 H    1.6203227493    4.6007463720   -1.7011365227
 H   -0.1217042067    4.8218225056    0.5594713565
 H   -0.5461148533    3.1153013927    1.0548280034
 H    1.6316361046    2.9269425738    2.3172034949
 H    2.0665332622    4.6344828693    1.8406692011