18

 C   -0.0907246214    1.5056802789    0.0659956736
 C    0.1643451810    0.0364065839   -0.0048414693
 C    0.6589010812   -0.7917778547   -1.2182417658
 C    1.2877330476   -1.7317583317   -0.1881034133
 N    2.0919365369   -2.7081535785   -0.1952265121
 O    2.3879933403   -3.1144635027   -1.5090033614
 C    0.7686180256   -0.9224838032    0.9656949216
 C    1.2937230830   -0.8070611421    2.3565390953
 O   -0.6672356975   -0.8488109703    0.7528101283
 H    0.7574546776    2.0671094407   -0.3381732667
 H   -0.9791453701    1.7704207626   -0.5185146664
 H   -0.2617084578    1.8178776105    1.0995537262
 H   -0.1263865751   -1.2030751597   -1.8563123025
 H    1.4170103336   -0.2984395227   -1.8342986201
 H    2.9991211611   -3.8446166720   -1.3625329666
 H    2.3755036157   -0.6451838847    2.3451822380
 H    0.8117817290    0.0224825994    2.8802672808
 H    1.0972250491   -1.7263491038    2.9177003905