19

 C    0.1041911800    1.1639624593    0.7517162224
 C    0.0708380662    0.0219412051   -0.2483993751
 O    1.0488553617   -0.2954986949   -0.8904193988
 C   -1.2423368893   -0.7285077708   -0.3600480380
 C   -1.4043564376   -1.7611984514   -1.5197930123
 C   -1.5499611720   -2.8771136766   -0.4746419581
 O   -2.4775065169   -3.8990059560   -0.5658418499
 C   -0.3500659464   -2.9469594873    0.4234078079
 C   -1.4049287840   -1.8824272922    0.6651809939
 H    1.1235605033    1.5350089822    0.8638480790
 H   -0.5433237939    1.9780910404    0.4047982917
 H   -0.2866292536    0.8401282011    1.7225514503
 H   -2.0824902186   -0.0312109927   -0.2980366183
 H   -2.3333260689   -1.6016039628   -2.0708403345
 H   -0.5639701026   -1.8358465195   -2.2135422764
 H   -2.0462354647   -4.6642639899   -0.9616858850
 H   -0.3872933070   -3.7593059167    1.1424049521
 H    0.6431099482   -2.6816443121    0.0721122571
 H   -1.9452462141   -1.8153711450    1.6010935818