22

 C   -0.0053695789    1.3826283764   -0.2091549831
 O   -0.0159510805    0.0113547356    0.1467653163
 C   -1.2857735781   -0.5960553780    0.0944724052
 C   -1.7699491447   -0.6630916072   -1.3066014846
 N   -2.1359917658   -0.6933206646   -2.4025712856
 C   -1.2079680574   -2.0013016364    0.7536323159
 C   -0.7731296440   -1.8080519229    2.2175132404
 C   -2.6019553929   -2.6504306516    0.7089056732
 C   -0.1867532082   -2.8767677122    0.0076195249
 H    1.0226994857    1.7294635586   -0.0897893478
 H   -0.3182299207    1.5340351450   -1.2507165586
 H   -0.6631590320    1.9707626116    0.4477757516
 H   -2.0192578741    0.0096381232    0.6539242818
 H   -1.4971938717   -1.1971279264    2.7688106693
 H   -0.7066206760   -2.7782098233    2.7194120470
 H    0.2013237539   -1.3194943159    2.2785429739
 H   -2.9412959317   -2.8148447355   -0.3179822269
 H   -2.5755525507   -3.6215057725    1.2125354525
 H   -3.3492231407   -2.0325587554    1.2196413017
 H    0.8036568842   -2.4156837988    0.0151355605
 H   -0.1135733556   -3.8582214165    0.4864772738
 H   -0.4831417401   -3.0322442431   -1.0345081115