21

 O    0.0098255173   -0.7483885357    0.9779891140
 C   -1.0620752091    0.0828844091    0.5171498793
 C   -1.4650824009   -0.3665825119   -0.8902145162
 O   -0.4432789017   -0.0816168573   -1.8272426161
 C   -1.8462706577   -1.8614360243   -0.9880354801
 O   -0.6751450767   -2.6621146308   -0.8470868567
 C   -2.9748358476   -2.2753334288   -0.0566018655
 C   -3.2044667607   -3.7315564226    0.2482473916
 C   -2.7208502281   -2.8043083936    1.3347637317
 H    0.2573274179   -0.4771546738    1.8658815753
 H   -1.9259799847    0.0122942904    1.1916577258
 H   -0.7361904800    1.1299410341    0.4638464804
 H   -2.3369300546    0.2364629227   -1.1762142225
 H    0.1409013004   -0.8515445057   -1.8109371233
 H   -2.1765819392   -2.0275929007   -2.0214112671
 H   -0.2445859241   -2.3704841525   -0.0292085952
 H   -3.8677416855   -1.6657642832   -0.1775235108
 H   -4.2239949710   -4.0976878785    0.2922568948
 H   -2.4809664239   -4.4306983698   -0.1552883649
 H   -1.6934115059   -2.9086740177    1.6641634955
 H   -3.4123078542   -2.5209230492    2.1210028299