15

 O    0.4523622039    0.8787731701   -0.6364503535
 C   -0.0061097511    0.0734915928    0.4365102505
 C   -1.4042759907   -0.3403736380    0.3008577871
 C   -2.5477072247   -0.6803140991    0.1264071851
 C   -3.9265187676   -1.1231079373   -0.0207274948
 C   -4.0006703416   -2.6347643787   -0.2927297082
 O   -4.5340098457   -3.1049613845   -1.2572826802
 C   -4.7334247480   -0.7712999970    1.2427943100
 O   -5.4499869261   -1.5528971784    1.8042924480
 H    0.3067385034    0.3897350277   -1.4532577251
 H    0.6208551092   -0.8221917217    0.5711297411
 H    0.1156158680    0.6810022251    1.3399691401
 H   -4.4090279568   -0.6107211883   -0.8653784318
 H   -3.5014126702   -3.2557398091    0.4781578259
 H   -4.5923912221    0.2718812864    1.5939453358