21

 C   -0.5928108004    1.4072377162    0.1684050655
 C    0.0283513221    0.0192139556    0.0367216812
 C    0.9284027625   -0.1715069788   -1.2224768808
 C    2.1617498461   -0.9162901307   -0.7147262434
 C    3.2946630180   -1.3372218544   -1.5365714303
 O    3.3972193179   -0.1592113299   -0.7272312180
 C    1.7993292642   -1.5112506144    0.6354445904
 C    0.9375402668   -0.3872002901    1.2328983962
 O    1.7413762680    0.6818072788    1.7128938778
 H    0.1854105276    2.1669626747    0.2789308464
 H   -1.1973383163    1.6527412880   -0.7108701135
 H   -1.2404806917    1.4684036863    1.0492918313
 H   -0.7777369719   -0.7247949805   -0.0044146354
 H    0.4102121240   -0.7382991653   -2.0021417046
 H    1.2383171474    0.7811784357   -1.6617236152
 H    3.9131457983   -2.1769557266   -1.2203227126
 H    3.2792993573   -1.1578150452   -2.6111404309
 H    1.1984738137   -2.4192011770    0.5022757144
 H    2.6758523458   -1.7528035017    1.2407588198
 H    0.3399119274   -0.7128252801    2.0895329567
 H    2.4865246133    0.7974507696    1.1110265153