17

 O    0.1270526985    1.3988912690    0.1067678567
 C    0.0594616735    0.0320884925    0.0247625527
 C   -1.0612320156   -1.0220707354    0.0666016027
 C   -0.4607998679   -1.7469887467   -1.1393856350
 C    0.8296871587   -0.8758704099   -0.9790529108
 O    1.3297708295   -0.1951989470   -2.0927862596
 C    1.8421586402   -1.5878939309   -0.0703635888
 O    1.1001061886   -1.8442364103    1.1272491020
 C    0.0264577528   -0.9168890034    1.1462890629
 H    0.0060083939    1.7495287355   -0.7842666768
 H   -2.1123609148   -0.9360484317    0.3176028963
 H   -0.3336540682   -2.8323540991   -1.0655473198
 H   -0.9796172881   -1.4917065139   -2.0672274960
 H    1.6185544024   -0.8391099593   -2.7481500283
 H    2.1965276956   -2.5464030463   -0.4660756802
 H    2.7052225122   -0.9339824560    0.1263930146
 H   -0.2754723412   -0.6128148271    2.1408067374