22

 C   -0.0702792211    1.5676953090   -0.1367301765
 C    0.0210186303    0.0374981512   -0.0458120565
 C    0.7372817783   -0.5316346215   -1.2782454540
 C    0.7207911825   -0.4372205701    1.2413409745
 C   -0.0262323273   -0.0988403250    2.5357046733
 C    0.7036261349   -0.6326981576    3.7814717332
 O    2.0150222102   -0.1170819426    3.9282713989
 C   -0.0985901000   -0.3838893001    4.9989175847
 N   -0.7240912596   -0.1531770936    5.9428857991
 H    0.9292422241    2.0192091139   -0.1199305660
 H   -0.5541397753    1.8727293012   -1.0701315396
 H   -0.6473221669    2.0009912532    0.6856469792
 H   -1.0034441426   -0.3629028915   -0.0373836864
 H    1.7691621750   -0.1649341273   -1.3348591622
 H    0.7742283048   -1.6256812623   -1.2503636172
 H    0.2296422841   -0.2358147982   -2.2020190214
 H    0.8503769195   -1.5268164213    1.1896973064
 H    1.7315435324   -0.0140789753    1.2876741547
 H   -0.1499122373    0.9848234090    2.6506842299
 H   -1.0366983128   -0.5255233532    2.5176897817
 H    0.8346558479   -1.7168716418    3.6857908745
 H    1.9493175590    0.8348873636    4.0686039495