15

 O    0.2654784104    1.4181922977   -0.0048660742
 C    0.1336205735    0.0286117973    0.0307913281
 C    0.2416711138   -0.7090937163    1.4232401360
 C   -1.1872348456   -1.2125257144    1.2282635173
 N   -2.0396180930   -0.0430480846    1.0612209629
 C   -1.2900171621   -0.5278951483   -0.1245884290
 C   -2.0202891161   -1.0521131441   -1.2851311396
 O   -3.1919275823   -1.3620119739   -1.2481490865
 H   -0.4533204341    1.7690589890    0.5375276439
 H    0.8294396859   -0.3843765296   -0.7040500147
 H    0.9919231626   -1.5019734503    1.4225701269
 H    0.3892893927   -0.0562230054    2.2866508921
 H   -1.6051684079   -2.1777756126    1.4867803571
 H   -3.0010421179   -0.3598824477    0.9206332094
 H   -1.4171568899   -1.1714390469   -2.2097537596