23

 C   -0.0321096745    1.5383342686    0.0556177685
 C    0.0422395032    0.0184911793    0.0327151209
 C   -1.2407215971   -0.5988655431   -0.5065965382
 C    1.3221645937   -0.7166339810   -0.3295916464
 C    2.6400205946    0.0297956135   -0.2959438446
 O    2.6881795776    0.7092553684    0.9578293498
 C    1.8497101476    0.0340851674    1.8896327748
 C    0.8106773112   -0.7573343600    1.0985475998
 C    0.2659663159   -1.9845067128    1.7955511847
 H    0.8841911663    2.0013835376    0.4212754841
 H   -0.2270655812    1.9223615685   -0.9528959951
 H   -0.8633156120    1.8684434462    0.6904547836
 H   -1.4811689728   -0.1653677806   -1.4842757215
 H   -1.1680574245   -1.6807589802   -0.6412709541
 H   -2.0900229913   -0.3992637220    0.1575585729
 H    1.2515019019   -1.5865980452   -0.9750898075
 H    3.4764779850   -0.6812974115   -0.3920347811
 H    2.7511502643    0.7899567863   -1.0780139347
 H    2.4362523028   -0.6641728491    2.5093110623
 H    1.4230264657    0.7949561676    2.5542851859
 H   -0.2905636672   -1.7095643839    2.6999250127
 H   -0.4092620070   -2.5629382107    1.1627342482
 H    1.0817438876   -2.6487678433    2.1042039752