17

 N   -0.1841329603    1.3354940575   -0.1298007844
 C    0.0028528109    0.0234023598    0.2314686317
 N    1.1031565322   -0.5819670842    0.4661362906
 C    2.3373251707    0.1553825829    0.3265681019
 C    3.5307699205   -0.7496841390    0.6061799354
 O    4.6767434055   -0.3959434315    0.5176087968
 C   -1.2678092472   -0.7462652113    0.4202788584
 C   -2.3776718647   -0.2106272635    1.2274557383
 O   -2.4391061196   -0.2023833044   -0.2007955456
 H    0.6048984403    1.8538120316   -0.4793889742
 H   -1.0735652439    1.5368556703   -0.5645889857
 H    2.4815124082    0.5776563413   -0.6840586690
 H    2.4059036325    1.0097261429    1.0216944381
 H    3.2423330150   -1.7812423466    0.9058688123
 H   -1.1431075760   -1.8225735997    0.3423308915
 H   -3.0592378322   -0.9022626577    1.7185315637
 H   -2.2711985418    0.7656929716    1.6952016804