21

 O   -0.2107828208    1.5142052880    0.0915703663
 C   -0.0473483914    0.1134865346    0.2581091930
 C   -1.3806939302   -0.5401127255   -0.0807404309
 C   -1.8464401342   -0.3706542849   -1.5363182451
 C   -2.9628697729   -1.4130818410   -1.6669187367
 C   -2.4049162574   -2.6416989115   -0.9188351849
 C   -1.4565155901   -2.0876251422    0.1875454870
 C   -0.0985377190   -2.7537859382    0.1210545462
 O    0.5200000538   -3.1583599141    1.0723895393
 H    0.6189574452    1.9434831144    0.3194364337
 H    0.7458212799   -0.2719604362   -0.4043196955
 H    0.2416037352   -0.1382310595    1.2902902393
 H   -2.1307004584   -0.0697631504    0.5667963838
 H   -2.1669840565    0.6510747078   -1.7496955387
 H   -1.0232337150   -0.6061871394   -2.2248555286
 H   -3.8691780381   -1.0472342056   -1.1698371625
 H   -3.2310198011   -1.6385215566   -2.7028146950
 H   -3.1855845946   -3.2802051480   -0.4987863722
 H   -1.8320790829   -3.2667433914   -1.6159244562
 H   -1.8379703417   -2.2709384467    1.1947277079
 H    0.3165574002   -2.8557560836   -0.9110844202