20

 C    0.1381309506    1.4920131556   -0.3152996299
 C    0.0043078210    0.0655125346    0.2305738914
 C   -1.4201795093   -0.4562159733    0.1307366431
 N   -2.3535455824    0.2963793056    0.9395578132
 C   -1.8670564830   -1.0916177557   -1.1666115787
 C   -1.6275655337   -1.9751737039    0.0554557068
 N   -0.4689415801   -2.8310991835    0.0228474242
 C   -2.8027031123   -2.5071551739    0.7155028488
 N   -3.7218298279   -2.9507312356    1.2638060152
 H    1.1714260003    1.8415446748   -0.2328854711
 H   -0.1483095143    1.5430347076   -1.3717913541
 H   -0.4929687162    2.1897925264    0.2436269333
 H    0.6759265464   -0.6101051395   -0.3037224261
 H    0.2966758215    0.0522435712    1.2869298336
 H   -2.7344717230    1.0765161786    0.4147720532
 H   -3.1363002448   -0.2703863981    1.2485426752
 H   -2.8938968940   -0.9498447581   -1.4839198141
 H   -1.1426517005   -1.2170497894   -1.9641345921
 H   -0.1865627849   -3.0932339630    0.9625504694
 H   -0.6756059133   -3.6878437503   -0.4817629311