25

 C   -0.0160367258    1.5675496614    0.0045566747
 C    0.0026139875    0.0368424470   -0.0346306268
 C    0.6828520240   -0.5017050460   -1.3003095252
 C    0.5038594472   -2.0216825390   -1.4179125530
 C    0.8692949944   -2.7688922878   -0.1470206779
 C    2.1935351012   -2.5511578647    0.5440743863
 C    0.9171575193   -2.0568396379    1.1924310723
 C    0.4183088120   -2.8049118639    2.4139052390
 C    0.6744306189   -0.5406010806    1.2255032016
 H    1.0031631212    1.9722349248   -0.0090849031
 H   -0.5489715813    1.9813531888   -0.8582329685
 H   -0.5063394124    1.9385603167    0.9113179312
 H   -1.0396118897   -0.3167591409   -0.0508743241
 H    0.2648675730   -0.0167602536   -2.1902246036
 H    1.7494445851   -0.2369190082   -1.2812913991
 H   -0.5502482287   -2.2264779726   -1.6500606654
 H    1.0852184218   -2.4105457855   -2.2637677992
 H    0.4974910968   -3.7906391161   -0.1168160132
 H    2.6928892627   -3.4125029859    0.9767321663
 H    2.8725923671   -1.8089378165    0.1346116453
 H    0.6328510351   -3.8763528576    2.3426557489
 H    0.8943033335   -2.4310524803    3.3287921027
 H   -0.6656725846   -2.6891949227    2.5355845131
 H    1.6275739161   -0.0175308436    1.3857451088
 H    0.0534005857   -0.2988227754    2.0961045487