18

 C   -0.0750697071    1.4305818640    0.0563524993
 N    0.1070844601   -0.0031876536   -0.0852510112
 C    0.6549985611   -0.6787859692    1.0052480536
 C    1.2572988477   -0.2006800708    2.1323689105
 O    1.6873956854   -1.2358940336    2.9203041711
 C    1.3514096512   -2.3997740652    2.2698398389
 N    1.6484258231   -3.6413981540    2.8394105935
 C    0.7190475008   -2.1137010212    1.0993126860
 N    0.1442421880   -2.9988084379    0.1698755493
 H    0.9038008223    1.9145419375    0.1471405294
 H   -0.5625293907    1.8257269378   -0.8380096355
 H   -0.6719317945    1.7127996302    0.9395719384
 H   -0.7240477096   -0.4745204179   -0.4217494292
 H    1.4644646271    0.7901698336    2.4970782605
 H    2.6404622000   -3.7482696839    3.0299179601
 H    1.1515692770   -3.7994719365    3.7117941715
 H    0.3539483140   -3.9576095463    0.4270961825
 H    0.4928488941   -2.8303717732   -0.7688960188