16

 O   -1.0045471393    0.6714950355    0.1635027224
 C   -0.2000989615   -0.4698940618   -0.0662762121
 C    0.8469255781   -0.2320475523   -1.1766412345
 C    0.2506156374    0.1750264064   -2.4464008090
 N   -0.2197217691    0.4967279138   -3.4511770285
 C    0.4781337885   -0.9717691135    1.2025458968
 C    0.9486442763   -0.0261656580    2.2457011553
 N   -0.2310430713   -0.8784262428    2.4787817846
 H   -0.4374895800    1.4468412479    0.2402821183
 H   -0.9017470796   -1.2382823411   -0.4118269469
 H    1.5584630009    0.5377311729   -0.8515125636
 H    1.4291539750   -1.1468753562   -1.3345690958
 H    1.0227575299   -1.9050279464    1.0658134156
 H    1.8223962814   -0.2668865639    2.8437712533
 H    0.7877314718    1.0387079475    2.0961851063
 H   -1.0665176484   -0.3133334881    2.3302602477