18

 C   -0.0801675638    1.4897612198    0.1059738746
 C    0.0366815585   -0.0426154152    0.0504129060
 C    0.5994627019   -0.5148023609   -1.2176768213
 N    1.0746536818   -0.9227161948   -2.1901095808
 C    0.9030001620   -0.5849544868    1.2003169163
 O    0.3006764766   -0.3299206482    2.4821030166
 C    0.1471919769   -1.7448099775    2.7529300288
 C    0.8458426482   -2.1229462724    1.4376992578
 O    0.0181994064   -2.8804026980    0.5934774889
 H    0.8954857494    1.9632545303   -0.0359079213
 H   -0.7581477742    1.8599723676   -0.6665510041
 H   -0.4686679429    1.7752843223    1.0860950329
 H   -0.9565172367   -0.4937218328    0.1481171686
 H    1.9114487961   -0.1553642494    1.1402145014
 H    0.6505052918   -2.0386116453    3.6794258612
 H   -0.9040340297   -2.0516398878    2.7860826421
 H    1.8331414440   -2.5817489746    1.5611923314
 H    0.4862273636   -3.0481657863   -0.2325723990