18

 C   -0.1244196529    0.6301387209   -0.7621047260
 C    0.4604713940    1.5837587680    0.2475284661
 C    0.6435179039    0.0934812255    0.4229283087
 C   -0.0580517371   -0.6162274960    1.5068790668
 C   -1.4979615317   -0.4929077183    2.0861262357
 C   -1.0091610876   -1.1571305966    3.3812072128
 C   -1.4991151645   -1.9917067729    2.2278835058
 N   -0.0986888609   -2.1247475948    1.6345551076
 C    0.4073342410   -1.2610369932    2.7676183890
 H   -1.2006886707    0.4948388687   -0.7682198208
 H    0.3381359712    0.5609749420   -1.7400181241
 H    1.3256431256    2.1736238474   -0.0333677719
 H   -0.2232461983    2.0912007463    0.9200426707
 H    1.6333657271   -0.3048981320    0.2190286249
 H   -2.3061430954    0.2108259348    1.9448936490
 H   -1.3823876376   -1.0413273344    4.3885300094
 H   -2.2829520378   -2.7332465382    2.1373834344
 H    1.3966591216   -1.3891684171    3.1919136519