20

 C    0.3155102584    1.3690921855   -0.2527144565
 C    0.0096216309   -0.0273539778    0.2592582490
 O   -1.1398528243   -0.5092409075   -0.4209428782
 C   -1.5102014949   -1.7999155312   -0.0642987827
 C   -2.2226583276   -2.0624336938    1.2927670248
 C   -3.1928286814   -3.0133865016    0.5440431733
 C   -2.7689331414   -2.3453278692   -0.8097392807
 C   -3.6892346643   -1.3072557965   -1.2495230098
 N   -4.4481083181   -0.5073522780   -1.5970184843
 H    1.1978720392    1.7737249797    0.2517358666
 H    0.5066622616    1.3488156287   -1.3290850346
 H   -0.5299394051    2.0371529878   -0.0679080180
 H    0.8602823077   -0.7058967021    0.0798621336
 H   -0.1709798542   -0.0117164556    1.3454480474
 H   -0.6752785535   -2.5050631987   -0.2049307480
 H   -1.6328761412   -2.4761798031    2.1124540028
 H   -2.7329810559   -1.1562851957    1.6303340816
 H   -2.8701656714   -4.0560726467    0.5751897958
 H   -4.2506825590   -2.9586799827    0.7989849649
 H   -2.5694526554   -3.0176430214   -1.6473057170