21

 C   -0.1569852503    1.5252617663   -0.0163068641
 C    0.0255410261    0.0210468851    0.0178400978
 C    1.3174628106   -0.6916452648   -0.2919262062
 C    2.6458972385    0.0539787616   -0.1452693093
 C    2.8252619006    0.3576095115    1.3529023041
 O    2.4183449021    1.6815330344    1.7908021784
 C    1.4705491907    1.1194973771    2.7287709936
 C    1.6567034226   -0.2940078749    2.1348989167
 C    0.6865932946   -0.8322936925    1.0921391630
 H    0.7219140674    2.0664445570    0.3347589970
 H   -0.3614017851    1.8441851756   -1.0450322703
 H   -1.0154884217    1.8307444410    0.5925474435
 H   -0.8377218795   -0.4951751944   -0.3998580179
 H    1.2912579206   -1.5127151553   -1.0010643234
 H    3.4626939898   -0.5883195085   -0.4910412704
 H    2.6986389713    0.9800482747   -0.7280007412
 H    3.8422392092    0.1464272205    1.7048587264
 H    1.8302470953    1.2197098109    3.7609528523
 H    0.4808179831    1.5777096877    2.6454451863
 H    1.9119245852   -1.0713626313    2.8573693965
 H    0.1599485389   -1.7434398417    1.3560104872