19

 C    0.2817242301    1.4661221792    0.0347713067
 C    0.0369311023   -0.0107510490   -0.0030766535
 C   -0.1904330147   -0.7789187801   -1.0732783083
 C   -0.3786453322   -2.2447126482   -0.7503330288
 C   -0.1125837331   -2.2978506835    0.7569263869
 O    1.2778191121   -2.5479516827    1.0751331868
 C    1.4032815509   -1.2966950953    1.7822060989
 C    0.0277246731   -0.8320639172    1.2689676944
 O   -0.7926538743   -0.3240995973    2.2928072777
 H    1.2907809784    1.6899359247    0.4038177290
 H    0.1754311646    1.9175478324   -0.9548669989
 H   -0.4123137241    1.9642879881    0.7211726153
 H   -0.2253105575   -0.4046985405   -2.0921814167
 H   -1.3812905969   -2.6024837373   -1.0205630775
 H    0.3399863730   -2.8852509026   -1.2749769209
 H   -0.7799705070   -2.9560812984    1.3236717405
 H    1.4171512313   -1.4333065613    2.8711859170
 H    2.2851807583   -0.7280233937    1.4669294306
 H   -1.6420224345   -0.0859081572    1.9046910609