16

 O   -0.0425817737   -0.0585682646    0.0383703990
 C    0.0420088258    1.1371041336    0.1729385622
 C    1.3091357524    1.9138183295    0.0670738765
 C    2.6855026043    1.2943108886   -0.3162973641
 C    2.9968708601    2.7837283620   -0.6000326414
 C    1.5463130729    2.9254479917   -1.1205769126
 O    2.9382214367    3.3942897864    0.7000163377
 C    1.7328279250    2.8179664527    1.2443000385
 H   -0.8640036333    1.7560008915    0.3742609452
 H    3.2647912267    0.8027968933    0.4674346519
 H    2.6244839627    0.6732178126   -1.2101152505
 H    3.8734020333    3.1410352127   -1.1368426637
 H    1.3782681772    2.4633351845   -2.0941650993
 H    1.0853500203    3.9135545235   -1.0596968968
 H    1.0045635198    3.6032700875    1.4790167784
 H    1.9597608298    2.2521830545    2.1547649992