17

 C   -0.3291314527    1.4087738607   -0.0935909014
 C   -0.4492831113   -0.0381308377    0.3465755888
 O   -1.2582465174   -0.7253594491   -0.6091763161
 C   -1.4315506110   -2.0619394427   -0.3268629023
 C   -2.3449130404   -2.5486353192    0.7501101856
 O   -3.4109417146   -1.5898434794    0.9550902381
 C   -3.8596141469   -1.7917526339   -0.3472838639
 O   -4.8395004342   -1.3532080498   -0.8474005457
 C   -2.7378755878   -2.7396219490   -0.7085211040
 H    0.2802504787    1.9707102509    0.6201876655
 H    0.1395777427    1.4749223197   -1.0793150598
 H   -1.3174646151    1.8726262627   -0.1497155654
 H    0.5419487950   -0.5147323044    0.4055043542
 H   -0.9162115050   -0.1125000083    1.3385928714
 H   -0.5544715458   -2.6952767150   -0.4889369641
 H   -2.1540240746   -3.2565214834    1.5445816796
 H   -2.8069913596   -3.6058517523   -1.3499945605