16

 O   -0.0683715009   -0.0023480376   -0.0669348480
 C    0.0216644767    1.1891091211   -0.2113724392
 C    1.3338254158    1.9417974130   -0.0943734450
 C    1.3416628263    2.6673555129    1.2639023750
 O    2.5798343744    3.3435142388    1.5087600102
 C    3.7618838690    2.8123362572    1.1021752779
 O    4.7873451106    3.3048824591    1.4807258882
 C    3.7334803463    1.6701350856    0.0852093347
 N    2.4567904540    1.0398077661   -0.2181615590
 H   -0.8720178164    1.8230258501   -0.3964978369
 H    1.3720344686    2.6995213627   -0.8915993279
 H    0.5688730294    3.4391518535    1.3299367367
 H    1.1725706407    1.9369575807    2.0661285824
 H    4.1620840001    2.1061766227   -0.8291848410
 H    4.4519629907    0.9193823105    0.4211881683
 H    2.2853763947    0.2091991935    0.3364537637