20

 C    0.0806028076    1.5772548867    0.0876444100
 C    0.1048212803    0.0475680315    0.0630522900
 C    0.5843775486   -0.5135420649   -1.2906255933
 C    0.6163994777   -2.0059925255   -1.3485483062
 C   -0.1094024975   -2.8596729757   -2.0837293138
 C    0.3017784844   -4.2707256658   -1.7591086035
 C    1.4069921404   -4.0902393713   -0.7037502712
 O    2.0602367851   -4.9339263103   -0.1353910406
 N    1.5124242144   -2.7217797798   -0.5265909954
 H    1.0775829837    1.9937455577   -0.0943693980
 H   -0.5887322597    1.9745494755   -0.6833374038
 H   -0.2657643437    1.9524416801    1.0552023639
 H    0.7528428997   -0.3232123008    0.8670214392
 H   -0.8955325389   -0.3483606703    0.2735103739
 H   -0.0729017924   -0.1534751850   -2.0891370312
 H    1.5863839255   -0.1156959748   -1.5080163083
 H   -0.8687990041   -2.5778241181   -2.7975622348
 H   -0.5034266189   -4.8848092674   -1.3382407206
 H    0.7031280794   -4.8284817168   -2.6135462403
 H    2.1790820583   -2.3123557451    0.1067219340