17

 C    0.0231825618    1.5121883071   -0.1537601429
 C    0.0604152673    0.0148303693    0.0312997330
 N    1.3654733680   -0.6488171074    0.0141166295
 C    0.5855844840   -0.6706935966    1.2657129762
 C    1.1833327864    0.0850011304    2.4534339199
 C    2.1921117486   -0.6926740579    3.1630988996
 C    3.0170094088   -1.3466365483    3.7408675452
 C   -0.0798717070   -1.9098652313    1.6121427541
 N   -0.6160469041   -2.9008637492    1.8740371578
 H    0.8998796570    1.9972038630    0.2790465065
 H    0.0095581955    1.7489899441   -1.2225578316
 H   -0.8788073125    1.9383795265    0.2967669794
 H   -0.7639000493   -0.5133144583   -0.4455185062
 H    1.3288730958   -1.5499721750   -0.4548393532
 H    1.6273471404    1.0117730661    2.0805945886
 H    0.3759571919    0.3665242503    3.1407062712
 H    3.7456554374   -1.9241348027    4.2539728529