16

 O    0.0679638363    1.4248898212   -0.0683975660
 C    0.0312687682    0.0628915486    0.0542592533
 C   -1.2581815690   -0.7485207676   -0.0302407707
 N   -0.5734630253   -1.8617001396    0.7280271516
 C    0.8572841177   -1.8788538133    0.2451645213
 C    0.4129398336   -0.9097240135    1.2836067863
 C    1.0048442567   -0.7839629520   -0.7745313829
 C    1.4124034464   -0.6717508436   -2.1685936261
 O    2.2565881190   -0.1909158572   -1.0893260198
 H    0.9775297738    1.6567817008   -0.3094326596
 H   -2.0653850994   -0.3628149056    0.5963029522
 H   -1.6380790254   -1.0113580901   -1.0242261778
 H    1.3998622991   -2.8090629483    0.3433815570
 H    0.6457617500   -0.7929014263    2.3334563136
 H    1.8013662467   -1.5399395553   -2.6972913005
 H    0.9862624716    0.1071567518   -2.7988359820