17

 C   -0.1012645026    1.6639616362    0.0825068999
 C   -0.3065415208    0.1498507237    0.0324826445
 C    0.6405180957   -0.6155699789    0.9782654586
 C    0.4381416435   -0.2878086567    2.3891427736
 C    0.2358785806   -0.0572143658    3.5516753115
 C    0.4654404166   -2.1341864807    0.8513942747
 O   -0.4949048606   -2.6763294725    0.3650266019
 C    1.6199212700   -3.0104264920    1.3614605354
 O    2.7065433501   -2.5785672428    1.6384722555
 H    0.9181179307    1.9387097825   -0.2104329569
 H   -0.7915151464    2.1686972706   -0.5995392471
 H   -0.2757463984    2.0519640797    1.0902270134
 H   -1.3376897296   -0.1087627022    0.2895878043
 H   -0.1382588320   -0.2239285025   -0.9834039802
 H    1.6880534957   -0.3975445218    0.7287876569
 H    0.0752443377    0.1640162170    4.5780873125
 H    1.3588071600   -4.0888641737    1.3925980217