18

 C   -0.0552480888    1.3776552334   -0.0044792019
 O   -0.0257332870   -0.0403988011   -0.0526961222
 C    0.6187915500   -0.5570563678   -1.1594881242
 C    0.7141593654   -2.0725713435   -0.9978321922
 O    1.2764320149   -2.6599785024   -2.1595102832
 C    0.5264563889   -2.3374533516   -3.3201803801
 C    0.4373239632   -0.8249721231   -3.4875531987
 O   -0.1330174050   -0.2410378169   -2.3252567855
 H    0.9623880032    1.7951383935   -0.0223382751
 H   -0.6245510473    1.7947539627   -0.8415313342
 H   -0.5364608157    1.6507898885    0.9366326726
 H    1.6344835720   -0.1256653661   -1.2724115717
 H    1.3666719241   -2.3292872900   -0.1599500826
 H   -0.2969830059   -2.4609679557   -0.8005167561
 H    1.0427320621   -2.7984228150   -4.1677210958
 H   -0.4890787833   -2.7598653429   -3.2500189523
 H    1.4440638431   -0.4147901925   -3.6701338365
 H   -0.2084523638   -0.5546275195   -4.3283297102