16

 C   -0.1222815943    1.4074019567    0.1626472403
 C   -0.2863778075   -0.0984124500    0.2759266629
 O    0.2991473210   -0.7650311010    1.1110414340
 N   -1.1249978541   -0.6731008172   -0.6393595521
 C   -1.3103166443   -2.1099020352   -0.6902241885
 C   -2.1891760748   -2.6224290365    0.4760733538
 C   -2.4284638967   -4.0588714413    0.3836281073
 N   -2.6098920202   -5.1955626472    0.2812075336
 H   -0.1521305929    1.8403019688    1.1643142462
 H    0.8633732286    1.6241143207   -0.2606584030
 H   -0.8819989765    1.8844514317   -0.4620500236
 H   -1.6047920209   -0.0956966638   -1.3083315234
 H   -1.7679974033   -2.3676287246   -1.6478703376
 H   -0.3341637630   -2.5989427584   -0.6329223013
 H   -1.6806358012   -2.3943253897    1.4170600921
 H   -3.1518788799   -2.0999213132    0.4797468693