21

 C   -0.1893761453    1.5204100117   -0.0463461077
 C   -0.0315305104    0.0158373576   -0.0037289138
 C    1.3236363046   -0.6237687328   -0.1874020722
 O    2.4092653981    0.2356733676   -0.3900888771
 C    0.6526558059   -0.6679949805    1.1580667203
 C    1.2423433285   -0.0432909482    2.4400154956
 C    0.8128022126   -1.3074606660    3.2023081328
 C   -0.6665759957   -1.5351694860    3.0610470654
 C    0.2370537055   -1.9125265221    1.9171838409
 H    0.7048588747    2.0208694163    0.3304694182
 H   -0.3519620531    1.8673732779   -1.0724784047
 H   -1.0457170217    1.8429987640    0.5557569289
 H   -0.8562819823   -0.5396634900   -0.4459352794
 H    1.3678289728   -1.5520646800   -0.7600514967
 H    3.1700924179   -0.1306567620    0.0731927277
 H    2.3279977211    0.0817186989    2.3795194242
 H    0.8068265872    0.8999491554    2.7867674241
 H    1.3928353299   -1.7937816421    3.9767995355
 H   -1.0642340775   -2.3671545857    3.6342835834
 H   -1.3478826017   -0.6926342919    2.9652024312
 H    0.3073203789   -2.9288376520    1.5461513333