16

 C   -0.1283241135    1.5076682612    0.0319971451
 C    0.0018832294    0.0104420241    0.0513666699
 O   -1.2744144135   -0.6122560093   -0.0890945585
 C   -1.0898978271   -2.0070755991    0.1585993641
 C    0.2514066598   -2.1171946997    0.8704690336
 C    0.7365040757   -0.7760484507    1.1685132220
 N    1.4783469645   -1.6452565426    0.1258232102
 C    1.0154927884   -0.7022804605   -0.8843955360
 O    1.4413190408   -0.5264194947   -1.9816490982
 H    0.8455379050    1.9816257050    0.1796442151
 H   -0.5260116088    1.8314274870   -0.9329828614
 H   -0.8109176715    1.8394740935    0.8195909199
 H   -1.9066888902   -2.3644768952    0.7948878494
 H   -1.1007447911   -2.5744764924   -0.7814010841
 H    0.4606132207   -2.9700943641    1.5053134876
 H    1.2461823215   -0.4099994025    2.0484496513