7

 O    0.0455888293    1.3688790424    0.0089791375
 N    1.3304858002    1.8303194434   -0.0008738698
 C    2.0834812065    0.7647789180   -0.0138352169
 C    1.2481232330   -0.3838139820   -0.0119726118
 N    0.0024443094    0.0043014193    0.0020848805
 H    3.1591975737    0.8420128499   -0.0237510797
 H    1.5060485479   -1.4310188809   -0.0200653798