21

 C   -0.5416835703    1.3401938583   -0.0946309561
 C   -0.1196263177   -0.1307922943   -0.1333872254
 O   -1.2522881032   -0.9841741342   -0.1390849083
 C    0.8369036492   -0.4259540069   -1.2963717576
 C    1.1312033801   -1.9355556158   -1.5112857125
 C    0.4245245916   -2.2620478038   -2.8321501421
 O   -0.9214020128   -2.6271610452   -2.5194708527
 C    0.4848225542   -0.9080415461   -3.5397943251
 O    0.2372110294    0.0388415524   -2.5199847468
 H    0.3252248600    1.9994377260    0.0272991084
 H   -1.0547378354    1.6117182864   -1.0203285682
 H   -1.2223599865    1.5020383301    0.7449749895
 H    0.4350648603   -0.3612012281    0.7887752334
 H   -1.4201513341   -1.2752231064   -1.0464630767
 H    1.7705021581    0.1304321944   -1.1285632939
 H    2.2042177776   -2.1175191694   -1.6076129397
 H    0.7388951932   -2.5518096966   -0.7014526793
 H    0.9181075531   -3.0632840559   -3.3963034883
 H   -1.4227801011   -2.6734888972   -3.3403971213
 H    1.4760452031   -0.7631777111   -4.0027244391
 H   -0.2777900090   -0.7848936866   -4.3169083282