17

 O   -0.0386839245    1.4105153047    0.1606143119
 C   -0.0090621029    0.0060939454   -0.0027062924
 C   -1.4042045823   -0.5195147177   -0.0315106092
 C   -2.5401755998    0.1656747896    0.0560202058
 C   -3.7024344240   -0.8009186764    0.0220227687
 O   -3.1345694221   -2.0624022529   -0.2619397765
 C   -1.7156960518   -1.9894527394   -0.1617221291
 C   -4.4302630251   -0.7855533167    1.3690305728
 O   -4.3728310443   -1.6608713131    2.1879634553
 H    0.8675993317    1.7305582188    0.1789550704
 H    0.5058213496   -0.2827375315   -0.9362273200
 H    0.5433299025   -0.4870144289    0.8169542763
 H   -2.6379378041    1.2351496368    0.1720037412
 H   -4.4434636388   -0.5447847113   -0.7545939678
 H   -1.2700327009   -2.4442895529   -1.0587121493
 H   -1.3603193187   -2.5629075325    0.7092068151
 H   -5.0214149444    0.1462071781    1.5398595066