19

 N   -0.1204478854    1.4814477391   -0.0483524708
 C    0.0183301162    0.2145171912    0.0578764071
 N   -1.0279777696   -0.6654413062    0.0863510774
 C   -2.4002613302   -0.2704462940   -0.0978304694
 C   -3.0975043157   -0.4522105705   -1.4800923996
 C   -4.3844052263   -0.8565824529   -0.7110140940
 C   -3.5019844371   -1.1581235426    0.5321008124
 C    1.3718320164   -0.4505625718    0.1982033246
 O    2.4023054250    0.1678592794    0.2160027520
 H    0.8059975237    1.9083576151    0.0047764515
 H   -0.8142252309   -1.6475536567    0.0070063796
 H   -2.4776997031    0.7667805520    0.2323362459
 H   -3.1331337765    0.4123221167   -2.1456553813
 H   -2.6715315881   -1.3017476867   -2.0241245335
 H   -5.0415339375    0.0001283439   -0.5405337729
 H   -4.9795736063   -1.6765145121   -1.1164773629
 H   -3.1950195931   -2.2103444014    0.5525790111
 H   -3.8726620446   -0.8849637236    1.5225061764
 H    1.3621472529   -1.5620242089    0.2856595565