20

 C    0.1131397464    1.6323281486    0.2088449307
 C    0.0637962745    0.1017595524    0.0438029652
 C    0.8444516648   -0.4599059904   -1.1772085361
 C    1.2106152134    0.4902388002   -2.3159181425
 C    2.0863371313   -1.1474476701   -0.5601296187
 O    3.0381934115   -1.5389934917   -1.2072099725
 C    1.8667659786   -1.2451298833    0.8730892099
 C    0.7273201670   -0.5957342552    1.2212258656
 N    0.1513357657   -0.5246950288    2.4494905038
 H    1.1437736326    1.9881727665    0.2976626931
 H   -0.3489200436    2.1312937468   -0.6468715718
 H   -0.4277450515    1.9547100857    1.1053269872
 H   -0.9923396503   -0.1948534553   -0.0013273983
 H    0.2497658855   -1.2793153177   -1.6028902099
 H    1.7763627366    1.3573505241   -1.9629016706
 H    1.8473359452   -0.0475110333   -3.0229735302
 H    0.3257487084    0.8530503825   -2.8484373712
 H    2.5381196934   -1.7671138648    1.5429461823
 H    0.6686016625   -0.8291750761    3.2576827485
 H   -0.5622921321    0.1629176300    2.6208789556