24

 C   -0.5640794847    1.2670468282   -0.6711290700
 C   -0.2491090427   -0.2249028218   -0.5219923233
 C    1.0103871743   -0.6997360698   -1.2747309815
 C    2.3089687062    0.0202579263   -0.8448678894
 C    2.7019161925   -0.1326523728    0.6297609566
 C    1.1426761839   -2.2119318219   -1.1840709050
 C    0.3847957622   -3.1047532981   -2.1339822363
 C    1.8861320574   -2.9837508930   -2.2444342415
 H    0.2091025874    1.8977807716   -0.2213230062
 H   -0.6484660182    1.5505199741   -1.7266846898
 H   -1.5128324879    1.5166364908   -0.1853607962
 H   -0.1569459780   -0.4751959720    0.5427993544
 H   -1.1004515975   -0.8101038142   -0.8903604144
 H    0.8608784768   -0.4565080205   -2.3380902094
 H    3.1259451266   -0.3578575558   -1.4713605157
 H    2.2196691877    1.0874109310   -1.0803298388
 H    1.9420834408    0.2792222645    1.3018278188
 H    2.8546033621   -1.1812758074    0.9045308038
 H    3.6380480339    0.3967941039    0.8335877587
 H    1.2404371567   -2.5958935662   -0.1713403149
 H   -0.0319840955   -4.0326623709   -1.7577621713
 H   -0.2165521965   -2.6304226878   -2.9034758337
 H    2.2847150943   -2.4283844349   -3.0878418000
 H    2.4964115682   -3.8287271932   -1.9447274647