19

 C   -0.1417057428    1.5555779439   -0.5115515214
 C    0.0888467387    0.2303761339    0.2111235053
 O    0.7419490601    0.4013380420    1.4665896286
 C   -1.2212845300   -0.5053361907    0.4243614555
 O   -1.8276906636   -1.1194171531   -0.7005032386
 C   -1.3691749788   -1.9798111628    0.3397853850
 C   -0.1919267669   -2.8762605195    0.0429400971
 C    0.0192103134   -4.0023829082    1.0349005836
 O    0.5302749487   -2.6937411439   -0.9092017778
 H    0.8084838199    2.0768523083   -0.6545244012
 H   -0.6010934757    1.3834674023   -1.4890729923
 H   -0.8106055612    2.2078251597    0.0656195949
 H    0.7490127241   -0.4010535193   -0.3867840515
 H    0.2968622348    1.1138749561    1.9386269410
 H   -1.9219301006    0.0080148191    1.0913660735
 H   -2.1611724339   -2.4349093623    0.9362381535
 H   -0.8268723792   -4.6988860140    1.0022054643
 H    0.9402648485   -4.5348942221    0.7972530919
 H    0.0691589545   -3.6067814093    2.0559109886