17

 O   -0.4127665660    0.5961820812    0.7472839128
 C    0.2385987558    0.9499485841   -0.2029555880
 C    1.3941840938    1.8945287446   -0.1275085103
 C    1.9750174885    2.1844743029    1.2436516621
 O    2.9163952723    3.2350462448    1.2318655751
 C    2.4009506548    4.4127367656    0.6418820643
 C    2.2005278261    4.2411590590   -0.8694309809
 C    1.5074462177    2.9283968014   -1.1920475139
 O    2.3174800718    1.7592594725   -1.2143070242
 H    0.0351395810    0.5907532456   -1.2364189312
 H    1.1374721070    2.4020418010    1.9243850650
 H    2.4966928024    1.3011508096    1.6230034018
 H    1.4450443345    4.6877067076    1.1184293433
 H    3.1218330040    5.2070717553    0.8517520627
 H    1.6098322397    5.0755726535   -1.2618201304
 H    3.1676142714    4.2502743951   -1.3827928596
 H    0.7516582452    2.9498995363   -1.9779241287