12

 C    0.0450304387    1.3765325545   -0.0848149015
 O    1.3078323551    1.9264982436    0.4162966923
 C    1.9804716779    0.7624997421    0.6488371523
 C    1.1881295597   -0.3258109812    0.6565291131
 O   -0.1211079874    0.0389303913    0.3989041086
 N    1.8201787121   -1.4398585511    1.0866093528
 C    3.0465210388   -1.0039324639    1.3468473000
 N    3.1940969690    0.3598266775    1.1225531112
 H   -0.7722320634    2.0022466188    0.2742783610
 H    0.1052332742    1.3638859177   -1.1832396794
 H    3.8813545142   -1.6160563260    1.6472986019
 H    4.0464541311    0.8890633867    1.1927167477