18

 C    0.0331305511    1.5985486240   -0.1531770151
 C   -0.0785958282    0.0732712051    0.0162891437
 C    0.6100007157   -0.4344111400    1.2472087794
 C    0.1058010211   -0.9506761028    2.3871377500
 N   -1.1861376883   -1.2263572690    2.7432550380
 C    1.2451693202   -1.3137602715    3.3062736504
 O    2.4219903691   -0.9487353577    2.6079840844
 C    2.0714658711   -0.4272632991    1.3705133296
 O    2.9061403849   -0.0530119484    0.5910828627
 H    1.0843728696    1.8937424284   -0.1941140802
 H   -0.4526382558    1.9239789699   -1.0783667423
 H   -0.4374278461    2.1260421283    0.6831082996
 H   -1.1338686152   -0.2279226464    0.0232435530
 H    0.3706489917   -0.4107377028   -0.8592932523
 H   -1.9164755537   -0.7775318873    2.2126241362
 H   -1.3914231792   -1.3043950961    3.7271049545
 H    1.1985939723   -0.7688778363    4.2593950352
 H    1.2628881895   -2.3885831782    3.5287506433