18

 N    0.0159433526   -1.1414664492   -0.0131276692
 C   -0.0233205866    0.0168221720    0.0128626857
 C   -0.0293411583    1.4353115139    0.0505498754
 C   -1.1206096535    2.2142887778   -0.0154796753
 C   -0.7750390579    3.6492596242    0.0208158563
 C   -1.4402540924    4.6170727866   -0.9479566923
 C   -1.7499543505    4.6936851472    0.5190301097
 C    0.7263061832    3.7032984590    0.3475678753
 C    1.2482307394    2.2585502002    0.1211475666
 H   -2.1374882577    1.8504562574   -0.1080705593
 H   -0.8099191976    5.3857261123   -1.3827871679
 H   -2.1999253324    4.2288517963   -1.6178360359
 H   -2.7255332588    4.3630456504    0.8596109339
 H   -1.3350772724    5.5191334951    1.0886119884
 H    1.2609555018    4.4356915904   -0.2622620589
 H    0.8658076144    3.9880752991    1.3954345388
 H    1.9130908653    1.9215670891    0.9217582882
 H    1.8110669814    2.1608717483   -0.8150291995