14

 N   -0.0968344024    1.3564045280    0.0129856256
 C    0.0128898190    0.0896011923    0.0024052342
 C   -1.1814117715   -0.7390588263    0.0076881398
 N   -2.0991336567   -1.4410700599    0.0107219061
 N    1.1893515796   -0.6520105401   -0.0137577762
 C    1.4943865192   -2.0990507138   -0.0270050795
 C    3.0022046807   -1.7121430923   -0.0378096672
 C    2.5291050545   -0.2496972787   -0.0229797995
 O    3.0190969038    0.8444462329   -0.0195070361
 H    0.8268939573    1.7959750230    0.0079623725
 H    1.1478467488   -2.6220612038    0.8667093764
 H    1.1316872612   -2.6090906899   -0.9218041906
 H    3.5702201510   -2.0043259280    0.8466485761
 H    3.5541509953   -1.9914560933   -0.9364836615