13

 C   -0.0412805460    1.4854743913    0.0007826853
 C    0.0177812944   -0.0225956158    0.0459413940
 N    0.0833450336   -0.7118803771    1.1356842688
 O    0.0917643766    0.1218946583    2.2479868816
 C    0.0018289481   -0.7579046679   -1.1664336280
 C   -0.0156690792   -1.3208504927   -2.2412995141
 C   -0.0344908419   -1.9635020603   -3.4366562284
 C   -0.0512838058   -2.5330251807   -4.5022887842
 H    0.8405022633    1.9091545723    0.4912860759
 H   -0.0917136684    1.8432164470   -1.0272473469
 H   -0.9154404686    1.8422576980    0.5541325386
 H    0.1419759474   -0.5069532510    2.9766032110
 H   -0.0659541235   -3.0374031614   -5.4365174634