23

 C    0.6182464721    1.3256991355    0.3324023175
 C   -0.0451910863    0.0065669311   -0.0723375036
 C    0.5779478885   -0.6803878311   -1.3095863403
 C    1.4819782259   -1.7923008438   -0.7490028397
 C    1.4689705502   -3.0677766246   -1.5811894433
 C    2.9006781435   -1.3424181829   -0.2618154655
 C    2.4626219907   -1.5321502027    1.2181585093
 C    1.0295945277   -1.9116141891    0.7434550652
 O    0.0121898002   -0.9613190344    0.9837272751
 H    1.6998116959    1.2228076085    0.4595487584
 H    0.4387828039    2.0897687408   -0.4320693604
 H    0.1969443507    1.6808465765    1.2772071380
 H   -1.1109174053    0.2040031462   -0.2390320865
 H   -0.2128501090   -1.1243400273   -1.9229600464
 H    1.1240955436    0.0268691655   -1.9411063435
 H    1.8847440376   -2.8927682981   -2.5804557361
 H    2.0666567280   -3.8565194664   -1.1108573165
 H    0.4488690967   -3.4488797911   -1.7049285345
 H    3.7074698526   -2.0055111233   -0.5848456745
 H    3.1749595430   -0.3218429649   -0.5404840755
 H    2.9825314565   -2.3417979452    1.7366922056
 H    2.4928243967   -0.6422165078    1.8496474218
 H    0.6636375666   -2.8845737912    1.0865833055