19

 C   -0.1547887000    1.2775324366   -0.1294354537
 C   -0.2112453756   -0.2025560858    0.2567457697
 N    0.6510547731   -0.5325047599    1.3872119189
 C    1.9456290163   -0.9533079809    1.3218437572
 N    2.4770937963   -1.1483533001    2.5088655008
 C    1.4743467955   -0.8393071834    3.3930715471
 C    0.3320270769   -0.4508497542    2.7341313521
 C   -1.0116008304   -0.0574493240    3.2438331981
 O   -2.0602280162   -0.9336311979    2.8198625976
 H    0.8630057550    1.5731035882   -0.4003792438
 H   -0.8084523358    1.4657851896   -0.9866147819
 H   -0.4847267415    1.9155836931    0.6953456368
 H   -1.2280740897   -0.4988955117    0.5242979939
 H    0.1034636787   -0.8243884820   -0.5870456542
 H    2.4411699985   -1.1104351526    0.3740326166
 H    1.6210097529   -0.9101353886    4.4613775160
 H   -0.9577805259    0.0026570320    4.3399160795
 H   -1.3152685391    0.9319512311    2.8834553042
 H   -1.7968834890   -1.8273983895    3.0661066750