15

 N    0.4425704327    0.9099295680   -0.4747159671
 C   -0.2443525673    0.0742286384    0.4898008476
 C   -1.5291055037   -0.5713952385   -0.0121480162
 O   -1.9778531393   -0.4846094517   -1.1198074377
 O   -2.1278339824   -1.2736767241    1.0021133783
 C   -3.2577464154   -2.0265512016    0.7159712525
 N   -4.2962476539   -1.7831506638    1.3920377822
 C   -3.0819177299   -3.0674050158   -0.2504949939
 C   -2.9681540865   -3.9775112858   -1.0281012474
 H    0.6160375354    0.3737087034   -1.3202744441
 H   -0.1712057108    1.6666388881   -0.7628492588
 H    0.4173157409   -0.7321830712    0.8296331889
 H   -0.4871996480    0.6522799669    1.3884797696
 H   -5.0361882150   -2.4426170413    1.1519700968
 H   -2.8666662567   -4.7720552310   -1.7266729210