25

 C    0.0763015108    1.5829189566   -0.0225690235
 C    0.0205276341    0.0531443240    0.0054774559
 C   -1.4101460450   -0.4959213776    0.0099566782
 C   -1.4687291783   -2.0280531822    0.0297305857
 C   -2.8996782609   -2.6039372855    0.0323708810
 C   -2.8901080821   -4.1418242208   -0.1094216909
 C   -4.2810064648   -4.7557532758   -0.2966211119
 C   -3.5913475033   -2.2311013837    1.3283789069
 O   -4.6164716315   -1.6088679393    1.4331879725
 H    1.1089439744    1.9454191724   -0.0237088084
 H   -0.4174209951    1.9804588768   -0.9162267997
 H   -0.4272457842    2.0131244619    0.8502220279
 H    0.5603150003   -0.3501591566   -0.8617922394
 H    0.5532001669   -0.3174825993    0.8914094208
 H   -1.9507513248   -0.0909450022    0.8761130653
 H   -1.9461389454   -0.1252560361   -0.8744320769
 H   -0.9375313997   -2.4267468914   -0.8437896288
 H   -0.9278820467   -2.4069181993    0.9091383598
 H   -3.4803768613   -2.1628764712   -0.7865722799
 H   -2.2522706448   -4.4021270397   -0.9624225003
 H   -2.4047837798   -4.5786433728    0.7743256845
 H   -4.2184836517   -5.8443196248   -0.3871848594
 H   -4.9418731697   -4.5273995294    0.5457045043
 H   -4.7619941437   -4.3708658675   -1.2020628392
 H   -3.0532384037   -2.6037095166    2.2361768055