19

 C    0.0333862014    1.5627861231   -0.0556361052
 C    0.0652055670    0.0523528489    0.0698018816
 N    1.0064874668   -0.6657788917   -0.8146351160
 C    0.5097534305   -1.2148511281   -2.0563905524
 C    1.3811871538   -1.5944254255    0.2599462472
 C    0.7983490287   -0.5862969576    1.2960048353
 O    1.7317443746    0.3151342548    1.8403394160
 C   -0.0524915635   -1.1591706241    2.3438053877
 N   -0.6990758711   -1.6190086494    3.1847841728
 H    1.0330680868    1.9794477485    0.0737211262
 H   -0.3402442737    1.8448047926   -1.0455164760
 H   -0.6346612799    1.9998185981    0.6931312980
 H   -0.9546670418   -0.3638114981    0.0093084575
 H    0.1874241045   -0.4042515431   -2.7176510142
 H    1.3098385286   -1.7610755505   -2.5666267426
 H   -0.3433175976   -1.9059902880   -1.9159337129
 H    0.8238786599   -2.5444212654    0.2510116782
 H    2.4537550755   -1.7981710649    0.3510885174
 H    2.2604230795   -0.1489867994    2.4992103014