18

 O    0.1403794308    1.2545152205   -0.4615325589
 C    0.1215175298   -0.0224257188    0.1200041078
 C   -0.1215778712   -0.1640392980    1.6564493505
 C   -1.1441603413   -1.3023906334    1.3606066360
 C   -1.1814349737   -0.7896484923   -0.0850594569
 C   -2.3815207155   -0.2838322136   -0.8228318815
 N   -1.6279402750   -1.4300337277   -1.2972838650
 C   -2.1428394789   -2.7090393543   -1.4061170715
 O   -3.2510245976   -2.9809191714   -1.7988624405
 H    1.0427040167    1.5868185535   -0.4559619217
 H    0.9797579148   -0.6292234333   -0.2020845274
 H    0.7369065992   -0.4081776202    2.2842795448
 H   -0.6142827034    0.7329375569    2.0383893108
 H   -0.6919737063   -2.2946982674    1.4422359436
 H   -2.0845382286   -1.2958224691    1.9145190586
 H   -3.3652438150   -0.4832380595   -0.4046135914
 H   -2.2889798525    0.6194045380   -1.4173694740
 H   -1.3853477023   -3.4762641197   -1.1531086736