13

 O    0.0834957619    1.3911643887   -0.0134801251
 C    0.0515966110   -0.0124599255    0.0354689724
 C   -1.4107655897   -0.5590520921    0.0135459233
 C   -2.0898929721   -0.0896569110   -1.1981422577
 C   -2.5905919447    0.3478339638   -2.1994834493
 C   -1.4215758020   -2.0168565262    0.1317477135
 C   -1.3801583950   -3.2118703968    0.2424619970
 H   -0.3427445981    1.6601090136   -0.8364920416
 H    0.6082992342   -0.4772201162   -0.7902602515
 H    0.5187107013   -0.3120989551    0.9769202082
 H   -1.9204824103   -0.1234789425    0.8840553943
 H   -3.0626103230    0.7089223267   -3.0800240449
 H   -1.3603957434   -4.2693306974    0.3390177814