15

 N    0.0001103107    1.2533826505    0.3583789996
 C   -0.0122248590    0.0066713876   -0.1746140521
 O    0.9483447916   -0.4950931064   -0.7317038100
 C   -1.3224456850   -0.7473166436   -0.0345461935
 C   -1.6249261481   -1.7072492935   -1.1911476208
 C   -1.1646027729   -2.2658871870    0.1066440768
 C   -2.4194675631   -0.1052786197    0.6310691020
 C   -3.3248562458    0.4554254703    1.1937526940
 H    0.8462274285    1.7931703448    0.2910551880
 H   -0.8108468884    1.6377402211    0.8120388092
 H   -2.6669448826   -1.8114516946   -1.4673072850
 H   -0.9100341243   -1.6742044346   -2.0042059493
 H   -0.1394500083   -2.6099621133    0.1687928541
 H   -1.8818492599   -2.7641227675    0.7471574985
 H   -4.1343570333    0.9340386159    1.6870262184