15

 N   -0.3229470598   -1.2089746477   -0.1501063969
 C   -0.1413642446   -0.0817307031    0.0342646337
 C   -0.0173359623    1.3543854763    0.0908968259
 C    0.5493210822    2.1419486919    1.2337125092
 C    1.3772607460    1.4646973282    2.2955638792
 O    1.5824794134    0.0671785796    2.0928699450
 C    2.6033667285    0.9650650093    1.6481559907
 C    2.5207801624    1.3032316230    0.1664474346
 N    1.2671977004    2.0712376436   -0.0535841492
 H   -0.8110920345    1.8349144898   -0.4789544593
 H    0.0837039320    3.0899747569    1.4897745792
 H    1.3178830906    1.7991961333    3.3266351641
 H    3.5635588765    0.8745815752    2.1502938823
 H    3.3541587934    1.9520596149   -0.1208310458
 H    2.5481676360    0.4091073888   -0.4639166026