18

 C   -0.0048823937    1.5814122379    0.0939124744
 C   -0.0330528607    0.0510457247   -0.0077358972
 O    0.6540983565   -0.5429096052    1.0811942260
 C   -1.4775416519   -0.4752659241   -0.0305529316
 O   -2.0110784546   -0.1931784090    1.2601851820
 C    0.7037968663   -0.4682142719   -1.2688306163
 O    0.0620430351   -0.0999848943   -2.4759148229
 C    2.1199912531   -0.0531914770   -1.2700878050
 N    3.2152438603    0.3107314596   -1.3216248269
 H    1.0228791852    1.9327200570    0.2104660714
 H   -0.4473495536    2.0523983491   -0.7912204378
 H   -0.5873588714    1.9005956246    0.9611081831
 H    0.0391549697   -0.5182675241    1.8261451163
 H   -2.0563350003    0.0106368731   -0.8249541969
 H   -1.4636461961   -1.5579623910   -0.2205489175
 H   -2.8441156491   -0.6615250827    1.3602753461
 H    0.6785231729   -1.5621040098   -1.2311497401
 H    0.2506474022    0.8285319929   -2.6520425270