22

 C   -0.1978710533    1.3607940106   -0.0040679105
 N   -0.0451044660   -0.0695567398    0.1665077226
 C    1.0575175404   -0.6301542598    0.7497740110
 O    1.9976901328    0.0405786677    1.1535203986
 C    1.0093858562   -2.1232155329    0.8432857440
 C    2.3171023711   -2.8742021909    1.0038590585
 C    1.3495339201   -2.8572328127    2.1482518235
 C    1.6953633585   -2.0703956306    3.3977830589
 C    0.5513569622   -4.1214907870    2.4123927226
 H   -0.3707065362    1.6195428977   -1.0546569415
 H   -1.0293513202    1.7534317408    0.5933249875
 H    0.7291842912    1.8266703650    0.3317194637
 H   -0.7962356899   -0.6737737576   -0.1208493333
 H    0.2420742333   -2.5995864288    0.2389539799
 H    2.4466796682   -3.7886318874    0.4345105084
 H    3.1951675216   -2.2421613430    1.0797137572
 H    2.2279701430   -1.1506871325    3.1548317853
 H    0.7894404603   -1.8061610109    3.9564544837
 H    2.3235448996   -2.6784465920    4.0592537982
 H    1.1078756600   -4.7963078929    3.0734203264
 H   -0.4022870060   -3.8926636764    2.9023570137
 H    0.3339889230   -4.6661896266    1.4880236716