13

 O    0.0843465283    1.3371238104    0.0072315197
 C   -0.0283965085    0.0055530299    0.0010319749
 C   -1.1996870409   -0.6776240795    0.0036422074
 O   -2.3959685398   -0.0276087071    0.0131703334
 N   -1.1992707570   -2.0376847646   -0.0032786099
 C   -0.0818078220   -2.6895223816   -0.0124053951
 C    1.2212147805   -2.0474011170   -0.0158792300
 N    2.3310604593   -2.6613332310   -0.0248186430
 O    1.1558415598   -0.6459985470   -0.0084110001
 H    1.0241793830    1.5608417443    0.0033506464
 H   -3.0692965129   -0.7192946236    0.0130199974
 H   -0.0913633555   -3.7739603137   -0.0178956650
 H    3.1209708856   -2.0171758596   -0.0256458460