17

 C   -0.2193224947    1.4420156948    0.2457339087
 N    0.1044154435    0.0212878843    0.2366517489
 C    1.3979518102   -0.4922348373   -0.1563484978
 C    2.5822943072    0.3346462319    0.3341888608
 N    3.3629800764   -0.3521598771    1.3454211273
 C    2.0670585557    0.2078683625    1.7676893040
 C    2.0679517089    1.2428669077    2.8200861649
 O    1.0766259406    1.5907734523    3.4155398225
 C    0.8872125183   -0.6184075008    1.2690695105
 H    0.6079117468    2.0998194582    0.5392122441
 H   -0.5512387347    1.7253202829   -0.7576952421
 H   -1.0448555814    1.6038665118    0.9431853255
 H    1.4477621804   -1.2474503820   -0.9339922865
 H    3.0207454714    1.2098904777   -0.1306920833
 H    3.3046911677   -1.3648421968    1.2528677664
 H    3.0671320523    1.6861237475    3.0171286593
 H    0.4749175413   -1.4844800077    1.7751208267