16

 C   -0.1383261756    1.3689546625   -0.0241732900
 N   -0.0316552264   -0.0759332113    0.0379150923
 N   -0.1278967090   -0.8057368761   -1.0786541201
 C   -0.0104044119   -2.0842025649   -0.7015615591
 C   -0.0689626574   -3.1853359003   -1.7123155216
 C    0.1638184631   -2.1775916394    0.6922552120
 C    0.1449538752   -0.8656375921    1.1402806018
 C    0.2750839293   -0.3363087870    2.4451430137
 N    0.3807187875    0.1105084124    3.5090056876
 H    0.0476382470    1.7796535683    0.9686024811
 H    0.5994710221    1.7604652377   -0.7276992423
 H   -1.1383587371    1.6586936190   -0.3570863563
 H    0.8563119005   -3.7709424123   -1.7180296560
 H   -0.8914052097   -3.8767294555   -1.5011574160
 H   -0.2178798322   -2.7656171791   -2.7089868335
 H    0.2892867419   -3.0599102316    1.2980255861