23

 C    0.3700781385    1.6924326123   -0.0658619654
 C    0.0235857993    0.2072615066    0.1020357078
 C    0.5407416316   -0.6534836575   -1.0733010325
 C    1.9692868165   -1.1271005069   -0.6700504379
 C    2.1350345188   -0.7666001535    0.8257959421
 C    0.7156809935   -0.4170765454    1.3379920176
 O    0.7287004000    0.5029415055    2.4191362469
 C   -0.0315118274   -1.6736595476    1.8045477624
 O    0.6372369203   -2.1370010479    2.9779483171
 H    1.4446027473    1.8429353797   -0.2149839844
 H   -0.1460707723    2.1005544277   -0.9409637610
 H    0.0742527787    2.2651220646    0.8151058475
 H   -1.0656134921    0.1227034854    0.1988507912
 H   -0.1143916255   -1.5163219338   -1.2314188898
 H    0.5394174186   -0.0902225947   -2.0109994786
 H    2.0821695646   -2.2017570457   -0.8398430152
 H    2.7378795009   -0.6399267663   -1.2759987874
 H    2.5885462266   -1.5668575840    1.4156994694
 H    2.7584317886    0.1225843524    0.9528716632
 H    0.9310071579   -0.0217231817    3.2041700957
 H   -1.0719640589   -1.4027038521    2.0323835604
 H   -0.0345305996   -2.4475007655    1.0240116901
 H    0.0797233641   -2.7869672715    3.4136668908