23

 C   -0.5582298691    1.3305469008    0.5242762901
 C   -0.1552028460   -0.1401134584    0.5702900455
 C    1.2384787882   -0.3787581356    1.1299566580
 O    1.9670984515    0.5302238989    1.4582255626
 C    1.6770683137   -1.8344943338    1.2957021965
 C    1.6447581998   -2.2144945152    2.7690711146
 C    0.3961799785   -2.7751173998    3.4134491514
 C    1.6191698141   -3.6470767662    3.2516184249
 C    1.6167743533   -4.8353109055    2.3145164630
 H    0.1466395655    1.9068486860   -0.0802613765
 H   -1.5588157030    1.4477699596    0.0986773529
 H   -0.5549575206    1.7666680037    1.5266398133
 H   -0.8580961509   -0.7343572564    1.1715462939
 H   -0.1885354350   -0.5953257633   -0.4303820389
 H    1.0397402675   -2.4986320634    0.7048902872
 H    2.7016848295   -1.9151929316    0.9148844499
 H    2.2230553107   -1.5270910758    3.3798593396
 H    0.1149176957   -2.4306305416    4.4025929852
 H   -0.4491334429   -2.9904294920    2.7652754979
 H    2.1883704089   -3.8173293680    4.1624107020
 H    0.9999401332   -4.6596400089    1.4282601007
 H    2.6292607665   -5.0770160638    1.9720575649
 H    1.2162846909   -5.7223662798    2.8174001914