17

 N   -0.0838538131    1.4740032489   -0.1258689924
 C   -0.0108809009    0.0208487947   -0.0501146245
 C    0.0818794160   -0.4996396264    1.4125983855
 O   -1.2721400911   -0.9879993294    1.3747629408
 C   -1.3886105151   -0.6633434838   -0.0062310456
 C   -2.6709375418   -0.2520345297   -0.6363579364
 C   -2.0217408677   -1.5840303591   -0.9931906651
 C    0.9442486784   -0.5707431141   -0.9970300335
 N    1.6977688836   -0.9946916683   -1.7655538669
 H    0.8442909145    1.8736410532   -0.0102497128
 H   -0.4055916151    1.7593711557   -1.0470435653
 H    0.8070416393   -1.3037335402    1.5736033018
 H    0.2155099393    0.2996088928    2.1469674365
 H   -3.5479311571   -0.2714428450    0.0015929172
 H   -2.6659033517    0.5461277798   -1.3715776356
 H   -1.5595192550   -1.6952443651   -1.9687796483
 H   -2.4724154926   -2.4860390540   -0.5939669354