21

 C   -0.0230153102    1.3694854454    0.0256999327
 O   -0.0394595742   -0.0356552735    0.1058884420
 C   -1.3339687385   -0.5770361109   -0.0382782995
 C   -1.2235417394   -2.0929542105    0.0813749894
 C   -2.5866446828   -2.8100184601   -0.0174434265
 C   -2.4068502956   -4.3107033074   -0.2257677808
 O   -3.7022840213   -4.8856982436   -0.2812162281
 C   -3.3783995836   -2.5630737022    1.2567397702
 O   -4.2195085700   -1.7143804544    1.3944491730
 H    1.0128930497    1.6927932291    0.1540123312
 H   -0.3889450315    1.7282937435   -0.9496195735
 H   -0.6404713981    1.8312530461    0.8123163612
 H   -2.0137516721   -0.1721724770    0.7285055032
 H   -1.7612282277   -0.3040861168   -1.0189377357
 H   -0.5606619276   -2.4601890520   -0.7104805834
 H   -0.7343128644   -2.3361171188    1.0332493401
 H   -3.1678076310   -2.3986821924   -0.8502027627
 H   -1.8403495744   -4.4898363246   -1.1519967010
 H   -1.8166613991   -4.7298075916    0.6064814692
 H   -3.6134699532   -5.8416507805   -0.3370675835
 H   -3.0800876051   -3.2213077280    2.1079889125