22

 C   -0.2700457435    1.1586590869    1.0475314021
 C   -0.0885061961   -0.0530644825    0.1524024073
 O   -1.3321583048   -0.7700241580    0.1390252908
 C   -1.3838182533   -1.8919814917   -0.6106626926
 N   -0.3742202241   -2.2800983582   -1.2755622514
 C   -2.7630858479   -2.5251052951   -0.4961702273
 C   -3.0012151950   -3.6464895642   -1.5089173357
 C   -2.9971891259   -3.0058201606    0.9442099025
 O   -4.3485881270   -3.4314379474    1.0414709473
 H    0.6582814447    1.7365246742    1.0844814687
 H   -1.0652535029    1.8078316834    0.6698362038
 H   -0.5287564143    0.8575875700    2.0669247253
 H    0.1722618358    0.2286655640   -0.8731061657
 H    0.7044623395   -0.7168503647    0.5129791343
 H   -0.5846721799   -3.1360967830   -1.7827550147
 H   -3.4905778372   -1.7228494325   -0.6718425682
 H   -4.0109577764   -4.0411999093   -1.3845423905
 H   -2.8900074238   -3.2881571941   -2.5364261946
 H   -2.3010725211   -4.4765095759   -1.3566514695
 H   -2.3014274584   -3.8309934065    1.1693165751
 H   -2.7839386635   -2.1834895571    1.6387004977
 H   -4.5002380149   -3.7481758278    1.9364249854