18

 C    0.1514474685    1.5164992624   -0.1736918553
 C    0.0110806754    0.0254232322    0.0033068188
 C   -1.2516607796   -0.6107179766   -0.5477263056
 O   -2.3462383677   -0.4770918880    0.3721530695
 C   -2.2941058526   -1.1353110029    1.5644186328
 N   -1.3901230339   -1.7725160340    2.1709545511
 C   -0.0146758343   -1.9386166624    1.7031600085
 C    0.6283433185   -0.6787600762    1.1355247836
 O    1.2024557603   -0.7526469347   -0.1797051689
 H    1.0383790140    1.8886698249    0.3443167199
 H    0.2410397873    1.7713931615   -1.2355054459
 H   -0.7306548168    2.0290865991    0.2238502433
 H   -1.5909260420   -0.1112353471   -1.4587128779
 H   -1.0750697946   -1.6643610915   -0.7771633766
 H   -3.2750989873   -1.0416735587    2.0313305075
 H    0.5712436801   -2.2835415718    2.5610130687
 H    0.0459694717   -2.7376455873    0.9561005969
 H    1.2165846828   -0.0855699587    1.8356441596