15

 C   -0.0286875034    1.4542163288    0.0730709337
 N   -0.0240776341   -0.0046364401    0.0886851380
 C   -1.2134633243   -0.6625275021    0.0469599374
 N   -2.3988246277   -0.1041370103    0.1360912352
 C   -3.2454626279   -1.1859667606    0.0909222828
 N   -2.6912046559   -2.3631138463   -0.0266990567
 N   -1.3431196033   -2.0427179038   -0.0477177229
 C   -0.3437463500   -3.0140359924   -0.0841014478
 O   -0.5296746685   -4.1936506038   -0.1686009759
 H    0.9916804668    1.8040108220    0.2406984370
 H   -0.4044689713    1.8635431485   -0.8725262993
 H   -0.6685363687    1.8186760295    0.8779399720
 H    0.7559939155   -0.4454578154   -0.3705245509
 H   -4.3191671767   -1.0748741206    0.1409493551
 H    0.6604636194   -2.5554964435   -0.0149427277