17

 C   -0.0470857404    1.5156551506    0.0105290158
 C    1.4119620631    1.9068520445   -0.0009878026
 C    2.1959868204    0.8156257882   -0.0144747628
 C    1.3666213658   -0.3914971284   -0.0134052796
 C    1.7062618706   -1.7418487598   -0.0241351782
 C    0.6831515485   -2.6902920708   -0.0198100144
 C   -0.6550577674   -2.2960081651   -0.0050275465
 C   -0.9976811756   -0.9401854078    0.0057617334
 C    0.0136172789    0.0058569042    0.0015339615
 H   -0.5692056000    1.9070465661    0.8944942539
 H   -0.5856935198    1.9168447848   -0.8590334537
 H    1.7481851670    2.9358912006    0.0016036786
 H    3.2794070559    0.8068343498   -0.0247143757
 H    2.7459447151   -2.0536868084   -0.0356531860
 H    0.9306050570   -3.7469016793   -0.0280357826
 H   -1.4375761560   -3.0475596615   -0.0018679324
 H   -2.0417606931   -0.6413707277    0.0172446212