18

 C    0.0080494785    1.5757111381    0.0020351008
 C    0.0794678216    0.0491875533    0.0128239349
 C    0.8188021260   -0.5766571634   -1.1577363981
 O    2.2555594882   -0.5751783564   -0.9976951923
 C    1.5195773085   -1.7826734228   -0.7032498234
 C    1.2605879552   -1.9708759801    0.7780449775
 C    0.8116587730   -0.5625042534    1.2497603318
 O    1.9140731963    0.2187514484    1.6739948248
 H    1.0075759491    2.0153467362    0.0150099071
 H   -0.5167666470    1.9345769123   -0.8894207867
 H   -0.5270485879    1.9473131405    0.8811273818
 H   -0.9425068262   -0.3574607799   -0.0094046548
 H    0.4765608808   -0.4392175077   -2.1807151807
 H    1.7404173890   -2.6218471463   -1.3573424339
 H    0.4657295231   -2.7150357906    0.9129025780
 H    2.1372152620   -2.3057959750    1.3394320909
 H    0.1425615708   -0.6179519835    2.1122663353
 H    2.5187055791    0.2424691203    0.9195685770