16

 C   -0.3649841608    1.0952780668   -0.1719435525
 C    1.1008602050    1.0564888927    0.2190007399
 C    0.3501730008   -0.2120530852   -0.0077019251
 O    0.0989795682   -0.9759877756    1.1521647277
 C   -0.9042245990   -1.8639893523    1.0709428136
 N   -1.6343427117   -2.0892907702   -0.0179965392
 N   -2.4701357868   -3.0488406728    0.3930661091
 N   -2.3398418639   -3.4556885598    1.6438548373
 C   -1.3378249078   -2.7117377306    2.1098529245
 H   -1.0745435812    1.3665831689    0.6010718341
 H   -0.6391698402    1.4073442031   -1.1732186170
 H    1.8511035353    1.3462315492   -0.5076581018
 H    1.3445068591    1.2992563130    1.2469852388
 H    0.5535478404   -0.8175103739   -0.8852990799
 H   -3.1666163814   -3.4347802791   -0.2216197939
 H   -0.9787569460   -2.8045733442    3.1208387744