19

 O   -0.0329798828   -0.1179797240    0.0696412526
 C    0.0206986884    1.0881699469    0.0276866580
 C   -1.2524220018    1.9512471569    0.0140959795
 N   -1.4346456460    2.8629612317   -1.1161843693
 C   -0.3591936706    3.8286136579   -1.3402531770
 C    0.8797299194    3.2525135085   -2.0114987232
 C    2.2599630983    3.5732495103   -1.5528691381
 N    1.7062614119    2.2345789964   -1.3567291801
 C    1.3625140216    1.8322700564    0.0113427913
 H   -2.1053261968    1.2692567108    0.0587049368
 H   -1.2570497709    2.5526934542    0.9351859667
 H   -1.6090462314    2.3317404062   -1.9637014126
 H   -0.7464248286    4.6356791139   -1.9741875878
 H   -0.1114683132    4.2843698201   -0.3753910203
 H    0.7344048959    3.0431362969   -3.0721416229
 H    3.0820880261    3.6497222031   -2.2595460041
 H    2.3542479851    4.2150422578   -0.6769734219
 H    1.3064482626    2.6843309473    0.7092620705
 H    2.1353418229    1.1468141286    0.3690448618