8

 O    0.0042383718   -0.1057092250    0.1078403288
 C    0.0250462180    1.0536353201   -0.1922017436
 C    1.3123048430    1.8923989627   -0.1480683899
 C    1.3388524814    2.9341700296   -1.1668183235
 N    1.3216244419    3.7481833171   -1.9862586108
 H   -0.8851595976    1.6102614716   -0.4960844534
 H    1.3618107217    2.3610326669    0.8446624250
 H    2.1734352197    1.2247427870   -0.2380540726