14

 C    0.1251184884   -1.1900372988   -0.0356822351
 C    0.0202785197    0.0094501700   -0.0005389686
 C   -0.0409990561    1.4140226289    0.0412736193
 C   -1.1286834814    2.2095838611    0.0586770892
 C   -0.7010794562    3.6590300043    0.1048268639
 O    0.7180048135    3.6232455004    0.1118380523
 C    1.1940792302    2.2876042258    0.0749557065
 C   -2.4839796975    1.8068434374    0.0385111387
 N   -3.6057962381    1.5171179564    0.0231090127
 H    0.1947253788   -2.2498485568   -0.0665995058
 H   -1.0659317460    4.2198881261   -0.7680514671
 H   -1.0761396910    4.1663470123    1.0057047058
 H    1.8109454992    2.0734384320    0.9600263491
 H    1.8219167066    2.1264308309   -0.8136152009