15

 O    0.2262292648    0.0620683277   -0.1237228113
 C    0.1009048007    1.2416267297   -0.0813000991
 O   -1.0280888142    1.9191521547   -0.3944256738
 C   -0.8548226478    3.3137672286   -0.1521686467
 C    0.6650972004    3.4569691648    0.1045675947
 O    1.0778729184    2.1076641195    0.3140669072
 C    1.4027036602    4.0732246362   -1.0654586522
 C    2.6100770816    3.4746722292   -1.6424664656
 O    1.3340316759    3.3439929238   -2.2850641500
 H   -1.1872858733    3.8669213015   -1.0328819762
 H   -1.4567466404    3.6049023064    0.7137573899
 H    0.8772188063    4.0263500863    1.0145113938
 H    1.2487826878    5.1502291034   -1.1627208451
 H    3.3243501327    4.1132500475   -2.1585055758
 H    3.0041832270    2.5577841808   -1.2141765498