19

 C   -0.0843711026    1.4195925091   -0.1116464131
 C   -0.0111593331   -0.0697847111    0.1033204494
 O    1.3005103534   -0.6684718199    0.0466165807
 C    0.6106027974   -0.6811563357    1.2811755803
 C    1.2472868596   -0.0873537046    2.5564416523
 C    0.9443290400   -1.4129722146    3.2770060163
 C   -0.5407622172   -1.6890472054    3.2256874857
 C    0.3094618288   -1.9832285499    2.0136367290
 O    0.4608405177   -3.2444475883    1.4811828160
 H    0.6796521693    1.9370876957    0.4741500648
 H    0.0691249727    1.6654215554   -1.1677927754
 H   -1.0684383332    1.8013759599    0.1819863546
 H   -0.7719408193   -0.6524704777   -0.4220174302
 H    2.3145997385    0.0867143857    2.4011606908
 H    0.7868240290    0.8111044436    2.9800072298
 H    1.5921291238   -1.9032429624    3.9916193515
 H   -0.8551049386   -2.5795047717    3.7614740788
 H   -1.2604493255   -0.8728498189    3.2355550342
 H   -0.3806878106   -3.5230732193    1.1039171245