18

 C    0.1264689879    1.5291709520    0.2311173291
 C   -0.0032722331    0.0385271785   -0.1144475895
 C   -1.4284192982   -0.4285421587   -0.0533614008
 C   -2.0679634551   -0.9970349845    1.1392272393
 N   -1.8004716050   -1.9352512359   -0.0064575521
 C   -2.8742201960   -1.6469855574   -0.9350150942
 O   -3.6962772854   -2.3728826172   -1.4014717928
 C   -2.4802223905   -0.1633500434   -1.1283955693
 O   -3.4167917427    0.8440324454   -0.8399062977
 H    1.1667714137    1.8564771781    0.1502590487
 H   -0.4765074909    2.1452514648   -0.4434272344
 H   -0.2139857825    1.7280779407    1.2521346675
 H    0.3952525896   -0.1481345112   -1.1192926485
 H    0.5964021718   -0.5648314142    0.5759532586
 H   -1.4372668273   -1.2185164943    1.9941845018
 H   -3.0987776965   -0.7562475270    1.3814343183
 H   -2.0110882457   -0.0262624550   -2.1153512560
 H   -4.1441451841    0.7597561596   -1.4668762781