19

 C   -0.2410596785    1.4843139198    0.2745082254
 C   -0.0463424781   -0.0310306509    0.1606915616
 O    0.6527002839   -0.5337736258    1.2804581463
 C   -1.4016172364   -0.7225498713   -0.0510333735
 N   -1.3278604528   -2.1818496528   -0.1808657692
 C   -1.3197195071   -2.9893776392    0.9459186024
 N   -1.2509041739   -2.4936666081    2.1175084307
 C   -1.3354283384   -2.7773524029   -1.4349479160
 O   -1.2846329593   -3.9650906603   -1.6407289492
 H    0.7258985222    1.9598169655    0.4547197593
 H   -0.6717679261    1.9098200299   -0.6389746668
 H   -0.8988064196    1.7272269853    1.1163630097
 H    0.5783007704   -0.2377618608   -0.7229085184
 H    0.0241570677   -0.9899125873    1.8638866547
 H   -2.0666320379   -0.5016259359    0.7894632671
 H   -1.8688918421   -0.3329363201   -0.9605633459
 H   -1.3872143756   -4.0468893733    0.6897125877
 H   -1.2768079614   -3.2259145393    2.8227339173
 H   -1.3980237270   -2.0230410126   -2.2403131535