16

 C    0.1094864150   -1.1938856419   -0.2193800755
 C    0.0898429306    0.0077491513   -0.1800261759
 C    0.0689758513    1.4440923215   -0.1680408481
 O    0.2886277103    2.1032181315    1.1005306990
 C    1.2840965229    2.2361685226    0.1125614196
 C    2.7253623523    1.7407110884    0.2171126073
 C    3.1140212256    2.8733779815   -0.7831070360
 C    1.7265712266    3.5453472137   -0.5441372111
 H    0.1208978287   -2.2556414421   -0.2440803279
 H   -0.7121613500    1.9060336902   -0.7714708578
 H    3.1309089327    1.9076042605    1.2191127153
 H    2.9151619531    0.7060825662   -0.0760812627
 H    3.9919096899    3.4686573133   -0.5287209096
 H    3.2244283339    2.5032006700   -1.8045812467
 H    1.1659818812    3.8921147231   -1.4153145892
 H    1.7761499558    4.3550629802    0.1900541194