23

 C    0.0349039902    1.4859943824    0.1191794517
 C    0.0248917931   -0.0104890831    0.0005276562
 C   -0.9700309642   -0.8769678035    0.8006185375
 C   -1.0795716923   -2.2463803383    0.1337531174
 C    0.4219753230   -2.0712655030   -0.2109375544
 C    0.5242201492   -1.0378095740    0.9848253148
 C    0.5001524495   -0.8557116687   -1.1982133522
 C   -0.3570796298   -0.8656794602   -2.4649693503
 C    1.9601639812   -0.5556454972   -1.5518975051
 H    1.0178839138    1.9024545160   -0.1284968355
 H   -0.7004176302    1.9469055937   -0.5511965109
 H   -0.2083763537    1.8020765215    1.1394930983
 H   -1.6687782013   -0.4097297281    1.4843565093
 H   -1.2185176382   -3.0292940253    0.8855527855
 H   -1.7900483262   -2.4050708854   -0.6842234696
 H    1.0658312026   -2.9355352197   -0.3714955045
 H    1.1536115336   -0.9664652431    1.8604341780
 H   -1.4221370425   -0.9765464948   -2.2486136508
 H   -0.2323134593    0.0721643351   -3.0187867561
 H   -0.0600027772   -1.6806045454   -3.1361530987
 H    2.3479073643   -1.3015106228   -2.2552742694
 H    2.0633580094    0.4264567800   -2.0272734801
 H    2.5978969847   -0.5672974263   -0.6622678112