17

 C    0.0935262647    1.2857592291    0.4998437062
 C    0.0671838712   -0.1153520452   -0.0655868651
 C   -1.0303337483   -0.8756796637    0.0502741572
 C   -1.3364839659   -2.2536332294   -0.4458497566
 O   -0.3082207521   -2.9094095235   -1.1585191872
 C    0.9370150517   -2.8353699946   -0.5490863683
 O    1.7042303097   -1.7397061784   -1.0221945512
 C    1.3323615602   -0.4522542665   -0.8008857052
 O    2.0649372480    0.4203028658   -1.1922045960
 H    0.9247722394    1.4105711811    1.2016398093
 H    0.2544753224    2.0143587261   -0.2990432787
 H   -0.8403799455    1.5177490775    1.0166738860
 H   -1.8724963595   -0.4426499743    0.5899535220
 H   -1.6556326268   -2.8671396259    0.4156534440
 H   -2.1956353796   -2.2138393794   -1.1270386159
 H    0.8499920982   -2.7914487066    0.5456434885
 H    1.5101589222   -3.7136517422   -0.8498316989