18

 C   -0.1640553227    1.5809507860   -0.0862924889
 C    0.0138914747    0.0722409852   -0.0478640051
 O   -1.2146095143   -0.5846334075    0.1860390251
 C    0.6872173500   -0.6327277874   -1.2300016211
 C    2.1273247419   -0.2291612029   -1.3731822090
 C    1.7586105026   -1.2370017147   -0.3266567917
 C    1.1524400685   -0.5389890246    0.9035145590
 C    2.0046719473    0.3643503783    1.6603920094
 N    2.6657452315    1.1155303129    2.2413948809
 H    0.7725555026    2.1018290377   -0.2956631367
 H   -0.8931150136    1.8435898963   -0.8586216799
 H   -0.5299644191    1.9516747201    0.8790715838
 H   -1.6696721163   -0.1276475383    0.9023170072
 H    0.1227194638   -1.1017556189   -2.0256027576
 H    2.6289032559   -0.6369426163   -2.2444104743
 H    2.4721069308    0.7617282808   -1.0913628685
 H    2.1606098353   -2.2413341620   -0.3111396684
 H    0.6669606410   -1.2475632448    1.5770305659