14

 N   -0.0086590073    0.9861613300    0.0712465822
 H    0.0212232533   -0.0198878315    0.0454345168
 H    0.8368603165    1.4836560079   -0.1508000643
 C   -1.2101826616    1.5771310320    0.0157360310
 N   -1.3544337901    2.9288393951   -0.0812031778
 C   -2.7848787263    3.3341147589    0.0003864887
 C   -3.4465861402    1.9923837697    0.0334925255
 C   -2.4768185688    0.9864166325    0.0512571732
 N   -3.1093131969   -0.2168128513    0.0446313279
 N   -4.3907989705    0.0698948373    0.0302745488
 N   -4.6388228655    1.4368815653    0.0119966710
 H   -0.6206616676    3.5607907158    0.1989034102
 H   -2.9518955657    3.9306109361    0.9043002240
 H   -3.0519159092    3.9429600722   -0.8692336272