19

 C    0.0470575212    1.5815148824   -0.4083697513
 C    0.0791867358    0.0894384446   -0.0513125053
 N    0.6238690216   -0.8013821978   -1.0621101713
 C    0.1702736037   -0.9588497639   -2.4481846134
 C    0.8310505501    0.0338718564   -3.3816235531
 C    1.6352862063   -1.1362645438   -2.8728483527
 O    2.2543355642   -1.9867058528   -3.7518096385
 C    1.9829045069   -0.9355755407   -1.4161019144
 N    3.0871346302   -0.9612513336   -0.7999887018
 H    1.0527990220    1.9581683578   -0.6189499575
 H   -0.5818779133    1.7674301391   -1.2835164957
 H   -0.3627931306    2.1580906258    0.4273077085
 H    0.6768095316   -0.0624941908    0.8554648357
 H   -0.9323411825   -0.2563718904    0.1912502750
 H   -0.7006961466   -1.5543603123   -2.6896128510
 H    0.5558858025   -0.0793145209   -4.4273544544
 H    1.0453750558    1.0529894035   -3.0754826606
 H    2.5714913322   -2.7485840560   -3.2529522136
 H    2.9665368588   -0.7934717267    0.2010200355