16

 C   -0.1608187387    1.4160484933    0.0625906933
 C    0.0779805988   -0.0762645025    0.1106661759
 C    1.4558486094   -0.5803536598   -0.2448079923
 C    0.9848075996   -0.6285901404    1.2117674314
 C    1.0130595891   -2.1404934216    1.0710282445
 C    0.5718242416   -3.4373206091    1.1803726811
 N    0.8056028178   -4.0425413006   -0.0346713000
 N    1.2861141241   -3.1886352739   -0.9045228617
 N    1.4761127767   -2.0557732287   -0.1988755131
 H    0.7326872247    1.9748827977    0.3598311819
 H   -0.4357009144    1.7323308764   -0.9483861907
 H   -0.9732438424    1.6995205570    0.7387044717
 H   -0.7634012836   -0.6952980712   -0.1896285656
 H    2.2446931403   -0.0095701802   -0.7139539626
 H    1.3361064232   -0.0342136587    2.0427219705
 H    0.1523065340   -3.9917984276    2.0025166357