17

 C    0.0002274783    1.5245924252    0.0574837403
 C   -0.0210449222    0.0316246956   -0.0449707148
 C    0.6442965746   -0.8200986591   -1.1695019338
 C   -0.2461951234   -1.9759874091   -0.5473539854
 O   -0.5260141360   -3.1908302857   -1.1292012637
 C    0.3421294020   -2.0183432686    0.8706886554
 O    0.4751924736   -0.6053546763    1.1537073844
 C   -1.2643919078   -0.8336965118   -0.3747396158
 O   -2.4150635104   -0.6799138662   -0.6635671109
 H    1.0227094133    1.8899904588    0.1896592831
 H   -0.4206196122    1.9734579204   -0.8460950168
 H   -0.5948576079    1.8501507975    0.9154322397
 H    0.3471853649   -0.5342272200   -2.1805405328
 H    1.7242215120   -0.9503330084   -1.0782738226
 H   -1.2930885846   -3.0785955245   -1.7037171921
 H   -0.3343201912   -2.4959641531    1.5882426074
 H    1.3207255569   -2.5098121748    0.9133939985