11

 N    0.1944338027   -1.0850453751   -0.0053287903
 C    0.0754906020    0.0666299060    0.0022979910
 C   -0.1056679906    1.4672601966    0.0120579017
 C   -1.2382229217    2.2387533620    0.0323016409
 C   -0.7966643327    3.5859039158    0.0328152779
 C    0.5728367353    3.5373219769    0.0128606335
 O    1.0074052291    2.2486585900   -0.0000238027
 C    1.5479910785    4.5589192964    0.0040355324
 N    2.3256826317    5.4166477410   -0.0027871381
 H   -2.2531743945    1.8760780364    0.0450699356
 H   -1.4000157099    4.4789964841    0.0460631681