17

 C    0.0272174651    1.5670568289    0.0735038307
 C   -0.0571967768    0.0452488754    0.0140291884
 N    0.7222924389   -0.5465728740    1.0851251424
 C    0.8363508438   -1.8816304354    1.3146724665
 C    0.3820273382   -2.8763547987    0.4182479800
 N    0.5559909988   -4.1538446525    0.6935270343
 C    1.1722787078   -4.4185782737    1.8541714003
 N    1.6019373711   -3.5200310954    2.7350907240
 N    1.4312353563   -2.2352664106    2.4686246263
 H    1.0641010638    1.9042069111   -0.0180264734
 H   -0.5514395804    2.0114960502   -0.7398100558
 H   -0.3760884529    1.9454464795    1.0188993254
 H   -1.1099147289   -0.2728364043    0.0709747816
 H    0.3266506882   -0.3053196238   -0.9532874324
 H    0.9840890813    0.0336736197    1.8685941790
 H   -0.1194694840   -2.6225610328   -0.5118913420
 H    1.3357532696   -5.4591144836    2.1128096346