25

 C   -0.4219128475    1.4831387721    0.0661810351
 C    0.0914536257    0.0462453423   -0.0597692642
 C    0.6558380680   -0.5112910101    1.2517991690
 C    1.1629807714   -1.9538524890    1.1196593587
 C    1.6870728443   -2.5562656613    2.4154166099
 C    2.9756463267   -1.9564513703    2.9480809708
 C    0.6659836993   -3.0380787395    3.4368876114
 C    1.4840482294   -4.0313592467    2.6465148344
 O    0.8770259173   -4.7802451361    1.6318312303
 H    0.3781862319    2.1637402023    0.3786165845
 H   -0.8193277709    1.8520631267   -0.8847563635
 H   -1.2225195643    1.5537272462    0.8111567576
 H   -0.7211654193   -0.6048913217   -0.4085868999
 H    0.8669369915    0.0009265811   -0.8360335716
 H    1.4656427884    0.1441661189    1.5986812841
 H   -0.1199183687   -0.4701123688    2.0286716371
 H    0.3605963603   -2.5902829091    0.7341117064
 H    1.9625796289   -1.9886716705    0.3660582546
 H    2.8475802059   -0.9031449104    3.2201578774
 H    3.3202804519   -2.4844980782    3.8429711949
 H    3.7737473776   -2.0136933687    2.1983802620
 H    0.8710864831   -2.9090487149    4.4949524483
 H   -0.3818358438   -2.9526884717    3.1655095288
 H    2.2816825048   -4.5577874061    3.1727981939
 H    0.2689767984   -5.4007130667    2.0463933198