19

 C   -0.0034193002    1.5734261678    0.0029363164
 C    0.1361143855    0.0656930370   -0.0767105744
 C    0.7184283829   -0.7282118271   -1.2081503190
 C    0.0113209350   -1.8707941928   -1.8751138456
 C    1.9137579524    0.0255644018   -1.8127099756
 C    2.6074392430   -0.0829136155   -0.4256931696
 O    3.7422995668    0.0693204655   -0.0703159062
 C    1.4075869133   -0.7299817178    0.2045471728
 O    1.4486394026   -1.7411759437    1.1372813132
 H    0.8610463424    2.0980365905   -0.4101135567
 H   -0.8913486447    1.9092667832   -0.5438758042
 H   -0.1148708020    1.8953792655    1.0438015869
 H   -0.7027055851   -0.4657011415    0.3752259669
 H   -0.6662657374   -1.5153603161   -2.6601410116
 H    0.7251422741   -2.5600442050   -2.3389431342
 H   -0.5822693044   -2.4371251338   -1.1505893759
 H    2.4694369464   -0.5664501539   -2.5470544506
 H    1.7376033615    1.0241666178   -2.2203714425
 H    1.2334555380   -1.3804091819    2.0040495601