13

 O    0.0342296151    0.0246945584    0.4722297335
 C   -0.0080959665    1.1873970920    0.1330004637
 C   -1.2925737283    1.9061532976   -0.0691055322
 C   -1.3765722411    3.0428758925   -0.7756518874
 C   -0.1918543743    3.6737766794   -1.4126309272
 O   -0.2957516069    4.4896739524   -2.3027219156
 C    1.1569765300    3.2318941263   -0.9083483355
 O    1.3051242607    3.2496273137    0.5107697056
 C    1.2499255536    1.9741183065   -0.1265490260
 H   -2.1714173725    1.4088434755    0.3294704450
 H   -2.3276317783    3.5228849784   -0.9845159609
 H    2.0103096732    3.5879147626   -1.4809035601
 H    2.1721615052    1.3977683347   -0.1196006229