17

 C    0.1032692856    1.2132020664    0.3793242647
 O   -0.0898879372   -0.0537152948   -0.2565039890
 C   -1.3586530647   -0.5813079546   -0.0850806385
 C   -2.4165097037    0.0499202277   -0.8397320171
 N   -3.2764654101    0.5638079398   -1.4198299589
 C   -1.3987551681   -2.0982451325    0.0779424925
 N   -0.1118254392   -2.7466865529    0.1646435387
 C   -1.7210784701   -1.2315467934    1.2735561129
 O   -0.7757644690   -1.1914721659    2.2721187715
 H    1.1366205812    1.5003261033    0.1770425773
 H   -0.5699945750    1.9686415218   -0.0441280582
 H   -0.0576797603    1.1301831483    1.4579587449
 H   -2.2016389671   -2.6225341870   -0.4311569392
 H   -0.1861223520   -3.7328722721   -0.0492488641
 H    0.5557077738   -2.3182011621   -0.4674566056
 H   -2.7454903454   -1.1310890752    1.6173693993
 H   -0.0893260788   -1.8259887567    1.9859947290