14

 N    0.1239231546    1.2724469859    0.0850051273
 C   -0.0272421100   -0.0821680941   -0.0252015405
 N   -1.0867599373   -0.7553940470    0.1860126544
 C   -0.7722103053   -2.1375548435   -0.1566399301
 C    0.7529643927   -2.1242158797   -0.5351083060
 O    1.0986982091   -0.7169775723   -0.4657058547
 C    1.6016279124   -2.9011615124    0.3564338592
 C    2.2767647444   -3.5707010615    1.0910676332
 H    1.0623442839    1.5857196126    0.2796171506
 H   -0.5957222624    1.7210634603    0.6299512161
 H   -0.9632340500   -2.8076542969    0.6869104589
 H   -1.3807288609   -2.4834315432   -1.0003280642
 H    0.9171381372   -2.4414104055   -1.5695195769
 H    2.8787512314   -4.1589072627    1.7390255926