18

 C   -0.1860587496    1.6260072966   -0.0551814969
 C   -0.0670875998    0.1098630598   -0.0107063568
 C    1.1530419818   -0.5844804543   -0.6801315782
 O    1.4733724411   -0.7001640509   -2.0158600127
 C    2.1225084187   -0.2750635211    0.5296156891
 N    2.5363907000   -1.7012293853    0.7458015865
 C    1.1110138655   -1.8014829419    0.2893421392
 C    0.7022216683   -0.5487611394    1.1440829951
 O    0.3317525508   -0.5052020454    2.4633092686
 H    0.7715687310    2.1139704036    0.1578069296
 H   -0.5267512244    1.9669484253   -1.0394202605
 H   -0.9093860735    1.9840100882    0.6840522889
 H   -1.0252072555   -0.3750736934   -0.2335983260
 H    1.5979992861    0.1828691817   -2.3808397730
 H    2.7900649559    0.5719935591    0.6916270195
 H    3.1655252910   -2.0025534111   -0.0025621449
 H    0.5724902440   -2.7418641696    0.1662104227
 H    0.9922322187   -1.0030195018    2.9624736899