19

 C   -0.0309881657    1.5638990849   -0.4516211922
 C   -0.0731031864    0.0900886284   -0.1187091523
 C   -1.4155922548   -0.4711887852    0.3095942987
 N   -1.8135114574    0.1362414711    1.5770881983
 C   -3.0835982351   -0.3743313172    2.0736333816
 C   -3.4359289439    0.2400026589    3.3571270396
 N   -3.7084623905    0.7063190462    4.3778631643
 C    0.9366817422   -0.8281576054   -0.6622848047
 O    1.0132524481   -0.3901702876    0.6969847536
 H    0.9974425801    1.8844660118   -0.6323639740
 H   -0.6257176174    1.7729048172   -1.3475618372
 H   -0.4461154247    2.1493013386    0.3727496886
 H   -2.1764540194   -0.2298717799   -0.4445095759
 H   -1.3483387260   -1.5717475611    0.3659079095
 H   -1.0827314491   -0.0349775045    2.2618024466
 H   -3.8709716864   -0.1299330596    1.3492493908
 H   -3.1111697564   -1.4722920606    2.2035566502
 H    0.7001143545   -1.8823201994   -0.8022490300
 H    1.7112797984   -0.4378328865   -1.3210243354