14

 C   -0.0538931094    1.3948021603    0.0787978837
 O    0.0114542310   -0.0198470537   -0.0142288824
 C    0.6252455139   -0.5398853247   -1.0898672693
 C    1.2028950824    0.1338212106   -2.1200304268
 N    1.8110632490   -0.5067908217   -3.1847711825
 C    1.8085180903   -1.7819904722   -3.1618968205
 O    1.2712288826   -2.5603324587   -2.2012872885
 C    0.6349958459   -2.0075559506   -1.0841471583
 O    0.1721752647   -2.7381615924   -0.2591675963
 H    0.9496885742    1.8370203180    0.1145016662
 H   -0.6063391066    1.8231139082   -0.7669899888
 H   -0.5818928821    1.6115570350    1.0074370841
 H    1.2163897880    1.2161168412   -2.1602060592
 H    2.2590291662   -2.3764414191   -3.9493297014