17

 C   -0.1005034284    1.5386786497   -0.0966277151
 C    0.0078310486    0.0539012185   -0.0067019651
 C    0.6159581038   -1.0199357706   -0.8973762034
 C    1.3699051319   -1.6480572339    0.2714603007
 C    0.2792425017   -0.9883550640    1.1529699822
 O   -0.9273363824   -1.7270413662    0.8169681684
 C   -0.8794522102   -1.0752655009   -0.4577103834
 C   -1.9785710039   -1.1119825206   -1.3508466193
 C   -2.9063878172   -1.1247926246   -2.1170766003
 H    0.8615118970    2.0253936324    0.0996385345
 H   -0.4250454426    1.8330066294   -1.1001268383
 H   -0.8313015719    1.9291459954    0.6196380237
 H    0.8904392625   -0.9512035519   -1.9422427354
 H    1.4512238833   -2.7368506522    0.3356876734
 H    2.3463167530   -1.1762302794    0.4107991624
 H    0.3917432796   -0.8056815178    2.2193193610
 H   -3.7273531646   -1.1426913132   -2.7902137860