21

 C   -0.1167747720    1.5409252990    0.0662589912
 C    0.0357623360    0.0385040380    0.1125162428
 C    1.3232531959   -0.7102810575   -0.2251422155
 C    2.6039886575    0.0472259498   -0.1494392141
 C    2.8474208274    0.4932541037    1.0858449692
 C    1.7714813692    0.0688100361    2.0625907185
 C    0.7705877220   -0.7119061743    1.1991688012
 C    0.1371437500   -1.9358289701    1.7954550662
 O   -0.7268290350   -1.5215435636    2.8502049246
 H    0.8184729519    2.0550652095    0.2988248960
 H   -0.4361017353    1.8660355910   -0.9301070663
 H   -0.8752830143    1.8732555351    0.7836879754
 H   -0.8531893802   -0.4905329111   -0.2267658710
 H    1.2515493372   -1.5808435945   -0.8704941119
 H    3.2297573875    0.2268495795   -1.0166015756
 H    3.6900955078    1.1108574158    1.3770300166
 H    2.1752737719   -0.5644129706    2.8643118283
 H    1.3066186862    0.9270402642    2.5639270748
 H   -0.4196130531   -2.4833702389    1.0175222865
 H    0.9197076365   -2.6126091825    2.1769635918
 H   -1.0406563269   -2.3086592287    3.3055340712