17

 C    0.4211966700    1.5375949591    0.2198753213
 N    1.1787090151    0.3734612300   -0.2648238838
 C   -0.2346371398    0.2077934349    0.1037488607
 C   -0.4930216762   -0.6522426425    1.2899232312
 C    0.5378403963   -1.0343568832    2.3079225543
 C   -0.1445133345   -2.1226938315    1.5000670966
 N   -1.3148985502   -2.7255787425    2.0978015386
 C   -2.1555652136   -1.7812372880    2.2306282996
 O   -1.8296559287   -0.5382030898    1.7840784303
 H    0.7238036961    1.8968102000    1.1989751605
 H    0.1363867904    2.3113221313   -0.4874303650
 H    1.2711673498    0.4052097670   -1.2758377859
 H   -0.9611159149    0.0870131275   -0.6975516348
 H    1.5595421828   -0.8078920023    2.0266225141
 H    0.2941230234   -0.9485133878    3.3616676271
 H    0.4285254148   -2.7298554600    0.8104126514
 H   -3.1423509408   -1.8598200022    2.6701325638