20

 C    0.7792110838    2.2180113011   -1.9692967932
 C    0.4390166029    0.7777155387   -1.6631689209
 C    1.2326152626   -0.3997124939   -2.0832342824
 C    2.7143177394   -0.1861062824   -1.9930968262
 C    3.2243530201   -1.0290017238   -0.8362650891
 O    4.5955640543   -0.9745634447   -0.5751730924
 C    2.4940140322    0.2460267927   -0.5331694321
 C    3.0605417518    1.3179900068    0.3466685388
 N    1.0416585621   -0.0464855318   -0.5885375070
 H    1.8513333869    2.3785105689   -2.0895497335
 H    0.2885948790    2.5154650627   -2.9025526272
 H    0.4139492555    2.8817895293   -1.1782151970
 H   -0.6334912936    0.5861732016   -1.6724620806
 H    0.7629709417   -1.2869051615   -2.4995257209
 H    3.3838587275    0.1900619412   -2.7596798729
 H    2.7421217918   -1.9826393077   -0.6111647613
 H    5.0493092506   -1.4919104521   -1.2482991297
 H    4.1517951858    1.2838838438    0.3188117412
 H    2.7301343192    2.3188270813    0.0568683887
 H    2.7404624265    1.1463185098    1.3808023077