16

 O   -0.0231452680    1.3545202706    0.0038367503
 C    0.0114890055   -0.0433583465    0.0030416974
 C    0.6474971609   -0.7201956028    1.2403657145
 O    0.1573254700   -2.0712126854    1.1665995853
 C   -0.6657200507   -2.1049229032    0.0078643744
 C   -1.3597541504   -0.7420075211    0.0141525244
 O    0.1379696259   -2.0703282275   -1.1643375371
 C    0.6268848801   -0.7192535894   -1.2451839389
 H    0.8819844372    1.6849351025   -0.0028319901
 H    1.7448191218   -0.7208406325    1.2116084931
 H    0.3132154892   -0.2405606794    2.1689566015
 H   -1.2446001832   -3.0259381466    0.0123265639
 H   -1.9389592737   -0.5499754210    0.9186544044
 H   -1.9538958318   -0.5492879558   -0.8804611718
 H    0.2772587595   -0.2388962652   -2.1677268400
 H    1.7245303477   -0.7199350868   -1.2346328613