19

 C    0.2950198653    1.2518522802    0.4459948521
 N    0.0501268924   -0.1311752898    0.0470547193
 C    0.5470581492   -0.4917017566   -1.2737499756
 C    2.0133069075   -0.3108949834   -1.4067142643
 N    3.1541046140   -0.1311696612   -1.4637187743
 C    0.1047380056   -1.9284524970   -1.5814095228
 C   -1.3832435267   -2.0840678309   -1.8007180747
 C    1.0480001356   -2.9199167601   -2.1157902602
 O    0.7144426379   -2.8965483374   -0.7205223940
 H    1.3568615607    1.5431256336    0.4338402799
 H   -0.2496331536    1.9257763035   -0.2245139997
 H   -0.0940503557    1.4008889909    1.4563551473
 H    0.4484764660   -0.7764405662    0.7223032957
 H    0.0775776039    0.1784125088   -2.0061242639
 H   -1.6894533852   -1.6011202973   -2.7350459699
 H   -1.6438460600   -3.1432018956   -1.8546176543
 H   -1.9348397422   -1.6230788848   -0.9778861456
 H    0.6503790614   -3.7685003793   -2.6704150452
 H    2.0717087040   -2.6413147874   -2.3527881899