13

 N    0.1888026080    1.0703181459   -0.6275140224
 C    0.0231559270    0.0345948310    0.2247215274
 O    0.8007838773   -0.2770710167    1.1035076325
 C   -1.2518985112   -0.7824652028    0.0032397453
 C   -1.1653273485   -2.2287911637    0.3530068193
 O   -1.8241076863   -1.3253208406    1.2042839954
 C   -2.3130411593   -0.4218036124   -0.9871887027
 O   -2.2209622628    0.4108973237   -1.8586833568
 H    1.0284860728    1.6199885364   -0.5455604235
 H   -0.4885607401    1.2516382916   -1.3554610503
 H   -1.7982615588   -2.9481765369   -0.1658588223
 H   -0.1922402402   -2.5712841285    0.6969461245
 H   -3.2438515279   -1.0070481370   -0.8382684863