20

 C   -0.0334587163    1.5354297230    0.0102212313
 C    1.4238276082    2.0753711627   -0.0022205774
 C    2.4130054748    0.8779867856   -0.0329958222
 C    2.1848386782    0.0475047390    1.2598934225
 C    0.7278331156   -0.4932258186    1.2708988407
 C   -0.0042879067   -0.0175938243   -0.0139812954
 C    0.8108327282   -0.4542314865   -1.2083196219
 C    2.0627697355    0.0093326085   -1.2180226265
 H   -0.5675546211    1.8721841238    0.9058678364
 H   -0.5929075317    1.9062392250   -0.8531530843
 H    1.5940429074    2.7152381429   -0.8725591925
 H    1.6226312729    2.6848693772    0.8865121042
 H    3.4441647081    1.2379686336   -0.0762429496
 H    2.9049684859   -0.7744633492    1.3008769547
 H    2.3732211467    0.6814427717    2.1336663225
 H    0.7188608102   -1.5858290235    1.3159547750
 H    0.1834623571   -0.1324403764    2.1508707448
 H   -1.0216635364   -0.4162777267   -0.0412833434
 H    0.3913405069   -1.0914629174   -1.9799566869
 H    2.7855199365   -0.2049220303   -1.9985277320