17

 C   -0.3677334916    1.4672043030    0.2467758928
 C   -0.0925034241   -0.0259261198    0.0549130384
 C    0.6570688162   -0.3881751458   -1.2832344853
 C    1.9843832279    0.3646655724   -1.3267270890
 O    2.9008300251    0.0836141242   -0.5954890711
 C    0.9085820057   -1.8976672944   -1.2071447133
 O    0.1049165214   -2.7162291999   -1.5700996260
 C   -0.2409483172   -0.0367205601   -2.4594980997
 O   -0.2189360156    1.0403228094   -3.0019951096
 H    0.5611691521    2.0391230273    0.3306399131
 H   -0.9472744044    1.8859883393   -0.5795262305
 H   -0.9335416743    1.6173671302    1.1707648907
 H    0.5310479277   -0.4007171472    0.8742680188
 H   -1.0257608256   -0.5993371074    0.0704767336
 H    2.0490630669    1.1773231708   -2.0745041920
 H    1.8824545833   -2.1750777344   -0.7573153585
 H   -0.9336206837   -0.8417177376   -2.7720578124