17

 O   -0.6802428440    1.1013593306    1.2471102849
 C    0.2232411321    0.7216941984    0.5496606924
 C    1.2202719440    1.6464013245   -0.1487535032
 C    1.5603770412    2.8999150867    0.6649118458
 C    2.7981260801    2.4456271840    1.4575902309
 C    3.4697590422    1.4756337892    0.4792846488
 O    2.4400251106    0.9238950815   -0.3482602137
 C    4.5049466147    2.1452806351   -0.4245286919
 O    5.2168618364    3.0529672435   -0.0837171705
 H    0.4085755338   -0.3566700108    0.3484948562
 H    0.7976049742    1.8873255472   -1.1345471808
 H    1.8086761392    3.7314546963   -0.0002116875
 H    0.7196966187    3.1935548928    1.2952156141
 H    3.4734757409    3.2609359230    1.7210810155
 H    2.5036981707    1.9233068295    2.3719153429
 H    3.9798600456    0.6478533940    0.9921752022
 H    4.5454374495    1.7070468545   -1.4462900762