22

 C    0.3463535935    1.3490899179   -0.0340759136
 C   -0.1757034064   -0.1071984788   -0.0091989284
 C    0.3731127599   -0.8236649933    1.2333803417
 C   -1.7161126196   -0.0985955920    0.0120884833
 C    0.2778412210   -0.7324332025   -1.3432972277
 O   -0.1953237681   -0.3814341280   -2.4031491104
 N    1.3623024762   -1.6188819108   -1.2840417601
 C    1.2434140752   -3.0271845516   -0.9214622722
 C    1.5571682888   -2.6063286568   -2.3224332394
 H    1.4407865200    1.3762172465   -0.0442453209
 H   -0.0188453058    1.8716017005   -0.9214467470
 H    0.0015614829    1.8852468402    0.8563571009
 H    0.0587708187   -0.2855391106    2.1339866494
 H   -0.0045775546   -1.8473155097    1.3169993889
 H    1.4653022091   -0.8617864007    1.2270793182
 H   -2.1081273231    0.3718636975   -0.8916572519
 H   -2.1196132299   -1.1155952834    0.0681074756
 H   -2.0783321966    0.4537457804    0.8851933155
 H    2.0212090793   -3.4189295440   -0.2719192854
 H    0.2471330593   -3.4189692967   -0.7321187008
 H    0.7738606700   -2.6845073731   -3.0708687910
 H    2.5727041705   -2.7009417610   -2.6951034645