23

 C    0.1487628847    1.6638181552    0.0426412928
 C   -0.1092445968    0.1599623331   -0.1001554519
 C    0.6506746565   -0.4701658595   -1.2628959671
 C    2.1992455684   -0.6713911527   -0.9951401314
 C    1.8521127897   -2.1107289291   -0.7014084115
 C    1.9323582139   -3.0894329168    0.1931491814
 C    0.6720809200   -3.9493346422    0.1078999418
 C   -0.3636212119   -3.0113109716   -0.6018543767
 C    0.5284805218   -2.0450457851   -1.4081119491
 H    1.2111353474    1.8744791135    0.2053517766
 H   -0.1598248415    2.2046178490   -0.8589763563
 H   -0.4053026499    2.0827734249    0.8884844868
 H    0.1633542054   -0.3508740342    0.8323966836
 H   -1.1845222048   -0.0108466523   -0.2403190802
 H    0.4293999462    0.0742462230   -2.1868438361
 H    2.7866321751   -0.5354302375   -1.9092030283
 H    2.6598650440   -0.0880490237   -0.1929091865
 H    2.7086738972   -3.2473076165    0.9331793079
 H    0.8394442466   -4.8694270726   -0.4704807011
 H    0.3261573547   -4.2692092544    1.0971614989
 H   -1.0804543742   -3.5640578475   -1.2158833814
 H   -0.9355320258   -2.4690705668    0.1583871715
 H    0.5790236934   -2.3172159863   -2.4698929839