19

 C   -0.1891985531    1.5916177817   -0.1023884847
 C   -0.0357653993    0.0675605537   -0.0553425951
 O    0.6099519264   -0.2250187495    1.2031423344
 C   -1.4192816196   -0.6347308647   -0.0313135702
 O   -2.1275407827   -0.2911733816    1.1351265167
 C    0.7560861586   -0.4355814870   -1.1784028477
 C    1.3872738344   -0.8776413714   -2.1060312168
 C    2.1484065861   -1.4434331318   -3.2202412916
 O    1.4788363496   -2.5010986488   -3.8900892815
 H    0.7871603843    2.0692048036   -0.0012610674
 H   -0.6401282595    1.8976761366   -1.0493084116
 H   -0.8367190079    1.9104988324    0.7170301254
 H    0.9969749936   -1.1048918014    1.1325199323
 H   -2.0184400013   -0.3239676249   -0.8923592769
 H   -1.2574432906   -1.7227789281   -0.1074802649
 H   -1.4874185120   -0.3767586455    1.8549373944
 H    2.3241377827   -0.6742785186   -3.9803663214
 H    3.1392517452   -1.7588226674   -2.8555393378
 H    1.2285258453   -3.1530921374   -3.2272833056