20

 C   -0.1535972770    1.6042071821    0.1051361632
 C   -0.0442483677    0.0787885060   -0.0156727042
 C    0.7831842737   -0.5113208954    1.1351609113
 O    0.2650447690   -0.0164999585    2.3610782281
 C   -1.4480136846   -0.5365912841   -0.0047270511
 O   -1.7077818675   -1.6374895879    0.4051744547
 C    0.5639776777   -0.4055315258   -1.3424168328
 C    0.2628210296    0.2201097329   -2.6569352420
 N    1.6093807022    0.3256625110   -2.0682585957
 H    0.8280229516    2.0835657223    0.0374313118
 H   -0.8002668187    2.0299847455   -0.6682090278
 H   -0.5697188008    1.8653612991    1.0798419664
 H    0.7089796074   -1.6043295680    1.0858941402
 H    1.8395902281   -0.2285479569    1.0060135780
 H    0.5343490233   -0.6113895309    3.0655591986
 H   -2.2338750753    0.1032772368   -0.4683885139
 H    0.7294539665   -1.4815912143   -1.3411719095
 H    0.1964059056   -0.4015053920   -3.5449887004
 H   -0.3610954780    1.1086005890   -2.6825325764
 H    1.7356434449    1.2535656288   -1.6718035786