19

 C   -0.0520973972    1.5169158386    0.0625901326
 C    0.0028008538    0.0302934571   -0.0417661523
 C    0.0041845290   -0.8185775067   -1.1211844830
 N   -0.0101209447   -0.7005007361   -2.5383280989
 C    0.3261709605   -2.0718888292   -3.0159845378
 C    0.0464433567   -3.0844813296   -1.8530273448
 C    0.0812530789   -2.1604162761   -0.6691683722
 C    0.1172760167   -2.1299268030    0.7005362607
 N    0.0549325930   -0.8004028500    1.0702163900
 H    0.7182140948    1.9100462052    0.7379820714
 H    0.1210431982    1.9549755545   -0.9238291853
 H   -1.0208510352    1.8876410910    0.4242875413
 H   -0.9246146846   -0.4211467372   -2.8793515208
 H   -0.2240664931   -2.3031928762   -3.9317343521
 H    1.3951616944   -2.0944548197   -3.2577291627
 H   -0.9340338855   -3.5675908572   -1.9657003951
 H    0.7963208667   -3.8810979264   -1.8367647849
 H    0.1803152283   -2.9060262535    1.4464584707
 H    0.1175128394   -0.4694540153    2.0169799131