17

 C   -0.1330508369    1.5428984210    0.2313942869
 C    0.0821921516    0.0750928091    0.0720535183
 O   -0.7291059381   -0.8377214706    0.8283274037
 C    0.7004593436   -0.9447223266    0.9166584194
 C    1.2315374597   -1.7307619821   -0.3136879215
 C    0.1507160237   -2.1221117138   -1.2462566758
 C    0.5583907729   -0.6560849313   -1.2326857067
 C    1.2160544661   -0.0403083874   -2.3868229947
 O    1.7105990390   -0.6544360053   -3.3081533057
 H    0.7427736389    2.1067500481   -0.1058083664
 H   -0.9948941028    1.8764091348   -0.3574712988
 H   -0.3196173764    1.7799657030    1.2817585372
 H    1.1521350673   -0.8941360759    1.8999419245
 H    2.2591407070   -2.0509447892   -0.4229765424
 H    0.4775562260   -2.6295572765   -2.1471686058
 H   -0.8271082615   -2.3825454274   -0.8634875815
 H    1.2475477398    1.0725445299   -2.3678323206