15

 O   -0.7023512885    0.7736591346   -0.5357142506
 C    0.1958428799    0.8157516565    0.2740081931
 C    1.3101050415    1.7253361469    0.2061504966
 C    2.2559003481    2.4782382448    0.1725478513
 C    3.3774760992    3.3826147481    0.1183223080
 C    4.1048278480    3.6932712986   -1.2373799652
 C    2.8736845198    4.4820157779   -1.7369509763
 C    3.1870240706    4.8888838704   -0.2796654637
 O    4.6224330471    4.9310649601   -0.6216453718
 H    0.2189564510    0.1343581264    1.1484477530
 H    4.0772219875    3.2563787297    0.9465230610
 H    4.8064391888    3.0581829513   -1.7771894324
 H    3.0972468620    5.2479214871   -2.4788636533
 H    1.9519729133    3.9343136726   -1.9365105235
 H    2.7833371417    5.6936111052    0.3338833939