17

 C    0.3482787655    1.5895968214    0.0232400091
 C   -0.0525684831    0.1005423220    0.0020702857
 C    0.3752801940   -0.5622526809   -1.2803087467
 C    0.9485437948   -1.7676480333   -1.3749128638
 C    1.2108477849   -2.6183823493   -0.1989606424
 O    1.4758538068   -3.8014373769   -0.2833252518
 C    1.1035620970   -1.9446143906    1.1424443813
 O    1.8935772579   -0.7532710517    1.3023327614
 C    0.4817150680   -0.6078684739    1.2320762262
 H    1.4371681505    1.6874478182    0.0159402366
 H   -0.0542363888    2.1151727818   -0.8476277486
 H   -0.0344981778    2.0814771195    0.9224637478
 H   -1.1517715962    0.0493035505    0.0472366507
 H    0.1746540069    0.0040678921   -2.1880453931
 H    1.1970034109   -2.2053072055   -2.3364469919
 H    1.1048631910   -2.6202911699    1.9949911824
 H    0.0146163276   -0.3263572237    2.1766613269