18

 C   -0.0398799262    1.3774240275    0.1496930002
 N   -0.0433302741   -0.0396089977   -0.1169403473
 C   -1.1245436208   -1.0262212231   -0.0839399324
 C   -1.5625928646   -1.4380898226    1.3472044917
 C   -0.4460129383   -2.5251932567    1.3795240855
 C    0.0124852530   -2.1357313406   -0.0515785155
 O    0.1920394765   -3.2014333692   -0.9149040417
 C    0.9954609305   -0.9426540317   -0.0913067401
 O    2.1930896897   -0.8019278603   -0.0994578835
 H    1.0015493754    1.7046862959    0.2002649416
 H   -0.5482851205    1.9344494016   -0.6452231928
 H   -0.5303434879    1.6098283682    1.1036856217
 H   -1.8697292248   -0.9277167354   -0.8746926878
 H   -1.4847427495   -0.6444391524    2.0940268918
 H   -2.5710559888   -1.8550671802    1.3887405800
 H    0.3138119956   -2.4534980852    2.1603875709
 H   -0.8481419509   -3.5406343106    1.3731060465
 H    0.7810778057   -2.9295534375   -1.6271891988