17

 C   -0.0226348983    1.4174946371    0.0638270597
 C    1.4375466454    1.9350491717   -0.0213008064
 N    2.2857013766    1.4650959345    1.0778908491
 C    1.9794961372    0.1285272137    1.4204095250
 C    0.9319175807   -0.5541981894    0.8768755175
 N   -0.1033897648   -0.0493234762    0.0963357683
 O    0.9261812337   -1.8494980545    1.2886823827
 C    2.0024698549   -1.9876701885    2.1246880946
 C    2.6777570274   -0.8159359985    2.2478429560
 H   -0.4872724331    1.8055318557    0.9786762227
 H   -0.6069901896    1.7820978603   -0.7851453711
 H    1.8746812956    1.5868934639   -0.9664346945
 H    1.4504343193    3.0286015799   -0.0373910969
 H    2.2393726763    2.0858130930    1.8783279802
 H   -0.1439342067   -0.4568634312   -0.8324889316
 H    2.1489574455   -2.9743406853    2.5299463827
 H    3.5673663697   -0.6444109563    2.8337881720