19

 C   -0.5062605489    1.1987434217   -0.2485814516
 C    0.4838446840    0.1050898790    0.1595189613
 N    1.1280247181   -0.5218944200   -0.9791618644
 C    0.9106087566   -1.8100362193   -1.3331084365
 O    0.1932188158   -2.5986380168   -0.7484819509
 C    1.6896540033   -2.2019332205   -2.5941293508
 N    2.4181798442   -1.3456413583   -3.1864196537
 O    1.4624015341   -3.4874607199   -2.9014703877
 C    2.1122706257   -4.0095196383   -4.0514828917
 H   -0.0099062657    1.9927326336   -0.8169721826
 H   -1.3060695638    0.7851722482   -0.8695245627
 H   -0.9577224602    1.6536699764    0.6387759141
 H    1.2509443958    0.5213839973    0.8246360142
 H   -0.0262562797   -0.6950054953    0.7007554868
 H    1.7423514690    0.0046845115   -1.5843950503
 H    2.8907640620   -1.7058231528   -4.0131968554
 H    3.2031778544   -3.9599331911   -3.9488118093
 H    1.8013731451   -5.0514830640   -4.1255096712
 H    1.8085910501   -3.4721928016   -4.9582166076