17

 C   -0.4312760592    1.3136477969    0.0770211141
 N    0.3634847667    0.0994543813   -0.0592284612
 C    0.8298017345   -0.4712316276    1.1640251598
 C   -0.1145981508   -1.0615610365    2.2066565785
 C    0.7311361958   -1.9927476873    1.3626607187
 C    0.1344789354   -2.7819831955    0.3269902556
 C   -0.3642567105   -3.4314447782   -0.5546784856
 C    2.0359257718    0.1479815976    1.6804437997
 N    2.9852238065    0.6498686165    2.1098731134
 H    0.1812926030    2.1044418167    0.5220281327
 H   -0.7371120727    1.6491761239   -0.9170064634
 H   -1.3336649557    1.1940430862    0.6993051677
 H   -0.0931974169   -0.6044419247   -0.6265386446
 H    0.1392070794   -0.9673822492    3.2558676140
 H   -1.1710938336   -1.0067282881    1.9721453766
 H    1.5847617525   -2.4459748835    1.8560074038
 H   -0.8000126963   -4.0204358884   -1.3238538299