19

 O    0.0756253090    1.4371258077    0.0309816807
 C    0.0207602842    0.0248800767    0.0219244132
 C   -1.4192332202   -0.5069788163    0.0890338955
 C   -1.4576221188   -2.0408396160    0.0522137897
 C   -0.7588804640   -2.5959165246   -1.2081875058
 C    0.6536443093   -2.0507465058   -1.3019618401
 O    1.6402471010   -2.7406277490   -1.4163247082
 C    0.7518442525   -0.5207525410   -1.2175834898
 O    0.0954538088    0.0748361587   -2.3453123342
 H   -0.1668717657    1.7142530430   -0.8619637901
 H    0.5711760904   -0.3099911068    0.9101997061
 H   -1.8891467212   -0.1267772442    1.0008289979
 H   -1.9824058873   -0.1001922280   -0.7592831310
 H   -0.9640061111   -2.4460683980    0.9451700096
 H   -2.4923466095   -2.3956634789    0.0813346256
 H   -0.7173631356   -3.6871505707   -1.2139379006
 H   -1.3102088141   -2.2625784383   -2.0962775321
 H    1.8097419116   -0.2368429180   -1.1850468990
 H    0.6610695807   -0.0367288206   -3.1155973674