21

 C    0.2661547399    1.5878270106    0.1086440562
 C    0.2429632554    0.0699799450    0.0768826631
 C    0.7052210814   -0.5778061466   -1.2363349565
 C    1.2261167887   -1.9565414273   -0.7875530597
 C    2.6182331890   -2.3475310406   -1.3218481970
 C    3.5493158085   -1.7984681140   -0.2333934928
 O    2.8375540655   -2.0243415875    0.9825793431
 C    1.4829372382   -1.7735686870    0.7433843655
 O    1.1570720175   -0.4281710498    1.0522052718
 H    1.2715282585    1.9569326983   -0.1172300650
 H   -0.4316623734    1.9967349488   -0.6289099261
 H   -0.0214262572    1.9578855644    1.0965045401
 H   -0.7751513626   -0.2830248156    0.3178976355
 H   -0.0920479289   -0.6419809177   -1.9811633056
 H    1.5168523972    0.0201213691   -1.6674052908
 H    0.4854391521   -2.7370102118   -0.9727055903
 H    2.7180977524   -3.4356490837   -1.3781959316
 H    2.8254648204   -1.9346849359   -2.3127823258
 H    4.5076935773   -2.3175048862   -0.1601003951
 H    3.7438742269   -0.7251078051   -0.3738488785
 H    0.9132129331   -2.4484311275    1.3941352497