18

 C    0.0286828061    1.5396567661   -0.0626827169
 C   -0.0192135571    0.0177588951    0.0073451395
 O   -1.3982868244   -0.4225895056    0.0388883466
 C   -2.1135806250   -0.3259231950   -1.1014744120
 N   -3.3574466303   -0.5503657407   -1.0766083769
 O    0.6709844842   -0.5281564847   -1.0969651603
 C    1.5042841662   -1.6117801819   -0.6779514176
 C    1.4891140518   -1.5434107155    0.8211783545
 C    0.6341813867   -0.6095543565    1.2150070119
 H    1.0631271236    1.8834410424    0.0088336778
 H   -0.3890600329    1.8910626836   -1.0100501068
 H   -0.5540677777    1.9698991198    0.7555012228
 H   -1.5120797071   -0.0823118378   -1.9825308328
 H   -3.7363248773   -0.4643563703   -2.0181298708
 H    1.1138752272   -2.5697631746   -1.0524641519
 H    2.5025544023   -1.4672068094   -1.1106766093
 H    2.0845021422   -2.1931064735    1.4493972662
 H    0.3671498315   -0.3312119716    2.2248093961