15

 N    0.0234639386    1.3252718943   -0.1055908990
 C   -0.0605506957   -0.0297239299   -0.0142776452
 N   -1.1295255443   -0.7279667267    0.0012152961
 C   -0.7357482576   -2.1366772219    0.0225194329
 C    0.7965361429   -2.1278656049   -0.0201219458
 C    1.4756070524   -1.5055656326   -1.1993516881
 C    0.7612791160   -1.2452028818   -2.4221752686
 N    0.2288500441   -1.0597725474   -3.4319296202
 N    1.2132061135   -0.7187014938    0.0459192651
 H    0.8652934534    1.7494272447    0.2472429953
 H   -0.8333059227    1.8330920439    0.0465206885
 H   -1.0854397288   -2.6199134733    0.9427559781
 H   -1.1826550584   -2.6803594754   -0.8183735536
 H    1.3674057616   -2.8345370048    0.5730927467
 H    2.5313485849   -1.7097447702   -1.3519912520