19

 C   -0.3638841470    1.2576430829   -0.1023598428
 O    0.1338300836   -0.0650301349    0.0415808668
 C    0.7648388308   -0.5303819011   -1.0906957275
 C    0.0315372588   -1.0888905441   -2.2840205055
 C    0.0511894789   -0.7198679452   -3.7574897867
 C    0.9666120777   -1.9875903877   -1.4803902610
 C    2.4872399643   -1.6905213109   -1.6568469101
 O    2.6958196271   -0.6428548711   -2.6195896944
 C    2.3075844535   -0.2920857515   -1.2881296590
 H    0.4385042742    1.9701320856   -0.3396695490
 H   -1.1248573630    1.3138126321   -0.8923653864
 H   -0.8137900342    1.5342094021    0.8535825715
 H   -0.9822295376   -1.3105771417   -1.9426508512
 H   -0.3324361582   -1.5567147101   -4.3526292134
 H   -0.6125490956    0.1344793933   -3.9343250473
 H    1.0459305482   -0.4687613742   -4.1122743981
 H    0.6089766358   -2.8675096654   -0.9610379053
 H    3.3056255037   -2.3782108044   -1.4828602398
 H    2.9287138691    0.3962108259   -0.7267156310