15

 N   -0.6737747328   -0.6962221015   -0.2252540234
 C   -0.2499665293    0.3682047398   -0.3711220857
 C    0.2880098835    1.7139980041   -0.5380200450
 C    1.7098187905    1.8614680470    0.0641026270
 C    2.7194449364    1.1691844947   -0.7415029850
 N    3.5272207271    0.6546712069   -1.3872859220
 C    2.1255763970    3.3247075875    0.2495101963
 C    1.6817995720    4.4176335477   -0.6204214408
 O    1.1111912265    4.2174905265    0.6823304804
 H    0.2949042131    1.9627684709   -1.6032029258
 H   -0.3617766103    2.4321921737   -0.0285202210
 H    1.7035779791    1.3983621999    1.0584086795
 H    3.0804109502    3.4329240704    0.7632637175
 H    2.3076589340    5.3011944514   -0.7220951781
 H    1.0123362331    4.2255335610   -1.4555322437