18

 N   -0.0204637477    1.2784292316    0.0465607989
 C   -0.0197387106    0.0174181159    0.0202105136
 O   -1.1873723260   -0.6549434602    0.0100729726
 C   -1.0944921664   -2.0759305324   -0.0198950096
 C   -2.4654531582   -2.6579491268   -0.0275520794
 C   -3.6356040132   -2.0289599086   -0.0105934168
 C   -4.7506426085   -3.0328477824   -0.0278900570
 O   -4.1108541912   -4.3085613722   -0.0566200769
 C   -2.6991547545   -4.1479242674   -0.0578783181
 H    0.9356749923    1.6271849741    0.0506393169
 H    0.8646152436   -0.6352903987    0.0036074501
 H   -0.5372159823   -2.4009327462   -0.9130978299
 H   -0.5314218597   -2.4378469791    0.8552979712
 H   -3.7838827835   -0.9584821444    0.0122332550
 H   -5.3964067434   -2.9600904166    0.8614767759
 H   -5.4022178954   -2.9231311246   -0.9091899517
 H   -2.2661076688   -4.6213338226   -0.9550790781
 H   -2.2603213465   -4.6582857194    0.8159481432