13

 O    0.0306798224   -0.0152944272   -0.0312349166
 C   -0.0247432137    1.1729247724    0.0301716420
 N   -1.1419929141    1.9901776623    0.1010811126
 C   -0.8039592271    3.3671272991    0.0506241364
 C    0.6899180172    3.3338787320    0.0390580327
 O    1.0928598502    1.9962729448    0.0493545996
 C   -0.0381860629    3.8720014306   -1.1933447072
 C   -0.0859365548    3.1444983523   -2.4244665405
 N   -0.1464659733    2.5512066679   -3.4154710157
 H   -2.0283508080    1.6177846017   -0.1984793908
 H   -1.3995389888    4.0646367524    0.6266138499
 H    1.3357279653    3.9894327622    0.6079102767
 H    0.0043303276    4.9519500295   -1.2944874393