25

 C    0.0048601272    1.6645518677   -0.5858614703
 C    0.1093222809    0.1945632779   -0.1593032842
 C   -1.2463853299   -0.4906631542   -0.1635722473
 C   -1.8892263006   -1.1660591762   -1.3478555194
 C   -0.8707763070   -2.0047503937   -2.1323180389
 C   -0.6309775781   -2.8775112469   -0.8545880536
 C    0.7764821283   -3.1837822410   -0.3498654613
 C   -1.5840484725   -1.9600166379   -0.0607384015
 C   -2.5195104782   -2.4843342789    0.9950380527
 H    0.9841529196    2.1533943712   -0.5753159277
 H   -0.4045887695    1.7509344085   -1.5979757467
 H   -0.6550012946    2.2257496522    0.0853984050
 H    0.8087829767   -0.3185091915   -0.8245992681
 H    0.5457792674    0.1351773102    0.8464590520
 H   -1.9823999228    0.0909026323    0.3944242946
 H   -2.8534310698   -0.8520637228   -1.7326746293
 H   -1.3120824772   -2.5722579969   -2.9545217931
 H   -0.0029244797   -1.4630241455   -2.5239829341
 H   -1.1507459303   -3.8319771559   -1.0026504897
 H    1.3729866320   -2.2821570887   -0.1925253993
 H    0.7373113967   -3.7237235092    0.6032664425
 H    1.3141559119   -3.8189314079   -1.0633248566
 H   -1.9830827179   -2.7298782099    1.9204959409
 H   -3.2880653657   -1.7470782272    1.2504556727
 H   -3.0288598470   -3.3959903457    0.6597269405