17

 O   -0.3630570090   -0.4900531620    0.5797796781
 C   -0.1796505214    0.4875480497   -0.1094683618
 C    1.1470411004    0.7323878426   -0.8261654682
 C    2.2392365744    1.0537944475    0.1731668550
 C    3.3484557636    1.9540862820   -0.1587335719
 O    2.2696538213    2.3967386794    0.6716943317
 C   -1.2602487381    1.5230951264   -0.2485549831
 C   -0.9396026300    2.9575985273   -0.0779592246
 O   -1.2017019956    2.4124491739   -1.3653649160
 H    1.4055468108   -0.1969072504   -1.3456540330
 H    1.0522096732    1.5341876099   -1.5609830748
 H    2.3935441117    0.2949002249    0.9396103894
 H    4.3071579350    1.8446808672    0.3452063967
 H    3.3906595932    2.4062699250   -1.1484380213
 H   -2.2512235765    1.1679558529    0.0272033686
 H   -1.7139138761    3.6088393812    0.3231491340
 H    0.0904253731    3.2537584725    0.1100728814