19

 C    0.0469060742    0.9245233361   -0.4568572799
 O   -0.2900976016   -0.4238871325   -0.1722871304
 C   -1.6623602207   -0.6556508457    0.1585823921
 C   -2.5546631849   -0.6847083435   -1.1294174348
 C   -2.2206392911   -2.1998013409   -1.2680506584
 O   -1.1565363233   -2.4831987069   -2.1456344621
 C   -1.8277079704   -2.2008220083    0.2372034583
 C   -2.1084639486    0.1443910575    1.2907390986
 C   -2.4987484277    0.7951461644    2.2239065384
 H    1.1103646000    0.9310303680   -0.7048206423
 H   -0.5203282643    1.3208322872   -1.3102777333
 H   -0.1281651715    1.5698921629    0.4118441077
 H   -3.6060393933   -0.5037044937   -0.8942588540
 H   -2.2466954366   -0.0390098316   -1.9546104557
 H   -3.0436476414   -2.8543987136   -1.5608948464
 H   -0.4090424709   -1.9455527037   -1.8531718648
 H   -0.9255144463   -2.7491555731    0.5155035930
 H   -2.6564073765   -2.4806225575    0.8904576669
 H   -2.8421755850    1.3659440747    3.0513250271