15

 O   -0.0244050168    0.0182210491   -0.3913250830
 C    0.0505906933    1.2160295549   -0.2393755958
 C    1.2805796434    1.9384341603   -0.0403308346
 C    2.2958955825    2.5711953172    0.1257549520
 C    3.5205822138    3.3347543070    0.3301106708
 C    3.3229634158    4.8401183331    0.2316834062
 C    4.4305869865    5.6942835155   -0.2596829390
 N    3.2187244871    5.4961230568   -1.0754624951
 H   -0.8544533176    1.8569825457   -0.2441331348
 H    3.9309553010    3.0813233495    1.3174928569
 H    4.2748362907    3.0114183003   -0.4004723586
 H    2.6392278098    5.2453548083    0.9741504166
 H    4.5625345008    6.6988542651    0.1310931454
 H    5.3525924401    5.2038364788   -0.5634349369
 H    3.4027506198    4.8286019585   -1.8212922400