18

 O    0.6356211183    1.0311000960   -0.5624755462
 C   -0.0852735088   -0.0913971799   -0.0581647943
 C   -0.1819407748   -1.1688618474   -1.0477568443
 C   -0.2134482888   -2.0533608455   -1.8612212977
 C    0.5602898515   -0.5906981629    1.2313301016
 C    0.2609416851   -0.0748012318    2.5802983274
 C   -1.2146554456    0.2678716059    2.7718442413
 C   -1.5160007262   -1.1771339012    2.3008484265
 N   -0.0498967842   -1.5245507443    2.1950568687
 H    1.4573346149    0.7012287673   -0.9430925173
 H   -1.0875117795    0.2969613229    0.1423311308
 H   -0.2570528117   -2.8348559515   -2.5793370779
 H    1.6030132557   -0.8623498180    1.0699714126
 H    1.0512607085    0.1687371467    3.2837421616
 H   -1.4761057973    0.4267184456    3.8191525198
 H   -1.6083408437    1.1053201216    2.1875978013
 H   -1.9713758191   -1.7986604857    3.0735381176
 H   -2.0779996645   -1.3128534379    1.3719842985