17

 C    0.0227067703    1.4825257376   -0.0071405971
 N    0.0218985371    0.0314671657   -0.0233725018
 C    0.6088735012   -0.5067660258   -1.2374793275
 C    0.6597242070   -2.0041949889   -1.2285803537
 C    0.5593861921   -2.7244727208   -0.1066238913
 C    0.4909604960   -2.0630368724    1.2086697360
 O    0.4250760696   -2.6776030529    2.2531908198
 C    0.5976614868   -0.5397052150    1.1852794837
 H    1.0401604747    1.9187538430    0.0131245217
 H   -0.4905344546    1.8631890736   -0.8963008289
 H   -0.5158620983    1.8408623666    0.8754195495
 H    0.0137259605   -0.1667315706   -2.0950753450
 H    1.6391584117   -0.1240513391   -1.4206665242
 H    0.7896585220   -2.4901731270   -2.1921671755
 H    0.5750575985   -3.8094445712   -0.1043289820
 H    1.6720879089   -0.2820512769    1.3134945588
 H    0.0729795065   -0.1508088260    2.0621702074