15

 N   -0.1788265919    1.2683719653   -0.4257700138
 C   -0.1278961681   -0.0698497553   -0.1391903661
 C   -1.1048812705   -1.0265869627   -0.0038716094
 C   -2.5950179058   -0.8864007726   -0.1701329109
 C   -2.9793231384   -0.0141574139   -1.2811011571
 C   -3.2719233982    0.7279848718   -2.1815638091
 C   -0.3561859626   -2.1731547442    0.3624816361
 N    0.9323251105   -1.9572940232    0.4465391534
 O    1.0777531251   -0.5890734163    0.1173579751
 H    0.6904727657    1.6536499209   -0.7670085721
 H   -0.9856297003    1.5364325149   -0.9749781943
 H   -3.0324192775   -1.8792115743   -0.3315955687
 H   -3.0616985854   -0.5041942362    0.7495562532
 H   -3.5607353538    1.3543471015   -2.9894228606
 H   -0.7280604089   -3.1685676558    0.5693511343