20

 C   -0.0602055416    1.5331110142   -0.0192900532
 C   -0.0233954471    0.0217002879   -0.0444734929
 C    1.1788906470   -0.6813202593   -0.5230082267
 O    0.9127569356   -0.5762058370    0.8758182082
 C   -1.3360372267   -0.6871044769   -0.1145329632
 C   -2.5473609374   -0.1518358207   -0.7722330749
 N   -2.5518440303   -0.2396422483    0.6989165401
 C   -2.8102922183   -1.6903931117    1.0109531630
 C   -1.5385763271   -2.1574767844    0.2576138005
 H    0.9316802404    1.9205897513    0.2231296293
 H   -0.3647657252    1.9403135590   -0.9886054204
 H   -0.7698931463    1.8787115165    0.7379402263
 H    1.0943795933   -1.6841724916   -0.9406386358
 H    2.0272951091   -0.1016756282   -0.8858444506
 H   -2.5305597739    0.8709938945   -1.1336654001
 H   -3.1850363466   -0.8223833399   -1.3468930423
 H   -2.7683252874   -1.8516732883    2.0893371986
 H   -3.7741826177   -2.0471444386    0.6326266650
 H   -1.6610372408   -2.8596815491   -0.5721133924
 H   -0.7598198090   -2.5189347995    0.9291046114