13

 N   -0.0887344259    1.3300839261   -0.4827889225
 C    0.0045240613    0.1264439057   -0.0691324605
 C    1.2502966948   -0.5394628306    0.3240409589
 N    1.4362863763   -1.6411896988    0.9585325697
 N    0.4493899894   -2.3888514647    1.5011708801
 N   -0.8459387197   -2.0915609259    1.8958854789
 N   -1.5724188423   -1.3026574040    1.2677255238
 C   -1.2319258645   -0.7153795184    0.0044278851
 N   -2.0012326464   -0.8523972037   -0.9900410448
 H    0.8268612040    1.7894574010   -0.4600810027
 H    2.1713170549   -0.0560736670    0.0009991299
 H    0.8268599939   -3.0783373637    2.1348497156
 H   -2.8153893357   -1.4159183560   -0.7255052917