21

 C   -0.0473933621    1.4242265394    0.0600946270
 C    1.3307734045    0.7950009797    0.0103034123
 C    2.0858081648    0.5333108890    1.3057996704
 C    1.0841172000   -0.2248444150    2.2170727895
 C    0.0702906011   -0.8930943332    1.2671475603
 C    0.4569198767   -2.2563023174    0.6747022506
 O   -0.1622486783   -2.3198319788   -0.6086859313
 C   -0.3346479645   -0.9964385690   -1.1292699415
 C    0.0858967595   -0.0652125241   -0.0140854976
 H   -0.4029487970    1.8751186573    0.9827975146
 H   -0.3733113124    1.9465834951   -0.8342211599
 H    1.9048144067    0.9459397273   -0.8985974280
 H    2.9584288486   -0.0927239883    1.0869010870
 H    2.4635339043    1.4434485281    1.7844189928
 H    1.5828410522   -0.9439390776    2.8744101089
 H    0.5597572692    0.4791051284    2.8705661446
 H   -0.9274088268   -0.9590718942    1.7160415159
 H    1.5528803293   -2.3393037381    0.5829236303
 H    0.0994137032   -3.1095581938    1.2591214822
 H    0.2707772281   -0.8628198816   -2.0371027308
 H   -1.3903637269   -0.8734073330   -1.4068967874