21

 C   -0.1768596709    1.6888208275   -0.1154387554
 C    0.0253838506    0.1783466266    0.0397901597
 C   -1.2868836042   -0.5906296349   -0.0003092854
 O   -1.8980150017   -0.4469077577   -1.2855160164
 C   -2.8766973788   -1.4453507366   -1.3267063474
 O   -2.3707141478   -2.5664066153   -0.6132813454
 C   -1.2358026344   -2.1241782337    0.1542419418
 C    0.0012724634   -2.8215582734   -0.4123366307
 O   -0.1881521504   -4.2215457924   -0.4315995238
 H    0.7808135528    2.2163917482   -0.0881556338
 H   -0.6670866707    1.9167226735   -1.0654292145
 H   -0.8028207459    2.0883403214    0.6900963059
 H    0.6835992328   -0.1923776119   -0.7526480401
 H    0.5194806392   -0.0383215607    0.9948651689
 H   -1.9693124372   -0.1857965907    0.7671397406
 H   -3.8118786909   -1.1069171565   -0.8468005727
 H   -3.0668802345   -1.7161232145   -2.3704138765
 H   -1.3861941802   -2.4359306778    1.1940751525
 H    0.2095743358   -2.4285780658   -1.4199177542
 H    0.8756195420   -2.6254307869    0.2172037358
 H   -1.0500365890   -4.3591197782   -0.8442722288