14

 O    0.0207723491    1.4009453725    0.0023740881
 C   -0.0042248730    0.0070250878   -0.1887910851
 C   -1.4315806452   -0.5257968186   -0.0147284694
 C   -1.6600505697   -2.0482702035    0.1808825544
 O   -2.1622577106   -1.8050576550    1.5370378707
 C   -1.9337915015   -0.4509249737    1.4230465081
 O   -2.0475018649    0.3825848233    2.2617241615
 C   -2.6507256907   -2.6885763326   -0.6736696157
 N   -3.4192082389   -3.1887756520   -1.3759179439
 H   -0.3002669781    1.5878882973    0.8936420888
 H    0.3464550672   -0.1806946890   -1.2080596525
 H    0.6750200427   -0.5212562268    0.4999408574
 H   -2.1069828832   -0.0582118222   -0.7331895083
 H   -0.7491718432   -2.6508694674    0.2249395160