20

 C   -0.0416831111    1.5749331705    0.0544278336
 C    0.0339546980    0.0594846266   -0.0486789664
 C    1.2027540058   -0.5511781066   -0.8885685727
 C    1.3288104239   -1.6573666275    0.1905753043
 C    0.5922828900   -0.7226976327    1.1845778634
 C    0.5768610987   -2.9322919271   -0.1363265644
 O   -0.8016904425   -2.8183001964   -0.5317130035
 C   -1.5179224800   -1.6712315828   -0.6484366234
 N   -1.2596928626   -0.4487536584   -0.4717384790
 H    0.9175535274    1.9965619527    0.3717737108
 H   -0.3113484956    2.0100790516   -0.9130457928
 H   -0.8089989020    1.8702675951    0.7769808180
 H    0.9622915606   -0.8534323991   -1.9114051700
 H    2.0777399754    0.1044755692   -0.9032283034
 H    2.3458697946   -1.9546651662    0.4654312401
 H    1.2913952510   -0.1164516694    1.7671615687
 H   -0.1474115598   -1.1652252444    1.8571769844
 H    1.0771734440   -3.4573235901   -0.9594686198
 H    0.5791577103   -3.5982321067    0.7354629849
 H   -2.5202978661   -1.9574350083   -0.9672416928