17

 O   -0.2805654088    0.5349890045   -0.8142962742
 C    0.1464545908    1.1117148616    0.1609174558
 C    1.3623221873    1.9445923200    0.1742141763
 C    1.8840564298    2.6606908565    1.4048917718
 C    3.1060705947    3.3150800115    0.7941359074
 C    3.6932771502    2.4486337668   -0.3058695959
 C    2.8624539552    3.6671524335   -0.6626598052
 C    1.7080740524    2.7362602042   -1.1020445351
 C    2.5255763792    1.5372811727   -0.7509916452
 H   -0.3802013400    1.0395384232    1.1396504104
 H    1.1694281876    3.3950295223    1.7940528289
 H    2.1435352258    1.9663968107    2.2123693586
 H    3.7705240886    3.9395512050    1.3795864224
 H    4.7482897624    2.2622787319   -0.4469606739
 H    3.1573041917    4.5956795491   -1.1301930434
 H    0.9859865837    2.8732731542   -1.8942066573
 H    2.5609435694    0.5633980723   -1.2179010114