15

 C   -0.0562264820    1.4145558349    0.2109917423
 N   -0.0197610112   -0.0365244360    0.0242839871
 C   -1.2396402830   -0.6889906429   -0.0264886674
 N   -2.3386292069   -0.0529898764    0.0841523898
 N   -1.1055143630   -2.0726299684   -0.2068423516
 C    0.1108302398   -2.6712078547   -0.3167442854
 N    1.2402789456   -2.0691045180   -0.2708673892
 C    1.2383771076   -0.6769361348   -0.0930084176
 O    2.2626536241   -0.0402672165   -0.0404353449
 H    0.9737538008    1.7607038827    0.2325691168
 H   -0.6072081070    1.8819626613   -0.6083752597
 H   -0.5691173049    1.6567395015    1.1445207227
 H   -3.1442547510   -0.6716124806    0.0269396520
 H   -1.9485378129   -2.6222864165   -0.2544519919
 H    0.0799067540   -3.7513161755   -0.4538953928