15

 O    0.0933889460    1.3963737788    0.0543574064
 C    0.0733992273   -0.0058839693    0.0053903327
 C    0.1287209579   -0.5564113584    1.4575164821
 N   -1.3427939060   -0.7223001613    1.4481634804
 C   -1.3911610332   -0.6243112229   -0.0216894278
 C   -2.4323259991    0.2362827615   -0.5764386023
 N   -3.2217456004    0.9304637250   -1.0568874351
 C    0.9954821505   -0.5509332121   -0.9784626650
 C    1.7407545517   -0.9880675682   -1.8141773153
 H   -0.1033551736    1.7401642207   -0.8257327991
 H    0.7049196575   -1.4855653734    1.5278937150
 H    0.4938334137    0.1699328925    2.1878177790
 H   -1.6957373937   -1.5933051779    1.8258606918
 H   -1.3969379578   -1.5828903293   -0.5554273050
 H    2.4079395193   -1.3716697457   -2.5468712780