15

 O   -0.0222310425    1.4461229178    0.0070638132
 C    0.0127281605    0.0327100152    0.0022676278
 C   -1.3990317829   -0.4825204234    0.0126901521
 C   -2.4793661904    0.3240514171    0.0241152032
 O   -3.7323694035   -0.1408315886    0.0333221742
 C   -3.9770739837   -1.5214026568    0.0316073646
 N   -5.1988730120   -1.8487599670    0.0408903639
 N   -2.8879413743   -2.3872494411    0.0196204038
 C   -1.6953563360   -1.8891274848    0.0109936457
 H    0.8809528290    1.7744803462    0.0013337911
 H    0.5384599534   -0.3531368965   -0.8879062325
 H    0.5535939917   -0.3588169051    0.8808068504
 H   -2.4356984460    1.4052809973    0.0268910036
 H   -5.2530187425   -2.8658820371    0.0382030799
 H   -0.8696127007   -2.6040805131    0.0018350789