13

 O    0.2419298939    1.5516371424    0.0473117715
 C    0.0643607766    0.1750645338    0.0891435394
 C    0.6009525994   -0.4816894804   -1.1921066568
 O    1.0835264417    0.1918551292   -2.0638867038
 C    0.7351486896   -0.4664236883    1.2745964985
 N    0.3950638802   -1.5799605391    1.8541212994
 C    1.3753408746   -1.7001807761    2.8092124926
 N    2.2562145213   -0.7386838419    2.8269664146
 O    1.8317811045    0.0969184530    1.7845677036
 H    0.7147429119    1.7333749433   -0.7817439684
 H   -1.0013276028   -0.0993141437    0.1573606386
 H    0.5111896000   -1.5816339630   -1.2556628472
 H    1.4273965991   -2.5208474492    3.5096525280