17

 C    0.0349077442    1.5182041068   -0.0402371016
 C    0.0445850651    0.0012994508    0.1210829661
 N   -1.3029317409   -0.5477840546    0.0926048904
 C   -2.2085316220   -0.2814430275    1.2348263403
 C   -2.6423849178   -1.7466823212    1.1714679435
 O   -3.5075000355   -2.4140601919    1.6334133077
 C   -1.4419601519   -2.0145157774    0.2043626077
 C   -1.6735679134   -2.7395029802   -1.0369240600
 N   -1.8701691180   -3.3177866132   -2.0179404129
 H    1.0569659924    1.9073980572   -0.0372210976
 H   -0.4452616504    1.8017112460   -0.9806520281
 H   -0.5069913637    2.0023778303    0.7791456134
 H    0.6023158637   -0.4564291143   -0.7034342752
 H    0.5682287274   -0.2754732324    1.0575897739
 H   -1.6967873815   -0.0613052982    2.1872873247
 H   -2.9804392551    0.4739772033    1.0609344160
 H   -0.6270286827   -2.5036897136    0.7669178917