18

 C   -0.0954512565    1.4955497433    0.0542506230
 C    0.0553585302   -0.0208548807    0.0149206129
 N    0.6256683549   -0.4468636166   -1.2606675148
 C    0.8080364345   -1.8062869859   -1.4648745885
 N    0.3055579151   -2.7638488546   -0.6896836161
 N    0.6910049469   -3.8861923733   -1.3069175806
 N    1.4138110908   -3.7323303804   -2.4174338586
 C    1.5006279015   -2.4137452760   -2.5435680095
 N    2.2239219794   -1.7582974372   -3.5458835101
 H    0.8770762033    1.9943273570   -0.0348258161
 H   -0.7316917641    1.8461700997   -0.7637013317
 H   -0.5415816993    1.8112616768    1.0014687380
 H    0.6600023560   -0.3694611138    0.8673833519
 H   -0.9208859584   -0.5053174455    0.1159544558
 H    1.4537472155    0.0784473162   -1.5171085032
 H    0.4919931276   -4.7932034819   -0.9251102996
 H    2.6087753694   -2.4224375816   -4.2071738864
 H    1.6537993833   -1.0835706455   -4.0451440666