22

 C   -0.7737308835    0.4344748535    0.6051781000
 O   -0.4760261152   -0.8825968549    0.2062473756
 C    0.4204921234   -0.9450577344   -0.8801130776
 C    0.5848632251   -2.3927391071   -1.2955419688
 O   -0.5957675189   -2.8167975571   -1.9497115752
 C   -0.7821807705   -4.2203504454   -2.0217603233
 C   -1.8654806212   -4.6953491373   -1.0718747120
 C   -2.1409145999   -4.0084419463    0.2126350018
 N   -3.0908952985   -3.9020996442   -0.9165051777
 H    0.1288631858    0.9757695403    0.9306222372
 H   -1.2446386398    1.0092733222   -0.2073763837
 H   -1.4700998980    0.3721093811    1.4444459795
 H    0.0424768609   -0.3601170113   -1.7341597712
 H    1.4038144283   -0.5310242168   -0.5987022366
 H    1.4521238673   -2.4823933274   -1.9694496630
 H    0.7834583667   -2.9993553417   -0.4009863669
 H   -1.0777765839   -4.4567102074   -3.0533158766
 H    0.1575985973   -4.7559436420   -1.8249856823
 H   -2.0425895298   -5.7688938977   -1.1328193978
 H   -2.5020820208   -4.5853234191    1.0598661340
 H   -1.5654607542   -3.1235493907    0.4634037208
 H   -2.9287523803   -2.9981756964   -1.3593669364