17

 C    0.5684056532    1.5291919325   -0.1553253312
 C   -0.0468265915    0.1531998739   -0.0391715530
 O   -0.4812633700   -0.3027780768    0.9899085410
 C   -0.0812894401   -0.6931977193   -1.3260455681
 O   -0.0629649545   -2.1012892047   -1.0391311729
 C   -1.4417312277   -2.2687624361   -1.4124352771
 C   -1.4791838393   -0.8323286463   -1.9945537068
 C   -2.6118485585    0.0815807608   -1.6210902252
 O   -2.4813198978    1.1837223380   -1.1515525284
 H    1.6399323864    1.4411139896   -0.3719608174
 H    0.1049957575    2.0780156302   -0.9804255880
 H    0.4292314494    2.0768909668    0.7771551798
 H    0.7343592078   -0.4059250704   -1.9997567082
 H   -1.5837953164   -3.0906257407   -2.1213053123
 H   -2.0836210261   -2.4185450742   -0.5360568584
 H   -1.4146418667   -0.8448139627   -3.0886316181
 H   -3.6228059656   -0.3346391005   -1.8344669257