18

 O   -0.0164210116    1.3858944553   -0.0567384079
 C   -0.0027418750   -0.0119208735   -0.0164816069
 C   -0.4521421901   -0.7283880295    1.2311881962
 C   -1.3422560869   -0.6934359301   -0.0070194766
 C   -2.6080348524    0.1416156845   -0.0168594648
 C   -3.7916095983   -0.7964750728    0.1895917142
 O   -3.7778943588   -1.8635106283   -0.7734913477
 C   -2.5539852088   -2.3534344498   -1.0812635184
 N   -1.4098306581   -1.9163270904   -0.7565458826
 H    0.7036035666    1.7059323079    0.4966668432
 H    0.7647128673   -0.4941413747   -0.6197373793
 H    0.0198043923   -1.6702703905    1.4840336932
 H   -0.7618701085   -0.1143741977    2.0710273583
 H   -2.5948656828    0.9156056626    0.7533024737
 H   -2.7097894602    0.6475391035   -0.9839541172
 H   -3.7640235260   -1.2397795269    1.1933845844
 H   -4.7518916109   -0.2928585146    0.0586979473
 H   -2.6533273777   -3.2448912251   -1.6970184390