16

 O    0.0391029486    0.0100456481   -0.4218342270
 C    0.0493831480    1.1600464158   -0.0985907492
 O   -1.0842920215    1.8329569237    0.2635707203
 C   -0.8184081831    3.2106984179    0.5513745411
 C   -0.3897267788    3.5066069586    2.0195374340
 C    1.0889554095    3.5756620791    1.5635646951
 N    1.6755748654    2.2052578646    1.4499941971
 C    1.2395408901    2.1143850619    0.0129560534
 C    0.6291993906    3.5250009744    0.0718068946
 H   -1.6507467679    3.7913653743    0.1550934510
 H   -0.7662469597    4.4806548306    2.3453292937
 H   -0.6368840993    2.7441016227    2.7598574973
 H    1.7379698565    4.3360644558    1.9981208645
 H    2.6868440645    2.2213971370    1.5160530271
 H    2.0206210924    1.8743083996   -0.7076119339
 H    0.8121556347    4.2652227358   -0.7032210091