21

 C    0.1814532187    1.5200316422    0.1788625179
 C    0.0667771914   -0.0083886603    0.1481110639
 C    0.2782756623   -0.6129644797    1.5402870066
 C   -1.2997793912   -0.4253791841   -0.4506235760
 C   -1.4454172531   -1.8618706412   -0.6589774715
 C   -1.5388349377   -3.0478744080   -0.8502110490
 C   -1.6969235638   -4.4842841851   -1.0276091432
 C   -2.2914820518   -5.1605340886    0.2096598723
 O   -3.0773269242   -6.0669646716    0.1621741541
 H    1.1537560857    1.8321051808    0.5727741272
 H    0.0699998525    1.9523847925   -0.8212097046
 H   -0.5919088660    1.9588142032    0.8208737618
 H    0.8451585180   -0.4008063896   -0.5190525447
 H    0.1926130483   -1.7029130068    1.5156856423
 H    1.2677243717   -0.3569840097    1.9322658243
 H   -0.4683239004   -0.2324481842    2.2481212813
 H   -2.1027630100   -0.0668915136    0.2090216611
 H   -1.4444184604    0.0905596910   -1.4088624833
 H   -2.3259518399   -4.7346929351   -1.8883003055
 H   -0.7176373074   -4.9569123461   -1.2026149802
 H   -1.9224802125   -4.7489566358    1.1744974552