19

 O   -0.4662020085    1.4001968396   -0.1528991437
 C   -0.1509601551    0.0430275029   -0.1663904651
 C   -0.1981638275   -0.7587142076    1.1310719653
 C   -1.2686772571   -0.9131572330    0.0940298171
 O   -2.5673740208   -0.3345555995    0.3191059833
 C   -3.1951931353   -1.4244437595   -0.4048369300
 C   -3.3620658416   -1.1522693395   -1.9189695863
 C   -2.0028678060   -1.8735730308   -2.1931757413
 C   -1.8233451748   -2.1085602899   -0.6683387338
 H   -1.4318792414    1.4523703958   -0.1134662923
 H    0.6168074002   -0.2090881587   -0.8943384214
 H    0.5132951089   -1.5679542396    1.2651569645
 H   -0.4686605466   -0.2167425080    2.0316998750
 H   -4.0284299127   -1.8494496756    0.1577266727
 H   -4.2258659685   -1.6519002245   -2.3647171066
 H   -3.4049187785   -0.0892484558   -2.1654715037
 H   -2.1201934072   -2.8025839504   -2.7554039756
 H   -1.2213369299   -1.2770823468   -2.6695341205
 H   -1.5475286176   -3.1000663391   -0.3114520075