17

 O    0.0615339615    0.0117245922   -0.0211589583
 C    0.0151346197    1.2025406379   -0.0583015747
 C   -1.0814961460    2.2848843780    0.0319891711
 C   -0.0563777348    2.9856092504    0.9879228077
 C    1.0300242179    2.3687977736    0.0370040097
 C    0.7046139593    3.1043034830   -1.2593664103
 C    1.5470597279    4.1222862968   -1.8869834974
 O    1.4341125592    2.7998177985   -2.4374752290
 C   -0.8424037393    3.0588580720   -1.2867929844
 H   -2.1041162434    2.0569699277    0.3232383102
 H   -0.0985627401    4.0766280280    1.0237792034
 H   -0.0352082011    2.5627515376    1.9930966926
 H    2.0740990644    2.2367669103    0.3086555780
 H    1.0881562032    4.9134827996   -2.4793590256
 H    2.5185822528    4.3672436869   -1.4590436000
 H   -1.2001193274    2.5277688124   -2.1724412972
 H   -1.2985746938    4.0528201053   -1.2651040656