17

 C    0.3011069279    1.5059487545    0.1879232011
 C   -0.1390621024    0.0589196694   -0.0748744030
 C    0.4674157822   -0.5145230393   -1.3277206676
 C    0.1459132043    0.0476504272   -2.7054385744
 O    0.4446159844   -0.9950669754   -3.6488363502
 C    0.7227729273   -2.1786978706   -3.0293767619
 O    0.8346217837   -3.2118709586   -3.6196167275
 C    0.8344179206   -1.9188092576   -1.5492013468
 O    1.8392863397   -0.9241108139   -1.2732126497
 H    1.3902917435    1.5700112565    0.2656353949
 H   -0.0218412669    2.1791889653   -0.6130426724
 H   -0.1292627878    1.8750794748    1.1226176653
 H    0.1533326900   -0.5771634579    0.7666654638
 H   -1.2317805695    0.0041271580   -0.1542010735
 H   -0.9141599848    0.3092530593   -2.7980298873
 H    0.7572090055    0.9194428000   -2.9534806600
 H    0.7290226423   -2.7295511516   -0.8374940407