15

 N   -0.1954054825    1.3701909074   -0.0155601782
 C   -0.0372615507   -0.0691471309   -0.0044644073
 C   -0.5233447171   -0.7623702488    1.2748915893
 C   -1.3940835511   -0.8084677006    0.0612493422
 O   -2.5375549473   -0.0454236655   -0.0369708181
 C    1.0446009042   -0.6423948069   -0.7383387087
 C    1.9572020155   -1.1078041635   -1.3859518651
 C    2.9860650872   -1.6353472984   -2.1076045718
 N    3.8647873857   -2.0840964824   -2.7226945406
 H    0.5041821637    1.8221866375    0.5651772304
 H   -0.0903657823    1.7316798849   -0.9589410732
 H    0.0026729394   -1.6597006180    1.5786306187
 H   -0.8172902216   -0.0957076151    2.0785744911
 H   -1.4742914107   -1.7440381976   -0.4809735859
 H   -2.2578589523    0.8714592179    0.1214952272