23

 C   -0.0178892575    1.4099359262    0.3092678061
 O   -0.1458602122    0.0268902654    0.5514268761
 C   -1.3266485221   -0.5813852408    0.0614864236
 C   -2.5745265133   -0.0707238126    0.7793943122
 C   -1.4922880569   -0.6462731232   -1.4902237125
 C   -1.8259747612   -2.1559295099   -1.3591705743
 C   -1.2095462959   -2.1422773656    0.0732637059
 C    0.2265175937   -2.6517228214    0.1150146418
 O   -1.9840464977   -2.7291503910    1.1033105499
 H    0.9948569852    1.6912076544    0.6097258973
 H   -0.1478136964    1.6565011757   -0.7550871437
 H   -0.7306129421    2.0102703280    0.8917475439
 H   -2.7481814125    0.9854224332    0.5513450071
 H   -3.4598566481   -0.6308258806    0.4707963437
 H   -2.4628782655   -0.1896332540    1.8596407889
 H   -2.2544717170   -0.0032669610   -1.9355878872
 H   -0.5397521433   -0.4747456265   -1.9979838075
 H   -2.9010784278   -2.3438733719   -1.3158286589
 H   -1.3735107968   -2.8343414044   -2.0868450894
 H    0.8457678138   -2.1838189916   -0.6536072993
 H    0.6787310273   -2.4415721009    1.0868018850
 H    0.2374954904   -3.7357258529   -0.0590013967
 H   -1.7663706141   -3.6657165249    1.1458585882