17

 C    0.2424928287    1.4773593664    0.0035591784
 N    0.1079089238    0.0394172680   -0.0259889801
 C   -1.1457190229   -0.6599651586    0.1618604375
 C   -0.7301775739   -2.1358537037   -0.1055412880
 N    0.6967398328   -2.1005477151    0.1745688904
 C    1.1999206470   -0.8102839117    0.0167944794
 O    2.3658563812   -0.4914990317   -0.0534318862
 C   -1.6777302127   -0.4946153878    1.5863332343
 O   -2.8224816771   -0.2425587153    1.8526440012
 H    1.3040160741    1.7035104913   -0.1112709551
 H   -0.3169730063    1.9403161003   -0.8176177778
 H   -0.1123763502    1.9090668076    0.9484545668
 H   -1.9251291758   -0.3222610993   -0.5288366168
 H   -1.2601872919   -2.8353507148    0.5484340123
 H   -0.9543579958   -2.4036730306   -1.1468702525
 H    1.2936694763   -2.8442696805   -0.1519756111
 H   -0.9026771172   -0.6332430544    2.3747920675