22

 C    0.3532744295    1.4977119342    0.1945784544
 C    0.0213092263    0.0049887665    0.0164771678
 C    0.3834348838   -0.7582089614    1.3002800691
 O   -1.3881084465   -0.1495279318   -0.2179788188
 C    0.6955827075   -0.5453724071   -1.2541830580
 C    0.1362401234    0.0113620915   -2.5559791435
 C    2.1772568816   -0.8397070184   -1.2365544327
 C    1.1839877413   -1.9744448848   -1.3109411245
 H    1.4283059156    1.6497456153    0.3307973149
 H    0.0272351962    2.0796477785   -0.6698756742
 H   -0.1550070313    1.8974328812    1.0801542955
 H   -0.0909396716   -0.2703102895    2.1595976095
 H    0.0137700320   -1.7846086355    1.2556934074
 H    1.4597172729   -0.7740516907    1.4942369310
 H   -1.8515891723    0.2468492765    0.5272022467
 H    0.2784043431    1.0943225120   -2.6349250078
 H    0.6437030466   -0.4449911397   -3.4115342637
 H   -0.9330172574   -0.1945846706   -2.6381412669
 H    2.7495002754   -0.5897933564   -2.1239377799
 H    2.7311901607   -0.7143619906   -0.3123722671
 H    1.0803846735   -2.6110008804   -0.4411925857
 H    1.0731464497   -2.5009716390   -2.2528993734