12

 N   -0.0910539543    1.2906548672    0.0010464694
 C   -0.0573738345   -0.0810240762    0.0709761512
 O    0.8856399908   -0.7542096121   -0.2847340818
 N   -1.2453914830   -0.6143069366    0.6244510906
 C   -2.4594873187   -0.6950948449   -0.1922682525
 C   -1.6841646738   -1.9183351629    0.1690950728
 H    0.7977513682    1.7363164091   -0.1600708979
 H   -0.7427731405    1.7802731038    0.5922487818
 H   -3.3878217622   -0.4559753100    0.3190484571
 H   -2.3961481281   -0.3458004599   -1.2196450624
 H   -1.0843701281   -2.3878666218   -0.6047594141
 H   -2.0506115358   -2.5827444757    0.9457924759