21

 C   -0.4254706858    1.4303438847    0.8957300254
 C    0.1458016620    0.0989822634    0.4312762087
 C   -0.6578575238   -1.0867493552    0.9534201589
 C    0.5411606159    0.0059077544   -1.0634360956
 C    1.9853254580   -0.2418414152   -0.5413459874
 C    3.0454982981    0.7768889551   -0.9505386956
 O    1.5483189448   -0.0230323917    0.8286547856
 C    2.4686153443   -1.6090289207   -0.7388063217
 C    2.8703144404   -2.7289513354   -0.9131188572
 H    0.1768168826    2.2646540416    0.5257667776
 H   -1.4529102146    1.5571316059    0.5372348158
 H   -0.4375788645    1.4780252821    1.9896042532
 H   -1.6923219187   -1.0426101383    0.5950484173
 H   -0.2138133099   -2.0291863541    0.6225313604
 H   -0.6727364466   -1.0812389129    2.0480227246
 H    0.0953106390   -0.8125465743   -1.6285195925
 H    0.4370492800    0.9389537943   -1.6208205076
 H    2.6661137850    1.7910331125   -0.7995810735
 H    3.9452529079    0.6456494245   -0.3432322526
 H    3.3156807852    0.6480066739   -2.0031455520
 H    3.2238425707   -3.7197864846   -1.0586838416