25

 C   -1.1546048434    0.6870276018    2.2476402721
 C   -0.9021529479    0.5141707652    0.7436729726
 C    0.4037255740   -0.2422810783    0.4945461726
 O    1.4681680419    0.4998983504    1.0778049402
 C   -2.1076169969   -0.1705957495    0.0690548032
 C   -2.0721929091   -0.2995902465   -1.4500171230
 C   -1.8917771611    0.9974068085   -2.2183153389
 C   -1.4939604907   -1.5598349777   -2.0561103097
 C   -2.9875238316   -1.3362862387   -2.0592097683
 H   -0.2986109186    1.1621943238    2.7308332350
 H   -2.0426611834    1.3013012836    2.4291057241
 H   -1.3186499838   -0.2848696424    2.7298152671
 H   -0.7743975786    1.5137093231    0.3077239261
 H    0.3327774078   -1.2496971898    0.9407366434
 H    0.5644611825   -0.3721924780   -0.5846634799
 H    2.2867484570    0.0201735228    0.9241687684
 H   -2.2365202128   -1.1700755170    0.5072198042
 H   -3.0082925811    0.3946882636    0.3468975512
 H   -0.9170719162    1.4574028543   -2.0224033653
 H   -1.9629061228    0.8275839458   -3.2972581492
 H   -2.6634181466    1.7274675845   -1.9453674394
 H   -0.9629630355   -1.4800490499   -2.9993264465
 H   -1.0965747268   -2.3182771808   -1.3896575341
 H   -3.5941212174   -1.9396394785   -1.3915421662
 H   -3.4675847987   -1.1035281003   -3.0040634497