17

 O    0.9775631481    0.6158347887   -0.9762065586
 C    0.4006937927    1.5005107284   -0.4083702914
 C   -1.0027216396    1.6407795493    0.2055196638
 C   -0.4257780855    2.7805716295    1.0953955048
 C    0.8385345267    2.8695918115    0.1840788704
 N    2.1175227124    3.1038238997    0.8104119985
 C    2.8667456999    1.9672763119    1.3470758557
 C    3.3228141368    2.6600349024    0.1097474282
 H   -1.7316040617    1.9907747547   -0.5324472696
 H   -1.4021000350    0.7500725134    0.6953497997
 H   -1.0195559282    3.6901068271    1.1835793346
 H   -0.1605845518    2.4252369214    2.0935496931
 H    0.6900345872    3.6379765697   -0.5868808793
 H    3.3628228690    2.1521572781    2.2955374522
 H    2.4630356418    0.9657654695    1.2247035924
 H    3.1992906650    2.1154312223   -0.8220425447
 H    4.1598128320    3.3523444225    0.1418181701