23

 C    0.1421676787    1.0994594998    0.5019302571
 C   -0.1372667848   -0.1855375300   -0.2815727984
 C   -1.4583485451   -0.8284690534    0.1142179854
 O   -1.6401510631   -1.9994706660   -0.6738426840
 C   -2.8281068229   -2.6607181550   -0.4075266433
 C   -2.8156204347   -4.1504733903   -0.6132148553
 C   -2.9211377089   -3.5749759978    0.7877494322
 O   -1.8164740852   -3.6249713344    1.6271592418
 C   -1.6488572937   -4.8802772714    2.2547941973
 H    1.0969985527    1.5424445475    0.2043229730
 H   -0.6386901451    1.8490279815    0.3313944604
 H    0.1864197503    0.9077032329    1.5797169846
 H   -0.1566988026    0.0212766473   -1.3579259685
 H    0.6651060791   -0.9136670969   -0.1170800894
 H   -1.4601360993   -1.0932596622    1.1804256906
 H   -2.2922515650   -0.1264172627   -0.0578005822
 H   -3.7299108107   -2.1055090881   -0.6749168791
 H   -3.6734307114   -4.6377593470   -1.0627804261
 H   -1.8481311455   -4.5601315768   -0.8822211881
 H   -3.8834574973   -3.6554079504    1.2978401268
 H   -1.5079025478   -5.6848231531    1.5192682079
 H   -0.7589862726   -4.8088620800    2.8845987488
 H   -2.5133881653   -5.1357578733    2.8862716186