16

 C   -0.0921415306    1.4671142791    0.4487514123
 C   -0.0981336850    0.0321005521   -0.1073169089
 C   -1.4614756223   -0.5616807638   -0.1668945725
 N   -2.1312386152   -0.9416559458   -1.2221810952
 C   -3.3269530402   -1.4022376306   -0.7205004487
 C   -3.3334173091   -1.2790272667    0.6396705253
 O   -2.1251599742   -0.7346859402    0.9960307314
 C   -4.3226946293   -1.6061274840    1.6507642285
 O   -4.1919662175   -1.4410668972    2.8423627189
 H    0.9306049748    1.8511772179    0.4852876922
 H   -0.6854254052    2.1341308217   -0.1831822015
 H   -0.5059361877    1.4958688612    1.4599690816
 H    0.3064048412    0.0037395239   -1.1214312524
 H    0.5355951473   -0.6061034273    0.5201191924
 H   -4.1042113067   -1.7910604880   -1.3608269922
 H   -5.2477876303   -2.0390803321    1.2120192587