19

 O   -0.1120089199    1.3615750942   -0.2448952324
 C    0.0133708619   -0.0187445802   -0.0509420858
 C    1.1122435128   -0.6291751328   -0.8788797510
 O    2.3176456259    0.0247737861   -0.5060708863
 C    3.4107178178   -0.3152085259   -1.3373945478
 C    4.5948704640    0.4296278827   -0.9311984649
 C    5.5834771761    1.0340458554   -0.6166296256
 C   -0.2983718412   -0.5777235931    1.3166105922
 C   -1.2680317636   -0.7571357867    0.1629993652
 H    0.7667796862    1.7298244841   -0.0889745560
 H    1.1850052086   -1.7144864203   -0.7063862528
 H    0.9118857851   -0.4637106867   -1.9501474623
 H    3.6147545023   -1.3978692138   -1.2802549432
 H    3.1754131058   -0.0940695512   -2.3924285396
 H    6.4557244559    1.5700685223   -0.3340649826
 H    0.2545126614   -1.4412567912    1.6703629698
 H   -0.5662472291    0.1422780301    2.0807971362
 H   -2.1676929056   -0.1528250854    0.1678701787
 H   -1.3842414144   -1.7434242575   -0.2736971418