24

 C   -1.6672221656   -0.5650421066   -0.5561211716
 C   -0.1960564812   -0.2199689615   -0.2948139041
 C    0.7946263747   -0.5756271509   -1.4304538858
 O    0.4246751114    0.1049663637   -2.6390561395
 C    2.2097769689   -0.0601046734   -1.0975588296
 C    2.3327722043    1.4558732897   -0.9059040213
 C    0.8149549666   -2.1045300334   -1.6753518768
 C    1.7263920155   -2.5744538112   -2.8142440631
 H   -2.0382100276   -0.0827160148   -1.4681535802
 H   -1.8410436681   -1.6412047710   -0.6464228614
 H   -2.2921481997   -0.2037152014    0.2662100721
 H   -0.1270975318    0.8563115873   -0.1123746879
 H    0.1366482385   -0.7166096753    0.6254812464
 H   -0.4390399993   -0.2207247107   -2.9114033730
 H    2.5665437925   -0.5847262479   -0.2025653132
 H    2.8708793690   -0.3554880036   -1.9177033551
 H    1.8953636852    1.9852425541   -1.7559549014
 H    1.8366972276    1.8047634585    0.0046351891
 H    3.3863048876    1.7428075508   -0.8302275315
 H    1.0896394180   -2.6079235889   -0.7395828851
 H   -0.2100931886   -2.4274601622   -1.8976838652
 H    1.5394085556   -1.9907697721   -3.7199316618
 H    2.7862406802   -2.4746811666   -2.5637666366
 H    1.5432041661   -3.6291391228   -3.0416627834