18

 C   -0.1600498029    1.5256566502   -0.0456299148
 C    0.0949875455    0.0210980234   -0.1315746098
 O    1.1384762887   -0.2723288580   -1.0585937606
 C    0.5427889794   -0.5577149015    1.2160158168
 C    0.6329823187   -2.0486669192    1.2316672861
 C    1.1720286113   -2.9801670895    0.3962138511
 C    0.8903009475   -4.2096909367    1.0451363177
 N    0.2402948432   -4.0442425214    2.1713025241
 O    0.0740915921   -2.6666873021    2.2915733941
 H    0.7427001995    2.0493916187    0.2841807376
 H   -0.4453496015    1.9238939653   -1.0256507935
 H   -0.9722866061    1.7498840774    0.6531981857
 H   -0.8327898671   -0.4881708882   -0.4364750336
 H    0.8518255561    0.0125956662   -1.9318622757
 H    1.5196988781   -0.1212535142    1.4602725314
 H   -0.1560678426   -0.2492315316    1.9985218259
 H    1.6841627907   -2.7984163545   -0.5316667697
 H    1.1388180794   -5.2136146044    0.7297106572