18

 C    0.0217192304    1.5642271862   -0.0689347587
 O    1.3940198398    1.9410539283   -0.1380528644
 C    2.1747796048    1.5628665889    0.9809464549
 C    1.5922748752    0.3835655445    1.8060619151
 C    0.5431886279    0.7780568730    2.8275008602
 C   -0.6209352787    0.1843287637    2.5638810191
 C   -0.4970571345   -0.6377809614    1.3348993283
 C   -0.0889237694    0.0596411752    0.0650133358
 N    0.9233267353   -0.6031567026    0.9141763428
 H   -0.4896123726    2.0927082280    0.7456496537
 H   -0.4158828955    1.8906390650   -1.0153176752
 H    3.1559558118    1.2782986117    0.5863992622
 H    2.3219505289    2.4221529435    1.6542667402
 H    2.4427115011   -0.1066160963    2.2969743395
 H    0.7419327011    1.4813816870    3.6283842732
 H   -1.5405223876    0.2832668442    3.1268477890
 H   -1.0071128920   -1.5946304445    1.2639942924
 H   -0.2548103861   -0.4771996242   -0.8664246282