27

 C    1.0968229187    1.6513793244   -0.5814235041
 C    1.1248331274    0.1533740652   -0.2804981318
 C    2.4747569570   -0.5145783482   -0.6842759632
 C    2.9106389817   -0.4887839604    0.8038111240
 C    1.4128685425   -0.3380576242    1.1877581883
 C    0.9597908908    0.3564212359    2.4912344958
 C    1.5512343303    1.7647849126    2.6936868128
 C   -0.5786938233    0.4426487675    2.5009054372
 C    1.4171118964   -0.5290228916    3.6700516590
 H    1.9835258911    2.1681109834   -0.2012212178
 H    1.0718299023    1.8046120497   -1.6666905445
 H    0.2142703877    2.1443731523   -0.1615567897
 H    0.2351378689   -0.3046514460   -0.7248354507
 H    2.3374127825   -1.5352290927   -1.0520925291
 H    3.0957480824    0.0314034183   -1.4000769254
 H    3.4497630228   -1.3559373281    1.1935920059
 H    3.4931316845    0.4081462854    1.0336974583
 H    0.9958009525   -1.3533546766    1.2348991704
 H    1.1906626150    2.4776804775    1.9499933069
 H    1.2677203215    2.1498614545    3.6797332813
 H    2.6451373106    1.7552483571    2.6521517271
 H   -1.0301682782   -0.5505816574    2.3977932015
 H   -0.9406924727    0.8762046756    3.4399978999
 H   -0.9528699861    1.0654811623    1.6821779172
 H    2.5081879839   -0.6203714279    3.6993047600
 H    1.0932991464   -0.1032705631    4.6261612125
 H    0.9988364832   -1.5388715957    3.5946982782