17

 C    0.0225734236    1.6059861197   -0.1686716415
 C   -0.0084520847    0.0743675112    0.0117112361
 C    0.8790023324   -0.3845663645    1.1869296909
 C    2.3588632008   -0.2584644656    0.9178145285
 O    2.8552051079    0.0250345272   -0.1486813806
 C    3.3072341731   -0.5361883088    2.0955969376
 O    2.9305023138   -0.7932765999    3.2076996676
 C   -1.3758120336   -0.4067291983    0.1995944110
 C   -2.5004237492   -0.7931423495    0.3755961296
 H    1.0434030731    1.9426177485   -0.3626519374
 H   -0.6056650713    1.9034908541   -1.0115572436
 H   -0.3552149326    2.1071550399    0.7278865516
 H    0.3992756706   -0.3789763521   -0.9005475451
 H    0.6390849674    0.1566552743    2.1098451351
 H    0.6889324255   -1.4387514309    1.4297537149
 H    4.3773595280   -0.4666825143    1.8070911464
 H   -3.4946123646   -1.1386163610    0.5163629691