16

 C    0.0057495942    1.5602059514    0.0142480809
 C    0.0623507816    0.0521193437   -0.0700978956
 C    0.6487287737   -0.7431599406   -1.2104139760
 C    1.9362876933   -0.1114347993   -1.7487460300
 N    2.4886107682    0.0315941703   -0.3584802585
 C    1.3323886157   -0.7352750549    0.1684375807
 C    1.4762406949   -1.7637880339    1.1427380857
 N    1.6121438722   -2.5996992606    1.9329821441
 H    0.9655234765    2.0069233968   -0.2514435579
 H   -0.7666776087    1.9556378880   -0.6533848046
 H   -0.2370600385    1.8744314690    1.0340343281
 H   -0.8028315968   -0.4584329083    0.3474319861
 H    0.1019042168   -1.5442829596   -1.6904711216
 H    2.5071263882   -0.8159734623   -2.3599790111
 H    1.8443996975    0.8383193790   -2.2854024845
 H    3.3490543512   -0.4950591886   -0.2528636659