19

 C    0.0818726070    1.3258145226    0.0441096899
 O   -0.1818703496   -0.0452236615   -0.1542496708
 C    0.5668326556   -0.6229314629   -1.1979290939
 C    2.0479239973   -0.9942734767   -0.8293075644
 C    1.9068325096   -2.5135939662   -0.9794698171
 O    1.1593427642   -2.6242063648   -2.2476581165
 C    0.0604445621   -2.0507513936   -1.4631065612
 C    0.5810562699   -2.8627091097   -0.2488282421
 O    0.2414051394   -4.2193695951   -0.2555576683
 H    1.1247400417    1.5088730423    0.3432644851
 H   -0.1230441973    1.9116207310   -0.8652644510
 H   -0.5780518572    1.6702795149    0.8436892069
 H    0.5096805456   -0.0017356309   -2.1019668425
 H    2.7822027702   -0.5865991539   -1.5266811933
 H    2.3011934930   -0.6809241581    0.1873851515
 H    2.7893232985   -3.1514011169   -0.9263026844
 H   -0.9295592983   -2.1896233089   -1.8961397453
 H    0.4074783951   -2.4730270332    0.7547335764
 H    0.3922134733   -4.5300325184   -1.1581794691