12

 C    0.0710677869    1.3927596116   -0.1282520672
 O    1.4728675473    1.7788720602   -0.0136486142
 C    1.9558396974    0.6845962801    0.6270542197
 C    1.1316190871   -0.3707607347    0.6223968149
 O   -0.0359216001   -0.0385188957   -0.0479412647
 C    1.8737632897   -1.4656966001    1.1473816593
 C    3.1051734359   -0.9329528693    1.4324689814
 O    3.1714622189    0.4172488662    1.0988894416
 H   -0.4702565730    1.8449268576    0.7160025510
 H   -0.3088340777    1.7360523883   -1.0906635089
 H    1.5724249083   -2.4866490469    1.3157030481
 H    3.9856664293   -1.3228290574    1.9113314789