19

 C   -0.0133182304    1.6396227905   -0.0648818355
 C   -0.0382924837    0.1082708428   -0.0052032467
 C    0.8178601917   -0.4310206938    1.1648465811
 N   -1.4023643847   -0.4409113020    0.0648919114
 C   -2.2510790988   -0.1925866185    1.1307613619
 N   -3.5566944829   -0.6079590546    0.8948194699
 O   -1.9174828118    0.3509382357    2.1671769836
 C    0.5814345778   -0.5050328642   -1.2633858367
 O    1.3216100027    0.0671276672   -2.0169841245
 H    1.0099771951    1.9964070628   -0.2004731870
 H   -0.6069830738    2.0028170892   -0.9093302402
 H   -0.4247299594    2.0482300123    0.8594783007
 H    0.3946629997   -0.0941000364    2.1104196011
 H    0.8363695144   -1.5255503297    1.1610122695
 H    1.8427367268   -0.0624069607    1.0697903663
 H   -1.8712249246   -0.5217874300   -0.8266524138
 H   -3.6918959578   -1.4195673970    0.3105359480
 H   -4.1152433329   -0.6103691846    1.7350315547
 H    0.3094117824   -1.5769074688   -1.4127950836