17

 C   -0.0256356527    1.5725773292   -0.0262863267
 C   -0.0735173877    0.0748719426    0.0403856474
 O    0.9571957827   -0.6119857820   -0.8423880885
 C    0.6174449501   -1.7753617907    0.0551272065
 C    1.1472133061   -2.7836583246    1.1077181967
 O    0.4401470980   -1.9526833896    2.1185214295
 C    0.6386651218   -0.8225835272    1.1773868840
 C   -0.8675404529   -1.9733157164   -0.2648046438
 C   -1.3281960218   -0.7241562084   -0.2831274682
 H    0.9609367572    1.9435108569    0.2625010419
 H   -0.2388864803    1.9171348778   -1.0430306928
 H   -0.7742719741    2.0016456976    0.6470061644
 H    0.7497137961   -3.8020430652    1.0813406726
 H    2.2280364555   -2.7759627870    1.2787772503
 H    1.6093999012   -0.3712256887    1.4068825461
 H   -1.3629225646   -2.9206056144   -0.4203661092
 H   -2.3154630847   -0.3245968600   -0.4625973303