21

 C    0.0109760839    1.5193382923   -0.2577796412
 C   -0.0282264907    0.0377907787    0.0232032896
 O    1.2067407555   -0.6812471008   -0.0342306811
 C    0.5208514897   -0.6119979134    1.2273614650
 C    1.1980490004    0.1265661953    2.3445991184
 C    0.3429704487    0.6246115355    3.5482464380
 C    1.5102963522    0.2239667317    4.4894963523
 C    2.0654511487   -0.6826100099    3.3553457719
 O    1.5810203920   -2.0120648979    3.4218154287
 H    0.8266923979    2.0152099258    0.2718177623
 H    0.1482405154    1.6959023593   -1.3299159223
 H   -0.9340302537    1.9878118874    0.0386971711
 H   -0.8533540174   -0.4831719073   -0.4690527776
 H    0.0716717378   -1.5566694518    1.5315482509
 H    1.8016548887    0.9422189681    1.9402221899
 H    0.0277989307    1.6701570830    3.5396201457
 H   -0.5355582259   -0.0070353834    3.7028990273
 H    2.1783339978    1.0637528315    4.7018530071
 H    1.2600863041   -0.2773161459    5.4283817327
 H    3.1504354828   -0.6692072434    3.1893207268
 H    1.9902796913   -2.4401072848    4.1802180445