12

 N    0.0123867768    1.3758243044    0.1702931698
 C    0.0620614122    0.0108337996    0.0466219605
 N   -1.0546347183   -0.7076461060   -0.0022700193
 O   -0.6599577487   -2.1106515645   -0.0427890124
 C    0.6517857730   -2.0737738487   -0.0326310697
 C    1.2068764430   -0.8424173603    0.0199003830
 N    2.5927741975   -0.9785672713    0.0283165511
 C    2.7595971201   -2.2577079620   -0.0179228985
 O    1.5896331096   -3.0291028350   -0.0575174747
 H    0.7924106823    1.8725499172   -0.2319915930
 H   -0.8852594832    1.7854074067   -0.0461817293
 H    3.6768364356   -2.8234147000   -0.0314489074