18

 C   -0.1853779530    1.4823558344   -0.0084715386
 C   -0.1090170036   -0.0339596315    0.0232689996
 O   -0.1220577665   -0.6466035162    1.0732624825
 C   -0.0107415770   -0.7380352484   -1.2829844768
 C   -0.0044187519   -2.0770745149   -1.3940815772
 C    0.0273747929   -2.4975978447   -2.8171610775
 N   -1.1765667337   -2.0203489015   -3.5669495835
 C    0.0719810912   -1.2390438709   -3.6186950858
 C    0.0893428599   -0.0636497651   -2.6471238916
 H    0.6753776280    1.9043970238   -0.5397091691
 H   -1.0816898682    1.8085337156   -0.5486634151
 H   -0.2137951785    1.8666555353    1.0113997527
 H   -0.0447234434   -2.7531537020   -0.5495503292
 H    0.4984342638   -3.4235460133   -3.1269543222
 H   -1.2484071052   -2.5640857951   -4.4258972931
 H    0.6114786592   -1.1753892971   -4.5573542043
 H   -0.7448752183    0.6209858333   -2.8372999993
 H    1.0141751443    0.5195525883   -2.7440182913