19

 C   -0.2751099714    1.3816248632    0.0047264808
 N    0.0343532297   -0.0376769784    0.0854757791
 C    1.4004289679   -0.4452162440   -0.2196656343
 C    0.8750714159   -0.5542866884    1.1714300474
 C    1.4331987115    0.2953479818    2.2942766614
 C    0.4204179914    0.4819134138    3.4468918993
 C    0.9674749853    1.2420800816    4.5635152513
 C    1.4465658188    1.8722689848    5.4681244310
 H    0.5508831368    2.0544050024    0.2846059973
 H   -0.5563103312    1.6158486583   -1.0271058114
 H   -1.1344877376    1.6066980025    0.6451746830
 H    1.5137798110   -1.3249242702   -0.8483802006
 H    2.1343641369    0.3400006572   -0.4043431184
 H    0.5482826039   -1.5405895889    1.5041651772
 H    2.3307471906   -0.1934469622    2.6907485296
 H    1.7544809459    1.2753019191    1.9312666704
 H   -0.4792975701    0.9818969176    3.0674831330
 H    0.0903969100   -0.5037345041    3.8006625192
 H    1.8565348650    2.4267434038    6.2753136149