17

 C   -0.2206486108    1.5713689498    0.1204026491
 C    0.0317600208    0.0700203742    0.0606240798
 O    1.1491081287   -0.2580381849   -0.7932480020
 C    1.8710213002   -0.9305151425    0.2737117022
 C    0.7557611374   -0.6002699141    1.2545786787
 C    0.7369817982   -0.1974762768    2.6742741998
 N    0.2190793987   -1.5096779404    2.2395548498
 C   -1.1896290840   -0.6543107388   -0.3363554634
 N   -2.1611146565   -1.2262976611   -0.5920888909
 H    0.6855135802    2.0774974293    0.4604731395
 H   -0.4840481562    1.9440724256   -0.8730983578
 H   -1.0424429096    1.8026993622    0.8046584155
 H    1.9967641600   -2.0002006356    0.0758307536
 H    2.8459088191   -0.4653632472    0.4544732706
 H    1.6477662512   -0.2371409288    3.2658016245
 H    0.0333344729    0.5753772151    2.9746193240
 H   -0.7987819202   -1.5268111260    2.2148532371