22

 C    1.5008626867    1.0952135065   -0.9257842076
 C    1.1542431556   -0.2509198414   -0.3401591865
 O    2.2184962538   -1.0692512442    0.1689453746
 C    1.1772283886   -0.6809894604    1.0713717887
 C    1.5265664700    0.0743558254    2.3544029241
 C    2.5883236044    1.1718346324    2.1780051955
 C    0.2250308944    0.6782859530    2.9146758047
 C    2.0737557888   -0.9792984274    3.3427838554
 H    2.3017265255    1.5920199426   -0.3822048544
 H    1.8245994349    0.9686741784   -1.9645959745
 H    0.6199787813    1.7469127212   -0.9329860942
 H    0.4578789593   -0.8138122962   -0.9690980001
 H    0.4900635221   -1.5054818554    1.2926245887
 H    2.1902183735    2.0527706293    1.6681044220
 H    2.9460676775    1.5009606209    3.1592717550
 H    3.4448934408    0.7962872454    1.6121572662
 H   -0.5393277676   -0.0917432162    3.0678621862
 H    0.4087000813    1.1596223433    3.8810320606
 H   -0.1875238643    1.4318372464    2.2356600867
 H    2.9950132244   -1.4295590179    2.9600397950
 H    2.2944925430   -0.5207613539    4.3123161222
 H    1.3496449261   -1.7842268717    3.5094238416