18

 O   -0.0262215989    1.4456356626   -0.1874881457
 C    0.0457194975    0.0411779490   -0.0041493404
 C   -1.3748908525   -0.5066211143   -0.0428511146
 C   -1.4247409732   -2.0336135310    0.1386404765
 C   -2.8156559639   -2.5897151440    0.0842169247
 C   -3.5713797538   -3.1205954513    1.0821398300
 O   -4.7776877643   -3.4965699246    0.6299829746
 N   -4.8536508243   -3.2138343782   -0.7292046483
 C   -3.6973915298   -2.6818023115   -1.0349948528
 H    0.8673435492    1.7999405047   -0.1636415978
 H    0.6496300863   -0.4355652891   -0.7943657995
 H    0.5166030306   -0.2134560131    0.9601292625
 H   -1.9656008157   -0.0189381912    0.7403998463
 H   -1.8316749546   -0.2250304850   -0.9986341128
 H   -0.8097833753   -2.5097178531   -0.6363617714
 H   -0.9678340665   -2.3039284590    1.0978617255
 H   -3.3883854400   -3.2938761034    2.1317221561
 H   -3.5175077808   -2.3773098875   -2.0572134031