19

 C    0.1385458944    1.4981634476   -0.1149812496
 C   -0.0982691515   -0.0020218980   -0.1772107593
 O    0.7530419666   -0.5449258213   -1.1678294649
 C    0.7702969461   -1.9674397903   -1.2728766369
 C   -0.5000783262   -2.5197194879   -1.9229007251
 C    2.0225077347   -2.2680290127   -2.1013243921
 O    1.9742059614   -1.6319337589   -3.3640778538
 H    1.1808694916    1.7131292045    0.1370092081
 H   -0.0830976939    1.9616852871   -1.0807371996
 H   -0.5051158167    1.9544955805    0.6429556537
 H    0.1181586016   -0.4684870347    0.7982239574
 H   -1.1544053168   -0.2086371959   -0.4075651304
 H    0.8976446603   -2.4054774535   -0.2685205267
 H   -0.5824256468   -2.1508344313   -2.9481625514
 H   -0.4613552112   -3.6134917625   -1.9517502764
 H   -1.3983833836   -2.2350025205   -1.3688148447
 H    2.9073899508   -1.9511158346   -1.5280601059
 H    2.1038730625   -3.3443056048   -2.2854738022
 H    1.7692616766   -0.7076729228   -3.1774072305