17

 N    0.1939297850    1.5876939939    0.2831038876
 C   -0.0024069672    0.1745552059   -0.0274340643
 C   -1.4827364673   -0.1777431595   -0.3080830101
 C   -1.3534441168   -1.4243108956   -1.1822664312
 O   -0.1443676623   -1.2268077708   -1.9475071335
 C    0.6492379644   -0.3031872158   -1.3443546835
 N    1.7399797248    0.1434910350   -1.7903650506
 C    0.5211857657   -0.6503684656    1.0665264865
 C    0.9388726473   -1.3490125293    1.9501627731
 H    1.1921578836    1.7438194249    0.4044714365
 H   -0.0608552091    2.1312108077   -0.5390859646
 H   -2.0594591465   -0.3413363478    0.6018149333
 H   -1.9376450521    0.6433569071   -0.8721706663
 H   -1.2445858983   -2.3332892042   -0.5806316991
 H   -2.1735262059   -1.5593640903   -1.8899845349
 H    1.9820554156   -0.2934034005   -2.6809259646
 H    1.3218307590   -1.9547816351    2.7341947558