21

 C   -0.0103291375    1.5085149184   -0.0335808520
 C   -0.0226327444    0.0092364251    0.0384308671
 C   -1.1206928379   -0.7375167970   -0.1064641980
 C   -1.0717006794   -2.2164389360   -0.0668794650
 C   -0.1137340576   -2.9442481740   -1.0254495908
 C    0.2211439913   -2.8171347980    0.4334916698
 C    0.2044367443   -4.0362868963    1.3195872323
 O    1.2190868454   -1.9419842329    0.8871441458
 C    1.3087546482   -0.6656186303    0.2724632937
 H    0.6699516121    1.8683187866   -0.8174947283
 H   -1.0064155985    1.9054577187   -0.2473365451
 H    0.3405242311    1.9508044245    0.9080635519
 H   -2.0869758116   -0.2636236202   -0.2613864778
 H   -1.9980037023   -2.7250687254    0.1807007574
 H   -0.4033969487   -3.9220254581   -1.3960734803
 H    0.4036868075   -2.3251845204   -1.7496144639
 H   -0.5864769277   -4.7265795492    1.0148349377
 H    1.1630003882   -4.5627172650    1.2660064209
 H    0.0331373346   -3.7467090090    2.3609650652
 H    1.8751471517   -0.7324096065   -0.6738306528
 H    1.9219876411   -0.0639625048    0.9538322621