16

 C    0.0215935753    1.6661675648   -0.0441779432
 C    0.0800948693    0.1561722770    0.0097517860
 O    1.1111103585   -0.4420675977   -0.8444586026
 C    1.5971475351   -1.2252089021    0.2493282481
 C    2.1539957442   -0.3456252485    1.3161591674
 C    0.6564976905   -0.5731870055    1.2382012665
 C   -1.2471346890   -0.4980744790   -0.3669484195
 O   -2.3227517859    0.0279562430   -0.2559472098
 H    0.9287952518    2.1137359361    0.3662127349
 H   -0.0942446570    1.9999123892   -1.0797904408
 H   -0.8457657317    2.0162165866    0.5210085432
 H    1.8705609982   -2.2551626216    0.0555385715
 H    2.6278758606   -0.8611537439    2.1459600855
 H    2.5966769282    0.6097666199    1.0521935020
 H    0.0752196642   -0.9830072193    2.0527819505
 H   -1.1267750123   -1.5338287590   -0.7533712297