20

 C   -0.3860313966    1.3263369197   -0.1625918800
 O    0.0578200782    0.0012055544    0.0570531891
 C    0.7987923086   -0.5265217215   -0.9969983258
 C    0.0686543958   -1.0442298004   -2.2142450157
 C    0.7479234166   -2.0073361023   -1.2529418437
 C    2.1511438703   -2.4841316623   -1.5938245658
 C    2.9184761138   -1.1947083072   -1.9778021833
 C    2.2399350963   -0.0603835198   -1.1772353688
 H    0.4507914492    2.0353323130   -0.2383654134
 H   -0.9899521903    1.4036946277   -1.0781699569
 H   -1.0022735975    1.6032672544    0.6962015013
 H   -1.0142803715   -1.0158828412   -2.1621662294
 H    0.4748439107   -0.8894231266   -3.2092791088
 H    0.1044964365   -2.6325217416   -0.6444832485
 H    2.5981501452   -2.9469162912   -0.7057278339
 H    2.1755106695   -3.2317529114   -2.3940284006
 H    3.9889079056   -1.2683425748   -1.7692260285
 H    2.8226013786   -1.0046536661   -3.0514928018
 H    2.3349977396    0.9104438647   -1.6751990754
 H    2.6835923411    0.0365764325   -0.1787740199