18

 O    0.0678271425    1.2946019971    0.3834648744
 C   -0.0294630597   -0.0638606209    0.0583846151
 C   -1.4720332876   -0.5340805220    0.0364975719
 N   -2.2072941182   -0.1748886675   -1.1809493530
 C   -1.9161908939   -1.5934813110   -0.9144074443
 C   -0.9688570338   -2.2559343932   -1.9048777737
 C    0.5008681662   -1.7774784899   -1.7828839559
 C    0.6137423767   -0.3485060220   -1.3003860828
 O    1.1873342388    0.5373563224   -1.8928983038
 H    0.5208471759    1.7001233921   -0.3739814350
 H    0.5195227760   -0.6688040333    0.8029467384
 H   -1.9876317041   -0.4529463609    0.9908314989
 H   -3.1750710642    0.0512613144   -0.9720285828
 H   -2.7461300506   -2.2159931477   -0.5865431141
 H   -0.9989898619   -3.3421217654   -1.7742532114
 H   -1.3368527979   -2.0462063960   -2.9142582465
 H    1.0125432898   -2.3983123074   -1.0354326479
 H    1.0382661261   -1.8803935588   -2.7275122274