17

 O    0.0176223917   -0.0428116259   -0.1413761743
 C   -0.0078263428    1.1558219973   -0.0378850477
 C   -1.2788992000    2.0050477329    0.0789728799
 C   -0.8642243977    3.4964451610    0.0690766725
 C    0.0424860318    3.7070723020    1.3033787746
 O    1.1339981050    2.7916895038    1.2565007158
 C    1.2305376883    2.0669430345    0.0076560668
 C    1.1149817276    2.9945777410   -1.1731268031
 C    0.0078689126    3.7424356647   -1.1413200611
 H   -1.9478600320    1.7644126098   -0.7515572718
 H   -1.7973033052    1.7343606533    1.0059709580
 H   -1.7322869454    4.1570419050    0.1126260478
 H    0.4222318949    4.7363572399    1.3335067846
 H   -0.5175950359    3.5158027240    2.2283676821
 H    2.1504834694    1.4869517452    0.0540251683
 H    1.8700202563    3.0269001087   -1.9492281821
 H   -0.2440873986    4.4914800928   -1.8836255501