20

 C   -0.0984897899    1.5918528515    0.3686522842
 C    0.0573781621    0.0861597235    0.1954293003
 C    0.3696734813   -0.4763880773   -1.1931745628
 C    1.7230933522   -0.1148610794   -1.6542930270
 N    1.5941741033   -1.2409669642   -0.7098780162
 C    1.3462666415   -0.6550317838    0.6687448907
 C    2.5104553540    0.1033398214    1.2987939028
 C    1.0475834360   -1.8626325907    1.5504193420
 O    0.0369367963   -2.0372360560    2.1785170695
 H    0.7361826289    2.1546675986   -0.0600247072
 H   -1.0149786869    1.9374225721   -0.1214738969
 H   -0.1720010937    1.8569282273    1.4285929030
 H   -0.8057132553   -0.4184838989    0.6360582552
 H   -0.3541537197   -0.9468883604   -1.8513199351
 H    2.0196014023   -0.4452703773   -2.6452902766
 H    2.1900694521    0.8132526896   -1.3385089770
 H    2.8310809125    0.9496436889    0.6874510041
 H    2.2261574162    0.4917659286    2.2823309726
 H    3.3713745492   -0.5615279568    1.4290300295
 H    1.8793789576   -2.6017190266    1.5630649049