17

 C   -0.1751495424    1.6142848259   -0.0098350411
 C   -0.0269857056    0.1044755540    0.0065909883
 C    1.1976086738   -0.5632487856   -0.6353925042
 C    2.1648244370   -0.2487632464    0.5479447291
 C    2.5211565035   -1.7270681147    0.6296377547
 N    1.0398856627   -1.8240533995    0.2656700224
 C    0.7524642901   -0.5716576638    1.1522326319
 C    0.4002591922   -0.6907349528    2.5436391171
 N    0.1154083814   -0.7563257025    3.6627177144
 H    0.7698132650    2.1197332283    0.2131374008
 H   -0.5153096912    1.9560678914   -0.9925635326
 H   -0.9137120165    1.9398721139    0.7293020444
 H   -0.9652686326   -0.4128874837   -0.2191228322
 H    1.4606276759   -0.6801235875   -1.6866805098
 H    2.7693911779    0.6449928507    0.7236347989
 H    3.1776863628   -2.1370036393   -0.1431754488
 H    2.7592699461   -2.1518828585    1.6087794766