22

 C    0.0135142541    1.3852748361    0.0387737519
 O    0.0141813533   -0.0195927038    0.0839121376
 C   -1.2801475633   -0.5756336896   -0.0191873142
 C   -1.1758411945   -2.0901570681    0.0486076032
 C   -0.6090974705   -2.6368548428    1.3712391928
 C   -1.0446843495   -4.1084871022    1.3566933311
 C   -2.4871281516   -4.0617241531    0.8064643145
 C   -2.5461430626   -2.8023216321   -0.1072370467
 H    1.0512205178    1.7184597165    0.1212222980
 H   -0.4068473617    1.7652226711   -0.9066193395
 H   -0.5662376247    1.8227006146    0.8677861443
 H   -1.9224553323   -0.2057962402    0.8013042117
 H   -1.7556792534   -0.2613180563   -0.9653132881
 H   -0.5109505314   -2.4105346337   -0.7637222495
 H    0.4703965002   -2.4953572311    1.4589049494
 H   -1.0777191067   -2.1145532336    2.2172038970
 H   -0.3982334141   -4.6749400574    0.6749402438
 H   -0.9792162396   -4.5911623525    2.3361598051
 H   -2.7576032237   -4.9767008620    0.2722731882
 H   -3.1988376157   -3.9600157606    1.6323717320
 H   -3.3594227004   -2.1383538105    0.2081452871
 H   -2.7439298397   -3.0583346488   -1.1519388399