21

 C    0.0135965363    1.5765826097   -0.0354120880
 C    0.0645889592    0.0383884917   -0.0408756511
 C    0.8296153089   -0.5066027481   -1.2547766705
 O    2.2281096428   -0.3190125780   -1.0964768886
 C    2.7807256015   -1.0865857288   -0.0313510136
 C    4.1860226017   -0.5176666635    0.1836347483
 O    4.9483864418   -0.5729219701   -1.0022432631
 C    1.9334498816   -1.0298041459    1.2089322289
 C    0.7108126487   -0.5029634795    1.2120499819
 H    1.0270031407    1.9838405013   -0.0932274654
 H   -0.5603707463    1.9525932156   -0.8891977253
 H   -0.4532652597    1.9562276641    0.8788059893
 H   -0.9655805335   -0.3413693177   -0.0940735070
 H    0.6056182726   -1.5758671829   -1.3939761723
 H    0.5522968405    0.0224352410   -2.1717143636
 H    2.8917691864   -2.1355252448   -0.3639993265
 H    4.0916895875    0.5121216990    0.5638097077
 H    4.7136744218   -1.1112060397    0.9375984857
 H    4.3880310943   -0.1936883080   -1.6900127459
 H    2.3708752222   -1.4442278318    2.1140030060
 H    0.1387182210   -0.4485327636    2.1352187628