16

 O    0.0694453367    1.3743973559    0.3187135777
 C   -0.0531015693    0.0004862634    0.1147666437
 C   -0.4576295414   -0.8812372128    1.2640811838
 C   -1.4895470845   -0.1422841565    2.1240436186
 C   -2.4503882455   -0.0599524063    0.8817786856
 C   -2.9274245023    1.2382328126    0.4218999948
 N   -3.2867875021    2.2590852585    0.0126595850
 C   -1.3589981221   -0.7417032502    0.0299601016
 O   -1.6400139728   -1.6861388809   -0.9319793164
 H   -0.3807276065    1.8475205364   -0.3895002523
 H    0.7110177472   -0.4450090619   -0.5238863369
 H    0.1458524137   -1.7200797372    1.5853877075
 H   -1.9168533283   -0.7498456295    2.9217551302
 H   -1.1605086448    0.8187103714    2.5187974457
 H   -3.3004432607   -0.7345966848    1.0061839928
 H   -1.6927391073   -1.2542303780   -1.7925552213