17

 O    0.0908463631    1.3985469671    0.1404487045
 C   -0.0093244480    0.0091736937    0.0237752180
 C   -1.4383164016   -0.5508855562   -0.0744981482
 C   -1.2258500049   -1.9711093545   -0.6599109886
 C   -0.0596003574   -1.8060390955   -1.6267689720
 C    0.6422046920   -2.8756214167   -2.3549874787
 O   -0.2633431350   -2.0149473711   -3.0295771665
 C    0.6377656237   -0.5166687821   -1.2542225835
 O    1.4900176406    0.0675380111   -1.8755626763
 H    0.7986615675    1.6667612479   -0.4643798268
 H    0.5028681726   -0.4967263650    0.8665150063
 H   -1.9611030726   -0.5551035699    0.8834818629
 H   -2.0090130018    0.0727225138   -0.7711475952
 H   -0.9611232708   -2.6758855933    0.1366183342
 H   -2.1078185377   -2.3610388228   -1.1715676767
 H    1.6922523618   -2.7410112852   -2.6100135093
 H    0.3074846086   -3.9036005213   -2.2186480140