19

 C   -0.2313453001    1.6053293163    0.0104757072
 C    0.0555631351    0.1086741286    0.0231139744
 C    1.1540044925   -0.5232552768   -0.8630127713
 O    1.3420766700   -0.5332430270   -2.0475672471
 C    1.7850845048   -1.2552916491    0.2857954463
 C    2.1412477518   -0.2445008899    1.3633623448
 O    2.6146126070    1.0380311796    1.0706642113
 C    0.7079854393   -0.5968881937    1.2370695066
 C   -0.0823698795   -1.2393322745    2.3410151818
 H    0.6599370212    2.1787318614    0.2655083944
 H   -0.5721020354    1.9081261426   -0.9848360339
 H   -1.0237060146    1.8576017456    0.7234386641
 H   -0.8607257413   -0.4438057373   -0.2328332383
 H    2.2214358828   -2.2475405960    0.2678048764
 H    2.6331587801   -0.7095132769    2.2206391788
 H    3.4675846132    0.9510897120    0.6312467653
 H   -0.5731522781   -0.4788529459    2.9596919319
 H   -0.8629086794   -1.8947537581    1.9395854735
 H    0.5572773706   -1.8367790611    2.9981703238