18

 O    0.0287284423    1.3607172450   -0.4471529768
 C   -0.1278086919    0.0271289515   -0.0037511312
 C   -1.5866569436   -0.3835162067    0.0793338871
 O   -2.1114107212   -0.2740529909   -1.2583928930
 C   -3.3877076410   -0.6881494443   -1.4179996886
 O   -4.0802749799   -1.1297944178   -0.5354080724
 N   -3.7505825954   -0.6014625936   -2.7561964553
 C   -3.8254232711    0.6564734105   -3.4812429790
 C   -5.0601080029   -0.1224745569   -3.1412026115
 H   -0.4112465032    1.4174079062   -1.3023113326
 H    0.4125143437   -0.6811267497   -0.6510466233
 H    0.3147570493   -0.0298711354    0.9960362555
 H   -1.7013149355   -1.4107783370    0.4382281019
 H   -2.1482094147    0.2830680914    0.7411213236
 H   -3.6392334675    1.5714725062   -2.9252202085
 H   -3.4268648783    0.6417378755   -4.4913166289
 H   -5.5638409474   -0.7032368776   -3.9078035456
 H   -5.7004541616    0.2569375337   -2.3499699013