16

 C   -0.3386630052    1.4178501334    0.0286839105
 N    0.0303518669    0.0068994131    0.0232106444
 C    0.3869485186   -0.6015520864    1.2005181419
 O    0.3631945359   -0.0777454932    2.2926981339
 C    0.0389509354   -0.6965860338   -1.1924761174
 C   -0.3535538934   -2.0050524334   -1.4187595019
 N   -0.1445029536   -2.2301493825   -2.7394738957
 N    0.3304653434   -1.1609635516   -3.3969755344
 C    0.4509165929   -0.2233042219   -2.4623205650
 H    0.4194856459    2.0290802771   -0.4735530029
 H   -1.2979069761    1.5598071876   -0.4772843626
 H   -0.4143955864    1.7313892574    1.0695527779
 H    0.7085413530   -1.6462945217    1.0348882955
 H   -0.7618510179   -2.7563766483   -0.7632917385
 H   -0.3139879527   -3.0802384707   -3.2495538877
 H    0.8200735432    0.7558898548   -2.7262095278