18

 C   -0.0182990360    1.5320368660    0.0333565308
 C    0.0490719818    0.0252553865    0.0423068788
 C    0.9391397210   -0.8215767753   -0.9310064470
 C    0.6224128668   -1.9174856607    0.1089686350
 C    0.6998625144   -0.8202684938    1.1916830164
 O   -0.8000445220   -2.1212913668   -0.0601521869
 C   -1.2767953532   -0.7656724136   -0.1254949362
 C   -2.2662275871   -0.5004010314    0.9273466156
 N   -3.0417836231   -0.2590050165    1.7493032285
 H    0.9779893532    1.9654421690    0.1611670796
 H   -0.4273037186    1.9054654999   -0.9123539074
 H   -0.6550439605    1.9023445576    0.8436829547
 H    0.5913035819   -0.9824169137   -1.9545707041
 H    1.9798764209   -0.4934058187   -0.9183266865
 H    1.1165174114   -2.8845478159    0.1655823440
 H    1.7189773620   -0.4950191537    1.4065225628
 H    0.1336558795   -0.9742839144    2.1126088890
 H   -1.7490082423   -0.5776522345   -1.0978663970