19

 C   -0.0898031745    1.5503662113   -0.0698081765
 C    0.0109649626    0.0104792993    0.0387776503
 C    0.7629552740   -0.3838512072    1.3320273756
 C   -1.4046537782   -0.6141309546    0.0384191742
 O   -2.1076140791   -0.1103654180    1.1612767298
 C    0.7307675266   -0.5138104033   -1.1216836909
 C    1.3080740009   -0.9591950922   -2.0861566338
 C    2.0315989841   -1.4639498142   -3.2228081647
 O    1.5904693924   -2.2579056405   -4.0228522787
 H    0.9044860693    2.0038175305   -0.0504927060
 H   -0.5832796381    1.8450669002   -1.0003319425
 H   -0.6738703044    1.9334702613    0.7694080015
 H    0.1955554487   -0.0379980751    2.1984194791
 H    0.8775242662   -1.4693012740    1.4019038833
 H    1.7579203888    0.0680523799    1.3521690816
 H   -1.9095330128   -0.3540298220   -0.9034984257
 H   -1.3118019055   -1.7093536872    0.0786953560
 H   -2.9886328732   -0.4945894101    1.1642986639
 H    3.0605194621   -1.0604254641   -3.3197082965