19

 C    0.3985298118    1.5975748985    0.2661443075
 O    1.4334086225    1.4706367080   -0.7249888285
 C    1.1811376649    0.0571122700   -0.8820233512
 C    2.3719507607   -0.8140405196   -0.4912714742
 C    2.9612842873   -0.5249489811    0.8638768180
 C    2.3090105018   -0.6684346240    2.0256781118
 C    0.9076220747   -1.0514676507    2.1659856153
 C   -0.0934363038   -0.7635662749    1.3171707605
 C   -0.0282562660    0.1079200873    0.1001193028
 H    0.8047728829    1.8432720175    1.2536150741
 H   -0.3563167838    2.3407577470   -0.0170243262
 H    0.8928996907   -0.1700585772   -1.9183952984
 H    2.0228224858   -1.8573296703   -0.5320014833
 H    3.1434386352   -0.7073905105   -1.2609461120
 H    4.0041959209   -0.2223687728    0.8888843737
 H    2.8589529272   -0.5195974767    2.9529383156
 H    0.6570707207   -1.6085751334    3.0673472655
 H   -1.0830240162   -1.1378073118    1.5688313212
 H   -0.9714529273    0.0314264148   -0.4445057223