21

 C   -0.6571040174    1.2704730163    0.0035695001
 C    0.0680528980   -0.0615007547   -0.1170717606
 C    1.3209772329   -0.1378388672   -1.0550381969
 C    2.1908441256   -0.6339512883    0.1280490213
 O    3.0352414597   -1.7301754934   -0.0339276480
 C    2.7872330313    0.4792938201    0.9912131258
 O    1.5672843145    0.6075685117    1.7571938540
 C    0.9466378432   -0.5209309812    1.0871196393
 C    0.4457595797   -1.5641901057    2.0482918456
 H    0.0280590781    2.0536812718    0.3382293074
 H   -1.0875684400    1.5704997751   -0.9578138743
 H   -1.4735786670    1.2123203739    0.7315011940
 H   -0.6447136154   -0.8528130787   -0.3754311632
 H    1.2222423771   -0.8804147826   -1.8539928931
 H    1.6429693387    0.8049330887   -1.5077671110
 H    2.6258603560   -2.3472413224   -0.6488339959
 H    3.6208932582    0.1307436053    1.6134496099
 H    3.0688703774    1.4112920222    0.4864771426
 H   -0.3493181820   -1.1522011212    2.6804549420
 H    0.0382211057   -2.4274333335    1.5118010679
 H    1.2537047857   -1.9095677964    2.6997901331