15

 O    0.0222944482    1.4301514004    0.0975814624
 C    0.0155086220    0.0317475526    0.0252773836
 C   -1.3731089122   -0.5980611614   -0.0654709648
 O   -1.9757472549   -0.0894984828   -1.3086031065
 C   -1.6296665341   -1.3207722430   -1.9360814999
 C   -1.2011766523   -2.0004748122   -0.6928974465
 C   -0.1409478165   -1.6628744579   -1.7448919582
 C    0.7133537898   -0.5455432961   -1.2415476575
 O    1.7439423938   -0.1413608784   -1.7127466080
 H   -0.4444535583    1.7502031432   -0.6849165983
 H    0.5428027124   -0.3437339142    0.9121568922
 H   -2.0328386412   -0.4604677418    0.7897784771
 H   -2.1920133972   -1.6367754748   -2.8055809633
 H   -1.3986227751   -2.9742702130   -0.2693278565
 H    0.2719273957   -2.4290651805   -2.3885416857