17

 O   -0.1736466190    1.4068968241   -0.5815905293
 C   -0.0363127537    0.1549179327    0.0743287523
 C   -1.3880453450   -0.5090345303    0.0622419273
 C   -1.8430306957   -1.2799110954   -1.1312282353
 C   -1.5131090652   -2.0314356555    0.1597803801
 C   -0.3599232675   -2.8673900714    0.2257365754
 C    0.5998441854   -3.6019934809    0.3034222060
 C    1.7596120262   -4.4452769322    0.3634980497
 O    1.8293378375   -5.4842301742    0.9823972880
 H    0.6607022448    1.8787990374   -0.5019683368
 H    0.6969042244   -0.4900877427   -0.4322592327
 H    0.3032911181    0.2825416261    1.1139878254
 H   -2.1518248918    0.0348482630    0.6097893974
 H   -2.8867063108   -1.2427058486   -1.4202207197
 H   -1.1444596325   -1.3959795813   -1.9517162580
 H   -2.3642633658   -2.3902948732    0.7302219006
 H    2.6236523905   -4.0641813376   -0.2199429903