21

 C    0.1476282691    1.2853805585    0.2646535523
 O   -0.1247768785    0.0993287863   -0.4682152068
 C   -1.1891758598   -0.6174966955   -0.0374172840
 N   -1.5051262728   -1.6809406403   -0.6246930442
 C   -2.6490470450   -2.4931404333   -0.1970551781
 C   -3.5887148987   -2.5894234551   -1.4143224792
 C   -2.0877405570   -3.8901854247    0.1302562196
 C   -3.4318882611   -1.9565259449    1.0155352960
 H    1.0218904401    1.7417748623   -0.2013830218
 H   -0.6907617764    1.9919294031    0.2183042394
 H    0.3762706433    1.0686478921    1.3158475952
 H   -1.6968174899   -0.1736163636    0.8286957757
 H   -3.0408134322   -2.9577559380   -2.2853706327
 H   -4.4229697843   -3.2684187510   -1.2092442169
 H   -3.9988901186   -1.6057907722   -1.6644410401
 H   -1.4157307216   -3.8440487830    0.9931606513
 H   -2.8972117770   -4.5905261522    0.3612448796
 H   -1.5193648512   -4.2767432128   -0.7195125318
 H   -3.8606662357   -0.9680706349    0.8179304388
 H   -4.2599289158   -2.6317886407    1.2508634797
 H   -2.8012840568   -1.8870451201    1.9085254482