17

 C   -0.0266455770    1.5230871227    0.0386280615
 C    0.0334061579   -0.0215074880   -0.0038008704
 N    0.7006015925   -0.4932350744    1.2248733180
 C   -1.3506116317   -0.5532885487    0.0155863171
 N   -2.4297880287   -0.9643763372    0.0187602219
 C    0.6893476372   -0.4718886265   -1.2456644576
 C    1.2797233227   -0.8357859425   -2.2310901083
 C    1.9507905109   -1.3327992725   -3.4342813911
 O    2.1492156533   -2.7370112286   -3.4296095288
 H    0.9919746812    1.9197347857    0.0144680987
 H   -0.5728118572    1.9123744118   -0.8220362357
 H   -0.5157479842    1.8388296282    0.9619237318
 H    0.7726456262   -1.5071165612    1.2011363103
 H    1.6545396233   -0.1402448664    1.2182232321
 H    1.3868908562   -1.0044749075   -4.3216203568
 H    2.9495159556   -0.8896123986   -3.5138922903
 H    1.2879296618   -3.1530582065   -3.3163437024