16

 N    0.1343660021    1.5468226650    0.0309317937
 C   -0.0267288249    0.1140397237   -0.0208902689
 C    1.0815624330   -0.6283539296    0.5697610263
 N    1.9946011280   -1.1572606843    1.0458327453
 C   -1.3282138062   -0.6487808580    0.1707585672
 C   -2.5414532732   -0.0931196697   -0.5969571590
 C   -2.3191119100    1.0910921161   -1.4531401517
 N   -1.8400544760   -0.2335288751   -1.9231630785
 C   -0.6262854791   -0.7074842787   -1.1679341621
 H    0.1976370001    1.8561351309    0.9965759877
 H    0.9961751453    1.8175849362   -0.4337654703
 H   -1.4181171107   -1.4035028661    0.9405406763
 H   -3.5200311338   -0.5394523307   -0.4525391996
 H   -3.1806721805    1.4040289744   -2.0373347206
 H   -1.6195932714    1.8634057869   -1.1757125089
 H   -0.0394233027   -1.4892426312   -1.6329718670