21

 C    0.0029742338    1.5465043403    0.1434563425
 C    1.4352977150    2.1021828176   -0.0332554182
 O    1.7464615287    2.6797121827   -1.2879696889
 C    1.6083789335    1.8341033701   -2.4205561992
 C    2.3666663754    0.5347154749   -2.3448810577
 C    1.7920423577   -0.6736822423   -2.3421245524
 C    0.3378718213   -0.9127037847   -2.3285126736
 C   -0.5032349926   -0.5673712758   -1.3478027596
 C   -0.1420983884    0.0039577193    0.0026129320
 H   -0.3114941990    1.8089764480    1.1600914693
 H   -0.6807263219    2.0760434352   -0.5290256725
 H    1.5927056339    2.9219052603    0.6745388874
 H    2.1592042515    1.3109835800    0.2174493389
 H    0.5505575525    1.6281280095   -2.6247785071
 H    1.9972750385    2.4316142702   -3.2538646662
 H    3.4524239955    0.6082140963   -2.3486596614
 H    2.4303039843   -1.5557115300   -2.4056720667
 H   -0.0689004021   -1.4269368769   -3.1995693347
 H   -1.5613013613   -0.7732325676   -1.5012443461
 H    0.7935968991   -0.4513470626    0.3483608690
 H   -0.9163366355   -0.3241114746    0.7051212453