17

 O    0.2036886845    1.1906459126    0.2516370632
 C   -0.0401059199   -0.1523943406    0.0635027498
 C   -0.6124207497   -1.0136730536    1.2185815640
 C   -0.9251779469   -0.3187917359    2.4688530785
 O   -1.1948578600    0.8702270055    2.5527960900
 C   -1.4096008372   -0.7143425034   -0.0865549763
 C   -2.6363163666    0.1308231054   -0.0744915430
 C   -3.5620001828    0.1149693308   -1.2149879548
 O   -3.8805527232   -0.5793118425   -0.0093895236
 H   -0.2972177041    1.4775745071    1.0371722892
 H    0.7558434452   -0.6198562309   -0.5086103382
 H   -0.2545619305   -2.0308292128    1.3300250077
 H   -0.8741509911   -0.9363194909    3.3875755351
 H   -1.4990260062   -1.5947406852   -0.7165140429
 H   -2.6038433542    1.0220854205    0.5449494066
 H   -4.1673185207    0.9947859554   -1.4280324645
 H   -3.3446974166   -0.5165458116   -2.0758819807