20

 C    0.0308109683    1.5132593678    0.0422845596
 C   -0.0691311287   -0.0186885341   -0.0291462402
 C   -1.5508373210   -0.4405951229   -0.0322568065
 C    0.6651826367   -0.5488988684   -1.2723379280
 C    1.0568324413   -2.0034469051   -1.0729166221
 O    1.9387793238   -2.1439010440    0.0435933664
 C    1.6271147897   -1.5049156577    1.2026800624
 O    2.2372928524   -1.7508048051    2.2135854678
 N    0.6013660762   -0.5954955783    1.1450847243
 H    1.0761315918    1.8326683001    0.0788494542
 H   -0.4434159436    1.9727783838   -0.8305770915
 H   -0.4764539997    1.8960826557    0.9350915918
 H   -2.0876115823    0.0298148298   -0.8626062453
 H   -1.6572766665   -1.5252739812   -0.1195121319
 H   -2.0360786828   -0.1354668505    0.9002991004
 H    0.0293141708   -0.4422171548   -2.1564327074
 H    1.5762566494    0.0346076096   -1.4442475452
 H    0.1754437964   -2.6406058041   -0.9227692793
 H    1.6096827204   -2.3922414273   -1.9309951916
 H    0.4394343975   -0.1525697435    2.0369522919