19

 C   -0.0136412528    1.5653684492   -0.0056387708
 C    1.4894362016    1.9520333200   -0.0534881752
 C    2.1755390894    0.5868838884    0.1542243632
 O    1.3013463820   -0.3343923588   -0.4844302504
 C    0.0036438008    0.0099406737    0.0106868024
 C   -0.1662349573   -0.5864050561    1.4184219637
 C    1.0561187191   -0.2941283886    2.2785853698
 O    2.2217833535   -1.0894568059    2.0193940955
 C    2.2558016485    0.2801903460    1.6450268358
 H   -0.5193758209    1.9731002037    0.8734075654
 H   -0.5432564219    1.9353579895   -0.8860018793
 H    1.7616071592    2.3648307673   -1.0275182565
 H    1.7654352948    2.6850344751    0.7097899667
 H    3.1556682201    0.4978575654   -0.3218713639
 H   -0.7272341887   -0.4201655440   -0.6782077013
 H   -1.0635385882   -0.1754130546    1.8952177279
 H   -0.2997482807   -1.6715156439    1.3520345852
 H    0.8797876345   -0.1141850060    3.3386141031
 H    2.9331969769    0.9087941494    2.2250927586