21

 C   -0.5936040761    1.3627785471    0.1291484232
 C    0.0357520622   -0.0276881049   -0.0391193515
 C    0.8542221746   -0.2581195578   -1.3345300524
 C    2.3173078919   -0.4850141632   -0.9240327722
 C    3.1707383163   -1.3692166763   -1.8008045446
 C    2.9357157682    0.6420245788   -0.1632764553
 C    2.3701619134   -0.5594986331    0.5956942995
 C    0.9889959799   -0.3742327009    1.1257337524
 O    0.6384315774   -0.5141610268    2.2727842718
 H    0.1500634548    2.1614595837    0.0383787622
 H   -1.3612451056    1.5366684197   -0.6312224989
 H   -1.0591758815    1.4447745259    1.1152050353
 H   -0.7740688478   -0.7628357411    0.0254076740
 H    0.4892454482   -1.1467386958   -1.8600910415
 H    0.7654242452    0.5805890781   -2.0346198753
 H    3.2732855207   -0.9418176566   -2.8052823270
 H    4.1773633918   -1.4890639860   -1.3880651539
 H    2.7289301720   -2.3663277454   -1.9076078251
 H    4.0180325984    0.7180869556   -0.1603442352
 H    2.4257971834    1.5970451666   -0.0926000202
 H    3.0572308027   -1.1900888876    1.1468526547