18

 C    0.0268619214    1.4075245208    0.0055263035
 N    0.0172748860   -0.0351810406    0.0330595275
 N    0.1929707806   -0.7507886714   -1.1266398403
 C    0.1781396489   -2.0324361743   -0.7522763225
 C    0.0281455008   -2.1633005618    0.6404257093
 C   -0.0648472861   -0.8685167884    1.0869601847
 N   -0.3399051412   -0.7177672619    2.4479724301
 C   -0.0803677975   -2.0836220870    3.0089209431
 C   -0.1906124843   -3.0857223105    1.8082000980
 H    1.0287505804    1.8155834454    0.1860610008
 H   -0.3094286925    1.7280954236   -0.9809065647
 H   -0.6587039771    1.7945744453    0.7648385870
 H    0.2839135019   -2.7964275058   -1.5092914997
 H    0.1889400634    0.0043957549    2.9223699970
 H    0.9297938354   -2.1298209121    3.4358558989
 H   -0.7958811472   -2.3014499298    3.8055617697
 H   -1.1837210961   -3.5525206775    1.7850397234
 H    0.5399431434   -3.8944076890    1.9084341641