21

 C   -0.0289478904    1.5174164533    0.0169573036
 C    0.0332161932    0.0030197751    0.0186934759
 C    1.3885063716   -0.6626923555   -0.1908081758
 C    0.7145976813   -0.7129578623    1.1585549683
 O    1.2312375095    0.1181817161    2.1667847265
 C    0.1067154703   -2.0028476060    1.6778718115
 C   -0.8452435157   -2.6388106906    0.6617322977
 O   -1.7876869502   -1.6890200334    0.2087829287
 C   -1.1956102975   -0.6857478374   -0.5976448759
 H    0.8542392366    1.9496911606    0.4897408501
 H   -0.0963654140    1.9009551851   -1.0080420246
 H   -0.9089115132    1.8724176562    0.5652436586
 H    1.4363834627   -1.5623986473   -0.7982508948
 H    2.2520255648   -0.0112195907   -0.2763607681
 H    2.0317656582   -0.2966905334    2.5066530748
 H    0.8915504918   -2.7181002955    1.9606432557
 H   -0.4588289495   -1.7575331381    2.5834610351
 H   -0.2888772954   -3.0690086009   -0.1889011109
 H   -1.4148199822   -3.4495912370    1.1248372558
 H   -1.9839141926    0.0544392961   -0.7617279083
 H   -0.9287481391   -1.1110343743   -1.5804359939