20

 C   -0.1098965998    0.7514223661   -2.1931327975
 C   -0.0003986264   -0.3390025956   -1.1481367105
 C    1.3098564188   -0.6524760764   -0.4071739400
 C    2.5390600426    0.1417494657   -0.6361440231
 O    3.6462413469   -0.3447068861   -0.6566610337
 C    0.1076871347   -0.0394404997    0.3124483848
 N    0.2040724400    1.3313845936    0.7253159316
 C   -0.9271730907    1.8595236326    1.4835283314
 C    0.3700337388    1.5728247051    2.1560208335
 H    0.3360604922    1.6863983555   -1.8517523619
 H    0.3749434401    0.4520695952   -3.1277791497
 H   -1.1640158261    0.9501622276   -2.4145118075
 H   -0.5643817676   -1.2368681627   -1.3866035356
 H    1.5171790019   -1.6988102563   -0.2092573975
 H    2.3886186058    1.2294585120   -0.7829440583
 H   -0.4081777444   -0.7142728399    1.0024006800
 H   -1.2165138883    2.8797810390    1.2498516377
 H   -1.7562910935    1.1856025098    1.6923022594
 H    0.4100856990    0.7076301080    2.8151539543
 H    1.0455643561    2.3804568064    2.4217524227