15

 O    0.3532534962    0.3517134807   -0.8811531267
 C    0.3604939164    1.5075857787   -0.5888331317
 O    0.8262285696    1.9457714197    0.6054234047
 C    0.8860332729    3.3594298302    0.8063565846
 C    2.2628457942    3.8643357159    0.4523446837
 N    2.4992545547    4.1044125724   -0.9694311026
 C    2.4922224096    5.2569267053   -0.0478524183
 C    1.4092052730    6.2013737555   -0.1965842919
 N    0.5456602208    6.9644287776   -0.2867301556
 H   -0.0099025896    2.3270225008   -1.2315122402
 H    0.1287603637    3.8724098648    0.2035082541
 H    0.6667675290    3.5310908476    1.8631419560
 H    3.0711680141    3.4383100254    1.0428586071
 H    3.4537910206    3.8791832773   -1.2362286430
 H    3.4399713548    5.7193359982    0.2138763597