17

 C    0.0628996854    1.4484776705    0.0234485971
 O   -0.1478839097    0.0476194148    0.1087942519
 C    0.6251263379   -0.6004558646    1.0821938935
 C    0.1115323144   -2.0223148839    1.3603281357
 N    1.2741608775   -2.8030611862    1.8194145003
 C    2.4199262751   -2.3055443356    1.0469310451
 C    2.0889733464   -0.8612715498    0.6515646378
 O    2.8113878615   -0.0851073921    0.0809268656
 H    1.0886543907    1.6867848696   -0.2734201382
 H   -0.6339598111    1.8238287971   -0.7294783830
 H   -0.1551437858    1.9387154671    0.9854605082
 H    0.6505487146   -0.0183146950    2.0223880050
 H   -0.6927166087   -2.0585628711    2.0966537476
 H   -0.2701791825   -2.4423584392    0.4216157516
 H    1.4298553688   -2.6133193518    2.8039578727
 H    3.3603746087   -2.3699244351    1.5998439329
 H    2.5477364967   -2.8912733648    0.1251143761