15

 O    0.0208593391    0.0357686434   -0.2822744523
 C   -0.0141774130    1.2089132406   -0.0491209177
 C   -1.2537276749    2.0731550771    0.1829032667
 C   -0.7232742222    3.4432272698    0.6292701831
 C    0.6503097700    3.5634933973   -0.0650765544
 C    1.2475110721    2.1401710054    0.0293539847
 C    1.9353299796    1.9134906601    1.2965214106
 N    2.4584622941    1.7500748092    2.3147831369
 H   -1.7837838130    2.1395603431   -0.7761700552
 H   -1.9311238187    1.5833960613    0.8862127174
 H   -1.3911457129    4.2664816930    0.3682826618
 H   -0.5885070082    3.4600238826    1.7158922242
 H    0.5197757798    3.8139787368   -1.1233321703
 H    1.2939294446    4.3222287483    0.3824945072
 H    1.9267134236    1.8866219519   -0.7888406527