14

 C   -0.0061813488    1.5278683678   -0.0263599991
 C   -0.0152991213    0.0341032239   -0.0190147933
 C   -1.1318056363   -0.7116168958   -0.1259284834
 N   -1.0406153020   -2.0825813841   -0.1093559834
 N    0.1192112716   -2.7639584013    0.0089136480
 N    1.1993189383   -2.1217176823    0.1128581016
 C    1.2459618332   -0.6905167551    0.1103510389
 N    2.3646079154   -0.0777590119    0.2185197299
 H    0.6202097061    1.8985192938   -0.8445357446
 H   -1.0147139031    1.9381412330   -0.1284386868
 H    0.4482256811    1.9081156740    0.8945155464
 H   -2.1309418485   -0.3035207524   -0.2273127553
 H   -1.8474754090   -2.6789971448   -0.1875050702
 H    3.1130126235   -0.7702919849    0.2965881811