15

 C   -0.1281540466    1.2620580485   -0.3351532122
 N   -0.0432164050   -0.0725957066    0.2260505144
 C   -1.0772778840   -1.1053115376    0.1934097104
 C   -1.0216176533   -1.8996616146   -1.0702493190
 O   -0.6984843390   -1.2653831975   -2.2664846971
 C    0.0111834590   -2.1686642978    0.0240787597
 C    0.9853458355   -0.9904644926    0.0158835960
 O    2.1651602885   -0.8441290169   -0.1497325571
 H    0.8867962916    1.6635292480   -0.3857116082
 H   -0.5587341340    1.2477718093   -1.3429767811
 H   -0.7284124547    1.9125847789    0.3080716474
 H   -1.9107818116   -1.0859829322    0.8841394097
 H   -1.7775578115   -2.6838290678   -1.1548294350
 H   -0.0446457951   -1.7995393051   -2.7303548619
 H    0.1317189802   -3.1289862559    0.5051114940