18

 C   -0.1638342509    1.6245750065    0.0615344416
 C   -0.1907493566    0.1141703387    0.1278323158
 C   -1.4259246890   -0.5192300439   -0.4975217527
 O   -1.4748209494   -0.2423007870   -1.8861479893
 O    1.0294111532   -0.5625588620   -0.2439037658
 C    0.6154371047   -0.6420163983    1.1264599056
 C    1.5108003596    0.0085371432    2.1620412381
 C    0.1542709946   -1.9639080518    1.5382274132
 N   -0.1901835816   -3.0027624179    1.9104598236
 H    0.8280193293    2.0280518306    0.2648085339
 H   -0.4641834328    1.9312436073   -0.9439271789
 H   -0.8765215424    2.0524659128    0.7741775696
 H   -1.4426585060   -1.5975781195   -0.2999063955
 H   -2.3299565369   -0.0802208666   -0.0626809586
 H   -0.7142308335   -0.6795149956   -2.2861225683
 H    1.8461930178    0.9895414894    1.8277711209
 H    0.9764346594    0.1169483090    3.1104383153
 H    2.3895419303   -0.6185400349    2.3369217314