17

 C   -0.2153150447    1.4491944143    0.0407213530
 C   -0.0222098056   -0.0309511994   -0.0207770447
 C    0.1047504015   -0.8385471548   -1.1232910942
 O    0.0930923945   -0.6345477604   -2.4638738845
 N    0.2651476550   -2.1186879273   -0.6614867148
 C    0.2199933118   -2.0522925970    0.7104291725
 C    0.3790898589   -3.2715568760    1.5587233902
 O   -0.3594335621   -4.3819933805    1.0528115205
 N    0.0468060979   -0.8189537480    1.1176959886
 H    0.6116500528    1.9426274874    0.5636025843
 H   -0.2773276181    1.8913008520   -0.9609005188
 H   -1.1373113631    1.7112789600    0.5713391509
 H   -0.0552112193    0.3024856283   -2.6257540805
 H    0.3316243343   -2.9533823568   -1.2201763142
 H    1.4212136766   -3.6134303280    1.5715908330
 H    0.1050568972   -3.0071285986    2.5876858780
 H   -1.2919544277   -4.1410524153    1.0785803108