15

 C   -0.0326478471    1.5444442696   -0.0197520187
 C    0.0072826717    0.0148158066   -0.0004529660
 O    0.6417991054   -0.4720579981   -1.2198847211
 C   -0.1759453108   -0.6560013538   -2.2724298832
 O   -1.3634132565   -0.4416600171   -2.2798366515
 C    0.5652713186   -1.1517810245   -3.4109547652
 C    1.1317800851   -1.5624687478   -4.3873691960
 C    0.7692042076   -0.5186782661    1.1208121221
 C    1.3770552063   -0.9285986988    2.0715973639
 H    0.9781406185    1.9485599440   -0.1115029398
 H   -0.6422666321    1.8848848471   -0.8594598389
 H   -0.4748322635    1.9127701818    0.9094672241
 H   -1.0138919004   -0.3774745060    0.0148965836
 H    1.6341710893   -1.9261408168   -5.2506062635
 H    1.9136921279   -1.3020231802    2.9087992504