17

 C   -0.0719171720    1.3802630955   -0.3638135131
 O   -0.2035800391   -0.0458367607   -0.4088356376
 C   -1.1722560761   -0.5555437366    0.3806620121
 O   -1.8855761178    0.1134394431    1.0865672270
 C   -1.2257663640   -2.0369907966    0.2481089557
 C   -1.9298291855   -2.8183489218    1.3245663183
 C   -2.5835460927   -2.7125599271   -0.0290340434
 C   -3.7836652202   -1.9571384579   -0.2323665308
 C   -4.8074235566   -1.3606217376   -0.4345967489
 H    0.7434744764    1.6246858264   -1.0446966464
 H   -0.9980989401    1.8629232477   -0.6855522672
 H    0.1625006190    1.7141921083    0.6502164474
 H   -0.3767973591   -2.4815815612   -0.2553940707
 H   -1.5138324521   -3.7754466037    1.6160238963
 H   -2.3661564799   -2.2244491745    2.1186064395
 H   -2.4962954619   -3.5901937454   -0.6634327597
 H   -5.7060557683   -0.8187112777   -0.5953686785