16

 O   -0.0693918959    1.4011236292    0.0977451411
 C    0.0185802792    0.0260935879   -0.0134968004
 C    1.2226278857   -0.6738597606    0.6667756992
 C    1.2063924619   -2.1458266995    0.6022665741
 N    1.6207551259   -1.3978108022   -0.6018609148
 C    0.3898102166   -0.8125368247   -1.2862636696
 C   -0.9670815217   -1.5582481195   -1.2193548800
 C   -1.3286137753   -0.7429722287    0.0491332859
 O   -2.2906822728   -0.6788883132    0.7522422715
 H    0.8188166725    1.7755009352    0.0665000074
 H    1.9415625546   -0.1168916980    1.2641444908
 H    2.0400624225   -2.6692785048    1.0617372975
 H    0.2755684136   -2.7025727123    0.6254645294
 H    0.6615461520   -0.3588145172   -2.2370769015
 H   -1.6208765884   -1.2664608593   -2.0488132053
 H   -0.9824712904   -2.6477066623   -1.1410631751