21

 C   -0.2616425264    1.4579050721   -0.0446876972
 C    0.0736403928   -0.0219505010   -0.0579492454
 O    1.2570804545   -0.3187717770   -0.8408609664
 C    2.0004053612   -0.7356702951    0.3194221388
 C    0.7414503955   -0.6329921840    1.2199004733
 O    0.8337037378    0.1806445644    2.3649646970
 C    0.1586820123   -1.9622102837    1.6334953754
 C    0.4891222325   -2.5785490640    2.9682038527
 C   -0.8997586027   -2.0488306815    2.7032714859
 H    0.5880790938    2.0662862792    0.2850761329
 H   -0.5258015677    1.7888048655   -1.0534626404
 H   -1.1099064129    1.6552316489    0.6183375084
 H   -0.7866502441   -0.5978893630   -0.4227686152
 H    2.4404223887   -1.7324740454    0.2009210770
 H    2.7970485840   -0.0245526791    0.5841709670
 H    1.2300107792    1.0211963003    2.1174746078
 H    0.0575717203   -2.6472296613    0.7965539651
 H    0.6363236024   -3.6519494022    3.0120304771
 H    1.1147212873   -2.0027656224    3.6394297342
 H   -1.1776140236   -1.1284098830    3.2024508951
 H   -1.7091906250   -2.7570153077    2.5650659470