20

 C    0.7668841104    1.4509065914   -0.4256183056
 C    0.1695209467    0.1101976235    0.0188764504
 C    0.2059413890   -0.9910012533   -1.0756131687
 C    1.2827864578   -1.9715239351   -0.6408936515
 C    2.6215031797   -1.4472923705   -0.2698569256
 N    1.6382307020   -1.7676884492    0.7763020269
 C    0.8585064588   -0.5959830145    1.2522092082
 C    1.6551066587    0.2792375830    2.1029723647
 C    2.3049789385    1.0042684464    2.8079349403
 H    1.7921277868    1.3596366241   -0.7951180139
 H    0.1628792366    1.8731200790   -1.2358364956
 H    0.7778336467    2.1680541067    0.3989890750
 H   -0.8696427228    0.3064097982    0.2997222851
 H   -0.7538119146   -1.5153145336   -1.1309623437
 H    0.3975799992   -0.5694056421   -2.0677526877
 H    1.1860557116   -3.0055899825   -0.9610141876
 H    3.4837190711   -2.1077500667   -0.2852539460
 H    2.8539577365   -0.4065053686   -0.4683214667
 H    0.0594146498   -1.0250930519    1.8696285964
 H    2.8821720875    1.6359590056    3.4367754057