14

 O   -0.0507096298    0.0096445485    0.5449716765
 C   -0.0853687404    1.1153035122    0.0961560846
 C   -1.3486002395    1.9496091177   -0.0292518345
 C   -1.2143512655    3.1015776851   -1.0202409427
 O    0.0281442519    3.7696682461   -0.7771752428
 C    1.1089397584    2.9411133639   -1.0019990555
 O    1.0967675213    1.7243788189   -0.2520425116
 C    1.2522737567    2.5939431163   -2.4451841500
 N    1.3658857173    2.3531344691   -3.5687278556
 H   -2.1724216527    1.2788449146   -0.2821284146
 H   -1.5470853148    2.3471379847    0.9730145199
 H   -1.2497021761    2.7476906460   -2.0590831651
 H   -1.9944201916    3.8515071331   -0.8843403998
 H    2.0023769447    3.4808292537   -0.6790962189