17

 C    0.0404472823    1.3450876906    0.2156754879
 O    0.0000166555    0.0165417517   -0.2750378199
 C   -1.2363885064   -0.5966259141   -0.1233777774
 C   -1.3279088487   -2.0899417052   -0.5018742531
 C   -0.1722342843   -2.7569779041    0.2614706156
 C   -0.4360698880   -2.0516312335    1.6106704816
 O    0.1545827532   -2.1245749630    2.6502818658
 C   -1.6767874760   -1.2188524985    1.2437085188
 O   -2.4305175541   -2.1973503631    0.4604297289
 H    1.0373237758    1.7352669214    0.0029344743
 H   -0.7079322841    1.9780585120   -0.2830563392
 H   -0.1331375757    1.3817960911    1.3000624788
 H   -2.0607654635   -0.0155887797   -0.5560760321
 H   -1.5766679452   -2.4327346966   -1.5047300049
 H   -0.2979960151   -3.8396282032    0.3338325439
 H    0.8248275596   -2.5228840078   -0.1173219207
 H   -2.2374285154   -0.7138943581    2.0268568916