18

 O   -0.0174932445    1.4515546206    0.0089769384
 C   -0.0068657177    0.0293952445    0.0045127631
 C   -1.3754366944   -0.4702808168    0.0178445948
 C   -2.4982334516   -0.9073240926    0.0291336697
 C   -3.8435760148   -1.4174773040    0.0438328089
 C   -5.0098789265   -1.1677898993   -0.9523222201
 N   -5.6679378514   -2.1141301610    0.0640158263
 C   -4.3425172105   -2.8883380608   -0.0059720307
 C   -4.9530242133   -1.2571320679    1.1201835938
 H    0.8994145951    1.7449705190    0.0011749587
 H    0.5091063883   -0.3638202930   -0.8869836338
 H    0.5280115404   -0.3691282817    0.8824064783
 H   -5.4519818343   -0.1686858866   -0.9748524828
 H   -4.9206869704   -1.5922126741   -1.9555596898
 H   -4.2034352652   -3.4401106199   -0.9392228957
 H   -4.1535656441   -3.5182517127    0.8670636377
 H   -4.8099509297   -1.7659500871    2.0768772814
 H   -5.3911614654   -0.2647763568    1.2526069515