16

 C   -0.0895756702    1.5022203946    0.0228720712
 C    0.0829808502    0.0065333536    0.0022786782
 O   -0.7279039937   -0.7382625011    0.9202923273
 C    0.6997410854   -0.7511800000    1.1300731294
 C    1.3887617885   -2.0225485027    0.8533214837
 C    1.3023336633   -2.5527198401   -0.3727845945
 N    0.6666759280   -1.8993044152   -1.4199809725
 C    0.1597737593   -0.6128746227   -1.3745279906
 O   -0.1859610094   -0.0304903125   -2.3830442808
 H    0.7633970852    1.9990739667   -0.4485313355
 H   -0.9861457305    1.7823230060   -0.5356430180
 H   -0.1844090640    1.8519509179    1.0533170657
 H    1.0130120720   -0.1789079605    2.0013108440
 H    1.9197968704   -2.5384747907    1.6416908195
 H    1.7365839365   -3.5099886990   -0.6344677965
 H    0.6984525489   -2.2985384143   -2.3465095507