21

 C    0.0907415171    1.4971967825   -0.0466056678
 C   -0.0162351115   -0.0101102182    0.1927645003
 O    0.4245678319   -0.3628795322    1.4970091114
 C   -1.4416035738   -0.5364171216   -0.0272698209
 C   -1.5757372858   -2.0771660248    0.0273520520
 C   -2.8213244671   -2.3143139510    0.8774935650
 C   -2.6879644151   -2.0631105354    2.3686839472
 C   -3.1885950269   -0.9800630765    1.4514442552
 O   -2.2512708441   -0.0128723396    1.0454634095
 H    1.1052496529    1.8392573537    0.1733738572
 H   -0.1447216216    1.7489667593   -1.0863672842
 H   -0.6084236610    2.0371455053    0.5997048264
 H    0.6512864349   -0.5372411174   -0.4999268721
 H   -0.2611438600   -0.0283473128    2.0900920479
 H   -1.8334436457   -0.1519733030   -0.9807483615
 H   -1.6936037867   -2.4928820396   -0.9768226209
 H   -0.6832499272   -2.5220950987    0.4766899501
 H   -3.5767357192   -3.0070819031    0.5270628969
 H   -3.4028184983   -2.5432460617    3.0289448056
 H   -1.6872999545   -1.9534407945    2.7737666347
 H   -4.2048753382   -0.6058123507    1.5175097980