16

 O   -0.5593859924    0.6768043808    0.7640957800
 C    0.0588780839    1.0129603952   -0.2127131581
 C    1.3260162928    1.8516259067   -0.1672978834
 C    1.3167461788    2.9739925171   -1.1586169787
 C    2.4259292596    3.9492224063   -1.6434354801
 C    1.3330297843    4.9102251582   -2.1327142341
 C    1.8478264463    3.8145220065   -3.0279886465
 N    0.7742923614    2.8334298639   -2.5614981707
 C    0.2612815449    3.9119911698   -1.6341843053
 H   -0.2543140270    0.7133296359   -1.2343032977
 H    1.4707411084    2.2160455301    0.8547085792
 H    2.1640631616    1.1781871635   -0.4066522093
 H    3.4279937656    4.1681435873   -1.3034667472
 H    1.3642548058    5.9853713688   -2.2301395037
 H    2.2951296517    3.8192226461   -4.0137206326
 H   -0.7894264457    4.0062677837   -1.3851360318