16

 C   -0.0214889634    1.4746129571    0.0753999302
 C   -0.0016276598   -0.0142971002   -0.0276043896
 C   -0.0385784632   -0.7802172050   -1.1371774378
 C    0.0017311722   -2.1822968830   -0.7516478095
 C    0.0075972240   -3.5131954414   -1.1112456716
 N    0.0707967229   -4.2604629875    0.0323030956
 N    0.1048781229   -3.4747685452    1.0806022677
 N    0.0629618312   -2.2225950510    0.6042304504
 C    0.0682795057   -0.9026280717    1.2098899919
 H    0.8760624399    1.8540303513    0.5797561726
 H   -0.0736887164    1.9352316884   -0.9140361530
 H   -0.8819756338    1.8250979559    0.6590495340
 H   -0.0899697022   -0.4207023734   -2.1551587063
 H   -0.0281564021   -3.9766088610   -2.0828144821
 H    0.9792711503   -0.7374376968    1.7964686148
 H   -0.7917424783   -0.7665931765    1.8755667026