20

 C   -0.0446282727    1.5159293571   -0.0323600153
 C    0.0043520800    0.0020981591   -0.0804237195
 O    0.8914457958   -0.3768229021   -1.0831329216
 C    0.8116523089   -1.7493605518   -1.4336685518
 C    1.4067182601   -2.6653825332   -0.3689676378
 N    0.7044328131   -2.7677938150    0.8990022854
 C    0.3230897701   -1.7644526140    1.5665876410
 C   -0.2322233053   -1.9167313176    2.9551481448
 O    0.3917590580   -0.4322361928    1.2272910173
 H    0.9552356884    1.9053531006    0.1744828659
 H   -0.3846556453    1.9050211052   -0.9944667617
 H   -0.7253000735    1.8473417571    0.7542343234
 H   -0.9882475704   -0.4345044066   -0.2860336878
 H   -0.2358816238   -2.0277134361   -1.6305706507
 H    1.3765792772   -1.8570569248   -2.3647593786
 H    1.4745544311   -3.6741446047   -0.7936276474
 H    2.4364657867   -2.3324250423   -0.1747707709
 H   -0.1987444932   -2.9615616278    3.2606124864
 H    0.3516199918   -1.3078265180    3.6534931783
 H   -1.2629242471   -1.5486866423    2.9981567006