19

 C    0.1208553184    1.3474828943   -0.1975425808
 N   -0.0495215941   -0.0670774572    0.0721229931
 C   -1.4322586528   -0.5280591293    0.0472353536
 C   -1.4680678638   -2.0411616900    0.0276505779
 N   -2.3500806668   -2.6721556844   -0.6204845778
 O   -0.4783809815   -2.6889188195    0.7171925090
 C    0.3360608443   -1.9496297072    1.5966394585
 C    1.7117663182   -1.5358433618    1.1505492397
 C    0.5985627292   -0.5116475074    1.2727122684
 H    1.1883218988    1.5835748451   -0.2426228137
 H   -0.3247412634    1.5951901978   -1.1656726572
 H   -0.3412291207    1.9981159435    0.5689212518
 H   -2.0211182657   -0.1566882076    0.9087256553
 H   -1.9302514635   -0.1840772368   -0.8605439535
 H   -2.2239593023   -3.6793697538   -0.4987178509
 H    0.1861285619   -2.2472502295    2.6295764879
 H    2.5071364793   -1.5463290466    1.8875955292
 H    1.9948975512   -1.8024744946    0.1393348116
 H    0.6252745933    0.1928727449    2.1082131981