23

 C   -0.1468008108    1.4197153166    0.0680676322
 O    0.1359068839    0.0437668554   -0.0284528418
 C    0.6620517040   -0.5471723996    1.1554367646
 C   -0.4243281208   -0.7722322626    2.2108979853
 C    1.3252792249   -1.8590067008    0.7307637780
 C    2.4814876232   -1.6628265873   -0.2544644106
 C    3.1126136777   -2.9918768913   -0.7035228319
 C    4.1771404878   -2.7796478180   -1.7540152618
 O    5.3180014109   -3.1564101786   -1.6742443611
 H    0.7381384683    1.9958244898    0.3817166484
 H   -0.4496645455    1.7564281248   -0.9267912760
 H   -0.9642601794    1.6382326042    0.7703015008
 H    1.4342551385    0.1231679160    1.5735677288
 H   -1.2013178184   -1.4368006414    1.8198259292
 H    0.0028915310   -1.2283624775    3.1095356068
 H   -0.8970223574    0.1672026123    2.5108655148
 H    1.6813258242   -2.3786866793    1.6286317368
 H    0.5583011056   -2.5001854517    0.2768616261
 H    2.1104763715   -1.1122574681   -1.1254181341
 H    3.2543436940   -1.0346082474    0.2075098482
 H    3.5530374420   -3.5393693846    0.1353701024
 H    2.3316362946   -3.6252007974   -1.1504324521
 H    3.8233146101   -2.2158966938   -2.6504112429