18

 C    0.0573438098    1.4533953497    0.0815766530
 C   -0.0391161507   -0.0345493736   -0.0520605751
 C    0.5744898470   -0.9773221507   -1.1228392211
 C    0.0104874990   -1.8281660863    0.0328660071
 O    0.6161509961   -0.8806709976    0.9931651575
 C   -1.2876035444   -0.9725556485    0.0225332634
 C   -2.1626173296   -0.9412356783    1.2617889758
 O   -3.0092945799   -2.0834931394    1.3457046526
 H    1.1049806430    1.7689155493    0.0850810080
 H   -0.4486791035    1.9410789565   -0.7575976384
 H   -0.4096286294    1.7924157870    1.0112030151
 H    0.0864177493   -1.0352616968   -2.0991711167
 H    1.6632865774   -0.9518296132   -1.1852425896
 H    0.1441615550   -2.8923514553    0.2319330763
 H   -1.8879480066   -1.0398251464   -0.8906076087
 H   -1.5350173196   -0.8313839123    2.1543790602
 H   -2.8392115395   -0.0805222866    1.2159784046
 H   -2.4496536637   -2.8460616973    1.5221145960