23

 C   -0.0204403734    1.5772758106    0.0106934952
 C    0.0170737276    0.0465143654    0.0021537134
 C    0.6922262232   -0.4991427654   -1.2673412140
 C    0.7523608220   -2.0316108202   -1.2851945702
 C    1.4607380456   -2.5830475860   -0.0257750011
 C    0.7767605260   -2.0451751594    1.2528480608
 C    0.7164722331   -0.5126109447    1.2525202142
 C    1.5142457302   -4.0414091309   -0.0340741743
 C    1.5353573395   -5.2438263738   -0.0407905428
 H    0.9936956511    1.9942398846    0.0031614573
 H   -0.5459050275    1.9681023181   -0.8672821181
 H   -0.5288695051    1.9586430724    0.9027464041
 H   -1.0206366499   -0.3208586936    0.0101737243
 H    0.1628302214   -0.1393560193   -2.1576258120
 H    1.7126353293   -0.0931482203   -1.3304217602
 H   -0.2632412799   -2.4455883250   -1.3230295759
 H    1.2689783443   -2.3873203559   -2.1823919112
 H    2.4944051672   -2.2048241866   -0.0336872220
 H   -0.2379719118   -2.4596322867    1.3057696452
 H    1.3104961778   -2.4104064717    2.1360907308
 H    1.7379500008   -0.1072126121    1.3002935272
 H    0.2043413189   -0.1624143269    2.1566191675
 H    1.5653318599   -6.3050179524   -0.0467616080