19

 C    0.0862188650    1.3018208985    0.1497618732
 O   -0.1181075181   -0.0667705534   -0.1111174108
 C    0.6009288545   -0.5564203781   -1.2168290887
 C    2.0830894993   -0.9333398505   -0.8361901579
 C    1.9453899300   -2.3457716964   -0.2669780606
 C    0.8456854529   -2.8900704992   -0.7702551783
 C   -0.4281945378   -3.6436472114   -0.4814795505
 O   -1.1759587995   -2.5138873063   -1.0316864711
 C    0.0434508443   -1.9500598522   -1.6038710589
 H    1.1282514346    1.5328173587    0.4185753350
 H   -0.1897657070    1.9245216397   -0.7157737747
 H   -0.5554790805    1.5657944725    0.9937924617
 H    0.5612634086    0.1671392103   -2.0455157637
 H    2.7380475654   -0.8818258331   -1.7165106430
 H    2.4917327198   -0.2331225333   -0.1004212695
 H    2.5888143888   -2.7390111519    0.5106720813
 H   -0.6040227494   -4.5533657966   -1.0704334471
 H   -0.6636878947   -3.8341632424    0.5709462474
 H    0.0481031038   -2.0892928448   -2.6940434435