19

 C   -0.0527240488    1.5523485726    0.0492679158
 C    0.0206939522    0.0211826411    0.0411312184
 C    0.8151005805   -0.5390735679    1.1806841297
 C    2.2591195455   -0.2161315061    1.6751749313
 C    1.5744262616   -1.0920879023    2.7506252113
 O    0.3392947277   -0.2945081254    2.5777113714
 C    1.0519399791   -1.9972373804    1.6279026552
 C    0.3503188330   -3.2592114450    1.5196694513
 O    1.6750571149   -3.0499302634    0.9491795951
 H    0.9416736806    1.9967618876   -0.0588862401
 H   -0.6742763158    1.9154346017   -0.7739885087
 H   -0.4812348264    1.9123644974    0.9884959248
 H   -0.9886828027   -0.4057977296    0.0881489313
 H    0.4719385107   -0.3390164610   -0.8917405789
 H    3.0964304970   -0.6448673672    1.1189761985
 H    2.4182168584    0.8208243892    1.9737612331
 H    1.8889022022   -1.3251869603    3.7666483650
 H    0.3192298509   -3.9428566646    2.3657892367
 H   -0.4466457605   -3.3835656163    0.7889819286