14

 C   -0.0177993865    1.5427142311    0.0224481770
 C   -0.0323399731    0.0422573798    0.0207318589
 C   -1.1575160509   -0.6882993405   -0.1040614281
 O   -2.3892546109   -0.1849510176   -0.2405677539
 O   -1.1629774020   -2.0482694410   -0.1047703430
 C    0.0518265779   -2.6657008255    0.0298732260
 N    1.1748117941   -2.1048098436    0.1544224522
 C    1.2372208550   -0.6740300245    0.1614403369
 O    2.3038188537   -0.1116002890    0.2797242247
 H    0.6156411953    1.9151100599   -0.7888463412
 H   -1.0206395887    1.9571670840   -0.0896594030
 H    0.4207759365    1.9150810580    0.9536476807
 H   -3.0174218860   -0.9148980342   -0.3103645937
 H   -0.0821553744   -3.7432000869    0.0149411065