20

 C   -0.4490021521    0.9115194215   -0.0020848799
 O    0.4119479990   -0.1992343013    0.2021570625
 C    0.9352559696   -0.7030574799   -0.9750787483
 C    1.2530009464   -2.1704676538   -0.9722255867
 C    0.1046237759   -1.6474402445   -1.8098680929
 O   -1.2134671348   -1.8539300115   -1.3796836973
 C   -1.6917661615   -3.1156050728   -1.5014334606
 N   -2.8990859145   -3.3623425529   -1.2589313778
 C   -3.3364997609   -4.7361512514   -1.3905497304
 H    0.0787832063    1.7408789398   -0.4965741840
 H   -1.3232689515    0.6327196729   -0.6011230689
 H   -0.7760182770    1.2410277760    0.9863959429
 H    1.5964554492   -0.0233708751   -1.5162611589
 H    2.1474832360   -2.5294459738   -1.4680526516
 H    0.9802626159   -2.6911511088   -0.0610498942
 H    0.2168172283   -1.6198510345   -2.8917599638
 H   -0.9374907937   -3.8535921798   -1.8125705221
 H   -4.1535047372   -4.7930359954   -2.1188483336
 H   -2.5424757612   -5.4328579572   -1.7063516131
 H   -3.7396658122   -5.0867510177   -0.4336178911