22

 C    0.7610413275    1.3142531157    0.1125885889
 N    0.0059575942    0.0705884489    0.0984041929
 C   -0.9418329040   -0.1324302678    1.0579805097
 O   -1.1712295029    0.6064590440    1.9958520841
 C    0.1181980852   -0.8086990628   -1.0659777260
 C   -0.7294834095   -0.2822465032   -2.2320187573
 C    1.5735739729   -1.1575340380   -1.5063642992
 C    1.1252207336   -2.6285514361   -1.7109064444
 C   -0.1101982865   -2.3340726368   -0.8210473695
 H    1.8355071382    1.1198861406    0.0393728603
 H    0.4721155238    1.9744182132   -0.7142842632
 H    0.5440819954    1.8167194418    1.0550290319
 H   -1.4958765077   -1.0754473557    0.9012066404
 H   -0.4264443531    0.7307702828   -2.5147406630
 H   -0.6247874499   -0.9183784958   -3.1162818559
 H   -1.7879431976   -0.2568618677   -1.9533403613
 H    1.9783272512   -0.6160050292   -2.3649683733
 H    2.2696400298   -1.0696592869   -0.6685039757
 H    0.8549733991   -2.8455512750   -2.7470891957
 H    1.8082948406   -3.4057122859   -1.3644508743
 H    0.0812504177   -2.6035855363    0.2199896771
 H   -1.0754249580   -2.7468730197   -1.1239887066