14

 C   -0.0780278056    1.5311940799    0.0292803403
 C    0.1339901425    0.0483815937    0.0228530989
 O   -0.7318810549   -0.7715368914    0.8394821079
 C    0.6912035395   -0.7929972909    1.0868078370
 C    1.3659900926   -1.9667468854    0.4335849796
 C    1.2104748124   -1.9219032386   -0.8960923627
 C    0.4794333288   -0.6797855483   -1.2859382466
 O    0.2268339649   -0.2867327852   -2.3983226287
 H    0.8314840054    2.0530121321   -0.2841651848
 H   -0.8716687345    1.7971822906   -0.6751155738
 H   -0.3594947118    1.8730821014    1.0277741325
 H    1.0074887939   -0.4104178562    2.0519044561
 H    1.8627698302   -2.7499691392    0.9936163283
 H    1.5346645866   -2.6561416523   -1.6219556339