17

 C   -0.0987509129   -1.1996026219   -0.0436472243
 C   -0.0255535094    0.0002655728   -0.0223251104
 C    0.0501605686    1.4356391479   -0.0298600539
 O    0.5500374325    2.0891201455    1.1550636173
 C    1.3432756557    2.1518382452   -0.0238622419
 C    2.7151468317    1.4844705252   -0.0200152169
 C    3.5334218485    2.4239635134   -0.9191354625
 O    2.9417189605    3.7096729719   -0.7540024089
 C    1.5401746554    3.5069347981   -0.7091923670
 H   -0.1663424901   -2.2596540966   -0.0519525620
 H   -0.8077982059    1.9384777497   -0.4778212118
 H    3.0993683124    1.4865056397    1.0039398224
 H    2.6835819355    0.4520737805   -0.3744168491
 H    4.5853872956    2.5018034948   -0.6369311248
 H    3.4775210704    2.1061204064   -1.9731906500
 H    1.1139737844    3.4908752504   -1.7262486134
 H    1.0785799472    4.3198994469   -0.1432076926