21

 O   -0.4475539278    1.3207702839    0.0899311180
 C   -0.0316009782   -0.0383957473   -0.0183690045
 C    0.8520153036   -0.2477766151   -1.2592294532
 C    0.1320648527    0.0923498548   -2.5410113478
 C    0.4193535225   -0.5934968837   -3.8056414420
 O   -0.7503305032   -0.9147819514   -3.0515921429
 C    0.6394307928   -0.5473041015    1.2496645133
 C    1.5330844816    0.3382911520    2.0837036291
 C    0.1786935370   -0.0821090379    2.6024924649
 H    0.3444558775    1.8696675505    0.1096574376
 H   -0.9645962245   -0.5962557962   -0.1655986254
 H    1.7554838327    0.3724846898   -1.1633525800
 H    1.1832867781   -1.2914711679   -1.3032825861
 H   -0.2824931603    1.0992163026   -2.5859888229
 H    0.2421320827   -0.0859109400   -4.7530387977
 H    1.1848938476   -1.3686939087   -3.8336922627
 H    0.9439481922   -1.5884257220    1.1777637794
 H    2.4228853202   -0.0983134787    2.5231218293
 H    1.6524320502    1.3797377976    1.8010139756
 H   -0.5945367034    0.6773026892    2.6175461408
 H    0.1324240357   -0.8024461104    3.4113693870