18

 O    0.0865895966    1.4127977562    0.1779483349
 C    0.1480922290    0.0072520633   -0.0191251980
 C   -1.2638343415   -0.5904749539    0.0504628973
 O   -1.9236615952   -0.1235827409    1.2253189364
 C   -2.1305378887   -0.0718715010   -1.1072816305
 O   -1.7850177334    0.7848604926   -1.8864671417
 C   -1.2573227253   -2.1069243614    0.0599226555
 C   -1.0386242581   -2.8472186464    1.3262770367
 N   -2.3649982809   -2.8463680819    0.6827835314
 H   -0.3076776888    1.7715443694   -0.6289538912
 H    0.6267761640   -0.2523146025   -0.9717062771
 H    0.7505821596   -0.4019972958    0.7963620646
 H   -1.5800213804    0.7737188677    1.3597305808
 H   -3.1511735536   -0.5067310390   -1.1412342125
 H   -0.9024660351   -2.5470729914   -0.8707346116
 H   -0.5169595494   -3.7993191045    1.3080116001
 H   -0.9140660421   -2.2615033221    2.2313910760
 H   -2.9539851666   -2.1815792881    1.1812201687