17

 O   -0.5183269690    1.4740412391   -0.1804177505
 C   -0.0680769582    0.1596101583   -0.0515926100
 C   -1.2081586160   -0.8935844985    0.0833927331
 O   -2.4161117140   -0.3799994581   -0.5113715946
 C   -2.1435666824   -1.0815257417   -1.7647865903
 C   -0.7818167564   -1.5809454220   -1.2451493275
 C    0.4023280718   -0.5905789662   -1.3729490295
 C    0.5849601904    0.2604446820   -2.5981646879
 O   -0.0302297035    0.1440511309   -3.6297744179
 H   -1.4501282574    1.3987821724   -0.4452556478
 H    0.6831993096    0.1247437872    0.7417964316
 H   -1.3801630514   -1.3789071659    1.0465440876
 H   -2.8768645822   -1.8812100512   -1.9152971012
 H   -2.1378852370   -0.4142285172   -2.6267983512
 H   -0.5662661436   -2.6425800101   -1.3459749580
 H    1.3632774829   -1.0847947331   -1.1826138182
 H    1.3643191964    1.0457830641   -2.4840966177