16

 C   -0.0300597419    1.5621518962   -0.0133317260
 N    0.0267326110    0.0625696568    0.0534315919
 H   -0.9385675148   -0.2787608949    0.0928122608
 C    0.6756747479   -0.4979202535   -1.1560152322
 C    1.7256939900   -1.2259285958   -0.8110286623
 C    1.8858772225   -1.2637804564    0.6997502204
 O    2.7700261207   -1.8777869338    1.2702438764
 C    0.8054564249   -0.4714211152    1.2067591247
 C    0.2720969285   -0.2680831057    2.5072806150
 O    0.7393181305   -0.6379146728    3.5696799888
 H    0.9968178527    1.9221949945   -0.0584159461
 H   -0.5925658047    1.8667957570   -0.9004680281
 H   -0.5180406314    1.9309255152    0.8877703829
 H    0.2486466661   -0.2152401511   -2.1070221035
 H    2.3930737190   -1.7440293871   -1.4857697329
 H   -0.7053467210    0.2976029868    2.4948088902