20

 C    0.7292923077   -0.5234758882    1.3858236721
 C    0.1604965594    0.0867971471    0.1009333226
 C    0.8354766656   -0.4089897155   -1.2069333281
 O    2.2400708030   -0.1587406668   -1.1828887553
 C    0.5042550993   -1.8798307225   -1.5181778765
 C    1.2162857124   -2.4264257217   -2.7595837677
 C    0.3135788494    0.5062320541   -2.3144674597
 O   -0.7564963770    0.3790727233   -2.8497097046
 H    0.5981034207   -1.6090278933    1.4260155495
 H    1.7962645254   -0.3009401536    1.4959160841
 H    0.2241483111   -0.1004994818    2.2589562119
 H   -0.9136106151   -0.1134267548    0.0241074504
 H    0.2751971707    1.1768745514    0.1505688490
 H    2.6332184826   -0.7217453194   -0.5089134499
 H    0.7608402101   -2.4933069674   -0.6458193885
 H   -0.5805859671   -1.9502508358   -1.6476393652
 H    0.8958901342   -1.8992028428   -3.6632334136
 H    2.3003665511   -2.3144159830   -2.6736838618
 H    0.9905296223   -3.4878331219   -2.8968436414
 H    1.0083053144    1.3396337626   -2.5603848474