21

 C   -0.0439052522    1.4207126999   -0.2117682807
 O   -0.0325902412    0.0563994188    0.1324856352
 C   -1.2828839750   -0.5672767811   -0.0486402939
 C   -1.1497065773   -2.0337790925    0.3520176157
 C   -2.4640139642   -2.7729573150    0.2005720581
 C   -2.8549574305   -3.4363388492   -1.0779580326
 C   -2.5645673608   -4.2990440419    0.1468032243
 C   -1.3593443861   -5.1572406592    0.1435997483
 O   -1.2854882020   -6.2257839721    0.7000506411
 H    0.9617021312    1.8109275329   -0.0376072425
 H   -0.3060051734    1.5738053931   -1.2709141289
 H   -0.7580227426    1.9921316586    0.4025763015
 H   -2.0554446994   -0.0708546960    0.5655434144
 H   -1.6098491751   -0.4858783161   -1.0998387527
 H   -0.3668072144   -2.4863571739   -0.2642443935
 H   -0.8015420290   -2.0820903122    1.3901978364
 H   -3.2814112184   -2.3267423065    0.7626460766
 H   -3.8822671615   -3.3932026687   -1.4205347010
 H   -2.1171908408   -3.4633769215   -1.8749356088
 H   -3.4091020261   -4.7469735620    0.6590209469
 H   -0.4974386013   -4.7563874052   -0.4373427538