19

 O    0.1358492736    1.4205524056   -0.0908570250
 C    0.0270625283    0.0311085631   -0.0337052053
 C    0.1178795908   -0.6521277845    1.3512446471
 O   -0.8668738003    0.1059661465    2.0885600145
 C   -2.0465761900   -0.1114806968    1.2476244778
 C   -2.7918966724   -1.2959664501    1.8603869868
 C   -1.7496541501   -2.4444872977    1.7109583185
 C   -0.7021427740   -1.8398316283    0.7655771370
 C   -1.3657655766   -0.6623450550   -0.0281340493
 H   -0.1989529374    1.7404351387    0.7583725139
 H    0.6953867166   -0.4020450671   -0.7809303122
 H    1.0289380559   -0.7491522677    1.9408467726
 H   -2.6082620270    0.8198193036    1.1584097976
 H   -3.0688706733   -1.0964413186    2.8983385779
 H   -3.7089736784   -1.5068765999    1.2983791256
 H   -1.3099676432   -2.7250800403    2.6723282645
 H   -2.1946353327   -3.3466101728    1.2819867046
 H   -0.1055092174   -2.5399854283    0.1813072563
 H   -1.9816439625   -0.7973458204   -0.9159407531