18

 O   -0.1387733065   -0.0448627593    0.2219531048
 C   -0.0468519906    1.1565028018    0.1110295425
 C    1.1953459627    1.8817837205    0.0714060528
 C    2.2190617074    2.5223251122    0.0419236928
 C    3.4659582653    3.2753364367   -0.0155030699
 N    3.2503655614    4.7061498923   -0.1080975402
 C    2.6835445123    5.2640156613   -1.3555218148
 C    3.6348472047    6.4748143432   -1.1980454102
 C    4.4415546182    5.5725324056   -0.2336972578
 H   -0.9467898130    1.8000055465    0.0297808108
 H    4.0469229463    3.0681668008    0.8935526028
 H    4.0677691476    2.8808252834   -0.8613265809
 H    2.9270920299    4.6608612506   -2.2458889860
 H    1.6041096771    5.4381491396   -1.3318543877
 H    4.1450601475    6.8278463303   -2.0939282451
 H    3.1629618538    7.3165825516   -0.6890402969
 H    4.8012092128    5.9988064372    0.7082076554
 H    5.2839022032    5.0761440357   -0.7444696925