20

 C    0.2059392486    1.6634285355    0.0444416525
 C    1.2934693063    0.6783256244   -0.3047414929
 C    2.5386486920    0.5215293647    0.5466150046
 O    2.3009703452    0.2747749469    1.9192091869
 C    1.8488520992   -1.0367770331    2.1957957897
 C    0.3376194322   -1.1634685413    2.2268871411
 C   -0.4771670691    0.0260338909    2.6087823295
 N   -0.5234741626   -0.5102232067    1.2591565685
 C   -0.1001072844    0.1876950169    0.0700592400
 H    0.2945280009    2.1575087011    1.0061583380
 H   -0.2314450761    2.2782740799   -0.7346411220
 H    1.5187900877    0.5834269473   -1.3653121486
 H    3.1611968325   -0.2867173053    0.1284716848
 H    3.1336883217    1.4416828376    0.5109397108
 H    2.2754330178   -1.7477435637    1.4708032028
 H    2.2381333157   -1.3101097428    3.1851868663
 H    0.0074177701   -2.1593827411    2.5287250638
 H   -1.3923801170   -0.0797990902    3.1874682634
 H    0.0843694707    0.9373833446    2.7969840449
 H   -0.6617169216   -0.1743231655   -0.7881174743