17

 C    0.0370275711    1.3437287259   -0.1083351227
 O   -0.2068369452    0.1782413099    0.6940678275
 C   -1.2492803558   -0.5620123507    0.3232937774
 C   -1.3652707054   -1.8578881105    0.0210471674
 N   -2.7238217674   -2.0821587211   -0.2653739291
 C   -3.4358396528   -0.9184944623   -0.0401104701
 O   -2.4920326842    0.0568662672    0.2702589101
 N   -4.6863663754   -0.7694290591   -0.1009719394
 C   -5.2471669807    0.5385996776    0.1829030637
 H    0.9152092647    1.8266723791    0.3211099445
 H    0.2387707474    1.0573531171   -1.1469959404
 H   -0.8168405060    2.0259009386   -0.0739174549
 H   -0.6127929266   -2.6205178642   -0.0641365421
 H   -3.1873823160   -2.9724614120   -0.2121618799
 H   -4.7085882081    1.0842394389    0.9700243224
 H   -5.2511750334    1.1756497752   -0.7131945401
 H   -6.2879238862    0.4196733103    0.4984427259