18

 C   -0.0967638748    1.3883531010   -0.0489636710
 O   -0.0072207406   -0.0223264057    0.0215306501
 C    0.6429158943   -0.5717277008    1.0823064884
 C    1.2331766945    0.1460810134    2.1160717823
 C    1.8654955020   -0.5629983658    3.1378663450
 C    1.8787380656   -1.9467946407    3.0798991167
 N    1.3110242462   -2.6416796995    2.0853053994
 C    0.7031695044   -1.9832523114    1.1017542132
 C    0.0715899885   -2.7818559942   -0.0059982636
 H    0.8957015039    1.8542584061   -0.1020640634
 H   -0.6479375934    1.6126941567   -0.9634038993
 H   -0.6395531994    1.8024114733    0.8105869629
 H    1.2079491632    1.2283166243    2.1364793931
 H    2.3373405347   -0.0383569807    3.9614248077
 H    2.3617711336   -2.5319777742    3.8578797066
 H   -1.0022083835   -2.5770684788   -0.0787190773
 H    0.5032410428   -2.5200283307   -0.9782517766
 H    0.2259718281   -3.8442315023    0.1855211959