16

 N   -0.0637145739   -1.0279574164   -0.3276989105
 C   -0.0293318636    0.1210628608   -0.1886716640
 C    0.0666520876    1.5394368997   -0.0199852232
 C    0.5319755760    2.1214886354    1.3213920243
 C    1.4433883324    2.1957015322    0.1589200113
 C    2.7577393434    1.4250092824   -0.0161814736
 O    3.5521689008    2.3013907833   -0.8103788787
 C    2.6636469921    3.2161953941   -1.3971879402
 O    1.6403275140    3.4400593802   -0.4422422402
 H   -0.6586216910    2.1276376914   -0.5709332319
 H    0.0454187767    3.0371200924    1.6367359813
 H    0.7653396152    1.4200187721    2.1143971468
 H    3.2777153028    1.2543021939    0.9306993742
 H    2.5988510993    0.4614104897   -0.5164275526
 H    3.1813714147    4.1584403996   -1.5892418423
 H    2.2301976134    2.8115276792   -2.3287105308