15

 C   -0.0426864327    1.5953171684    0.0704666875
 C    0.0281194109    0.0788344631   -0.0242775760
 C    1.1167487474   -0.5917971189   -0.9212394259
 O    1.3173014280   -0.6107401849   -2.0974214735
 C    1.7115262933   -1.3250716105    0.2794511434
 O    2.0255457963   -0.2811788202    1.2208982260
 C    0.6595648418   -0.7102813418    1.1500526124
 C    0.0159964516   -1.2345036584    2.3034976749
 C   -0.5738987882   -1.6485493091    3.2657188543
 H    0.9075807429    2.0020114337    0.4243582479
 H   -0.2552079983    2.0222602382   -0.9140402588
 H   -0.8353763784    1.9104169782    0.7557994294
 H   -0.9391125399   -0.3537179669   -0.3086027740
 H    2.2464488974   -2.2633953620    0.3681939498
 H   -1.0836703220   -2.0226537790    4.1194125125