15

 O   -0.0150311047    1.2579492032   -0.3067738177
 C    0.8833316390    2.1790536582    0.0688648845
 C    1.9789908252    2.1312808554    0.8472154784
 C    2.5433407678    1.1297981986    1.7467143848
 N    1.9915002657    0.4874511298    2.7034601542
 C    0.6510214903    0.4522296272    2.9945064072
 N   -0.2756543833   -0.1424861907    2.3435163204
 C   -0.0501240959   -0.7164325633    1.1056035328
 C    0.0818196005   -0.1029155838   -0.0729796746
 H    0.6531129146    3.1098539690   -0.4426552177
 H    2.5894071751    3.0297929927    0.7781391830
 H    3.6289557768    1.0122663364    1.6723886645
 H    0.3970709891    0.8652964499    3.9727407732
 H   -0.0876685031   -1.8043522385    1.0806371504
 H    0.0941584129   -0.6612362241   -1.0014561036