19

 C    0.0159841390    1.5341987602   -0.0543959089
 C    0.0260932879   -0.0007801055    0.0799455278
 C    0.6960063680   -0.4075432642    1.3210592914
 N    1.2079791166   -0.7285102903    2.3066500600
 C   -1.3852758970   -0.6028294878    0.0177229095
 C   -2.1649461272   -0.5068837329   -1.3243409007
 C   -2.7026229672   -1.9402027134   -1.0622903391
 C   -1.5513414568   -2.1460614004   -0.0406571171
 H    1.0306503542    1.9394719047   -0.0404880524
 H   -0.4579036111    1.8184989769   -0.9978648702
 H   -0.5454089765    1.9909452192    0.7656359554
 H    0.6113206385   -0.4219853457   -0.7490170013
 H   -1.9843405594   -0.1885528656    0.8360219221
 H   -2.8894287784    0.3025873236   -1.4379608173
 H   -1.4810914688   -0.4848577612   -2.1799795971
 H   -3.6806151767   -1.9219713352   -0.5737594838
 H   -2.7529889991   -2.6230646569   -1.9127510540
 H   -0.6810099560   -2.6221724361   -0.5042599092
 H   -1.7738141700   -2.6666561394    0.8925033550