22

 C    0.1445495196    1.5006164575    0.0539756156
 C    0.5260490165    0.0308363886    0.0162495771
 O    0.0944933734   -0.5748972619    1.2243078929
 C    0.3783957689   -1.9358701473    1.2926345681
 C    1.7573778710   -2.3855530698    1.7191294000
 C    0.5681723331   -2.5319652591    2.6540078442
 C    0.4694261471   -1.6828919291    3.9052874130
 C    1.2871607888   -2.2496249822    5.0709070089
 H    0.6225091101    1.9999794182    0.9017552640
 H    0.4607205059    2.0002698653   -0.8666160586
 H   -0.9383417660    1.6140302933    0.1572188028
 H    0.0531538330   -0.4700989204   -0.8446776174
 H    1.6145065768   -0.0900786141   -0.0986623616
 H   -0.1367474065   -2.5327720977    0.5373683893
 H    2.1946447616   -3.2673384250    1.2632857444
 H    2.4662697643   -1.5986667074    1.9581276611
 H    0.1844190863   -3.5435189386    2.7690204385
 H    0.7969794138   -0.6651307691    3.6724518270
 H   -0.5844524878   -1.6001758981    4.2008173930
 H    1.1952601001   -1.6208469001    5.9622163057
 H    0.9516268001   -3.2577979963    5.3391049018
 H    2.3491436798   -2.3145126765    4.8114101000