18

 C    0.0392996155    0.7829976435   -1.0658253020
 C   -0.7083898273    0.3811911192    0.2077053022
 N   -1.7093343766   -0.6733875044    0.1298477222
 C   -1.9253726694   -1.2778073200   -0.9558779496
 N   -2.8159794328   -2.3682677925   -1.0239126579
 C   -4.0078841999   -2.3702028369   -0.2148294770
 C   -4.1061495135   -2.2340738625   -1.7130535374
 C   -4.4958355280   -0.9643185524   -2.2777857349
 N   -4.7970102137    0.0422231145   -2.7613639953
 H    0.7372327172    1.5940621285   -0.8380875517
 H    0.6213294965   -0.0479348688   -1.4783468150
 H   -0.6446216567    1.1411275576   -1.8424084076
 H    0.0122892723    0.0743473008    0.9775551942
 H   -1.2168522362    1.2592479393    0.6266573859
 H   -1.4335227651   -1.0872530910   -1.9133163657
 H   -4.2814611678   -3.3203967625    0.2331977377
 H   -4.1983741611   -1.4845092664    0.3837090969
 H   -4.3974839533   -3.0929420360   -2.3108769350