14

 O   -0.1597670877    1.3997873978    0.0222307447
 C   -0.0026198606    0.0493809269    0.0132192722
 C   -1.1089265371   -0.9959039863    0.0073800240
 C   -0.0450526649   -0.9877483381   -1.0802418080
 N    0.8422358035   -1.9517562802   -0.2953469802
 C   -0.1867486063   -1.9530768032    0.7935474129
 C    0.9117243884   -0.9328002531    0.8391209173
 C    2.0214948222   -0.7482892828    1.6929246377
 C    2.9528598460   -0.5447154948    2.4282962976
 H    0.5991187163    1.8047436074   -0.4154981651
 H   -2.1780172340   -0.8516152404   -0.0390306434
 H   -0.0987533460   -0.9375485077   -2.1599178024
 H   -0.3631309518   -2.8103504670    1.4330448005
 H    3.7771305419   -0.3771698785    3.0763813521