18

 C    0.1322333736    1.4125807100    0.2134992652
 C   -0.1518109887   -0.0672164512    0.1137713658
 O   -0.6669206743   -0.7419234131    0.9693213066
 O    0.2549593552   -0.5509983165   -1.0810916901
 C    0.0548702098   -1.9516237372   -1.2951364122
 C   -1.3321854251   -2.4272667982   -1.7812371463
 C   -0.5898446665   -3.3645059358   -2.7763776361
 C    0.6787763335   -2.4809758438   -2.5976451818
 H    1.2052759845    1.5960567113    0.1072976234
 H   -0.3696157072    1.9467340946   -0.5982326657
 H   -0.2154719276    1.7852217332    1.1761498145
 H    0.3799418018   -2.4966239568   -0.4063478227
 H   -2.0026378952   -2.8657689438   -1.0411083337
 H   -1.8497531264   -1.6180051325   -2.3044162349
 H   -0.4507826368   -4.3683274280   -2.3669682493
 H   -0.9992531931   -3.4534854521   -3.7838803462
 H    0.7205024046   -1.6854821992   -3.3466868358
 H    1.6545451679   -2.9673488907   -2.5373226210