18

 C   -0.0309024628    1.4232470663    0.0884425002
 C    1.4213369540    1.9552903366    0.0031874623
 N    2.2897014086    1.4552069961    1.0718848825
 C    1.9948043574    0.1080938721    1.3993497766
 C    0.9306811921   -0.5750060999    0.8529823010
 N    0.9633775114   -1.8653234225    1.3280548986
 C    2.0379674274   -2.0068982742    2.1778582023
 C    2.6979024443   -0.8016981006    2.2436364178
 N   -0.0955556730   -0.0455911338    0.0462604296
 H   -0.4839203803    1.7565242799    1.0302621509
 H   -0.6333209774    1.8245051224   -0.7318492910
 H    1.8448385346    1.6446490457   -0.9621517593
 H    1.4277885975    3.0493848205    0.0232405197
 H    2.2513402869    2.0557960776    1.8879995118
 H    0.2716512307   -2.5654087883    1.1279723603
 H    2.2510089955   -2.9532313288    2.6471800241
 H    3.5903985901   -0.5954368597    2.8142397124
 H   -0.0281261569   -0.3689903894   -0.9155992899