16

 N   -0.1305740562    1.3742229918    0.2959048511
 C   -0.0744450758   -0.0018842199   -0.0382188319
 C   -1.2168162906   -0.7491955977   -0.2461748314
 O   -2.5180066656   -0.4074549207   -0.1739555042
 N   -0.7656406684   -1.9721158879   -0.6613313802
 C   -0.8120613083   -3.4527585586   -0.6413694702
 C    0.7654669735   -3.4265650805   -0.7012518386
 C    0.6014217629   -1.9204971135   -0.5912029581
 N    1.0832576443   -0.7666582390   -0.2234541101
 H    0.3189736756    1.9443618855   -0.4158517919
 H    0.3673291279    1.5575578029    1.1630356289
 H   -2.5154663641    0.5301835082    0.0700064466
 H   -1.2154731510   -3.8581586792    0.2894955400
 H   -1.3343404196   -3.8865043148   -1.4967921904
 H    1.2540675306   -3.9127055142    0.1463433529
 H    1.1979287148   -3.8051628923   -1.6307962423