17

 C    0.0599630062   -1.2641003454   -0.4444086754
 C    0.0438782384   -0.0977069144   -0.1551618849
 C    0.0485339039    1.3204731575    0.1324316295
 C   -0.4934070457    2.2803593527   -0.9822902634
 C    0.8416971043    3.0778105753   -0.9598531218
 C    1.4113254155    2.1152656164    0.1210775328
 O    1.5381500675    2.6253500954    1.4289999025
 C    0.2310495504    2.6742552284    1.9553461814
 O   -0.4715811186    1.5653179017    1.4352829721
 H    0.0697355815   -2.2986545057   -0.6843096960
 H   -0.7073737750    1.7707724314   -1.9225507727
 H   -1.3835476398    2.8268785041   -0.6639128213
 H    1.3990908227    3.0636898119   -1.8983985171
 H    0.7661472565    4.1123777262   -0.6179066023
 H    2.3227125088    1.5733129057   -0.1297405698
 H    0.2790749203    2.5883769023    3.0438240507
 H   -0.2689379571    3.6170350265    1.6715215059