19

 C   -0.0397459998    1.4938013531    0.3167419829
 C   -0.0336919916   -0.0042276973    0.0298145851
 N   -1.3940745450   -0.5310175676   -0.0147543572
 C   -1.4392449782   -1.9747808448   -0.2260719829
 C   -2.8385388260   -2.4866804505   -0.1765462274
 N   -3.4765268206   -3.2022131621   -1.0465506264
 C   -4.7296725053   -3.4084427583   -0.4797088167
 C   -4.7799405138   -2.7908041090    0.7212227761
 O   -3.5669536388   -2.1951596349    0.9354885778
 H    0.9784754983    1.8935340117    0.3162293846
 H   -0.6264625488    2.0276271067   -0.4360096277
 H   -0.4782727774    1.7044776871    1.2991678238
 H    0.4295972568   -0.1924749462   -0.9476049733
 H    0.5978998780   -0.5253812215    0.7752152225
 H   -1.8700896061   -0.3113208673    0.8552007918
 H   -1.0464100989   -2.2113027897   -1.2192350530
 H   -0.8235929542   -2.5355981588    0.5052855832
 H   -5.4939126722   -3.9797513872   -0.9818593459
 H   -5.5195775763   -2.6710962435    1.4936064628