17

 C   -0.0192438416    1.4539936782    0.0544150821
 C   -0.0009424248   -0.0364480764   -0.0211095000
 C   -0.0372386222   -0.8290374659   -1.1095801081
 C    0.0013473148   -2.2191576919   -0.6865671066
 N   -0.0041869135   -3.4262381440   -1.2100645611
 C    0.0558381733   -4.2642103046   -0.1154092665
 C    0.0975254541   -3.5566512171    1.0665038780
 N    0.0616083129   -2.2390034191    0.6813380205
 C    0.0666667067   -0.8999188345    1.2368184788
 H    0.8771511520    1.8446787809    0.5531576654
 H   -0.0681621074    1.8959680428   -0.9437294743
 H   -0.8808965982    1.8192862331    0.6280345493
 H   -0.0870241492   -0.5065414258   -2.1397838663
 H    0.0661082330   -5.3375246794   -0.2333460635
 H    0.1472030421   -3.8678848747    2.0964819448
 H    0.9759979037   -0.7040076893    1.8187753075
 H   -0.7934658258   -0.7295257224    1.8964217401