15

 C   -0.0685586297    1.5624756223   -0.0334151832
 C    0.0913010014    0.0594531026    0.0366218893
 O    1.1640964164   -0.4629759985   -0.8110786539
 C    1.6848427236   -1.2257159249    0.2786326872
 C    2.1862184976   -0.3126059875    1.3676135352
 C    0.7098376720   -0.6337258787    1.2576526350
 O   -0.0236189110   -1.2413284517    2.2563798258
 H    0.8429298046    2.0792956326    0.2790297261
 H   -0.3033476954    1.8730189117   -1.0563847671
 H   -0.8932142341    1.8820494903    0.6133220123
 H   -0.8461709327   -0.4466880587   -0.2292631991
 H    2.0321393635   -2.2337023278    0.0883743935
 H    2.6699571158   -0.8269310287    2.1932947915
 H    2.5945693740    0.6629156453    1.1185634923
 H   -0.0201407959   -0.6660419482    3.0291400250