18

 O    0.3436235592   -0.2533273231   -0.0784229934
 C    0.1348099236    0.9236884020   -0.2166446827
 C    1.1712536977    2.0144845807   -0.0180026711
 C    1.2136365972    2.9672663073   -1.1848802502
 C    1.9488899960    2.6953322719   -2.4733301887
 C    2.3010847628    3.9066621172   -1.6532630463
 N    1.3683830860    5.1039280310   -1.7012673969
 C    0.2506225749    4.8525945277   -2.6329144162
 C    0.2506492315    4.1719505900   -1.3217073664
 H   -0.8726481115    1.2952353339   -0.5173374772
 H    0.9077110227    2.5647426974    0.8982097265
 H    2.1424006042    1.5387468220    0.1467143920
 H    2.6909764227    1.9064802689   -2.3860649419
 H    1.4816668935    2.7307031504   -3.4507822585
 H    3.2953788085    4.0833038208   -1.2625998353
 H   -0.3924009196    5.7234616759   -2.7259444930
 H    0.4039970344    4.3210655940   -3.5643478695
 H   -0.4363782039    4.4410106720   -0.5241092813