17

 C    0.3192671184    1.3132621805   -0.1732992367
 O    0.4264849141   -0.0912014169   -0.1461266467
 C    0.1986457725   -0.6150691552    1.1485148057
 C    0.3164146558   -2.0657167955    1.1365202037
 C    0.4084226439   -3.2674164567    1.1442959418
 C    0.5196656895   -4.6972711190    1.1699354136
 C    1.5187233809   -5.3760963259    0.2889170850
 N    1.7321499077   -5.3414731890    1.7373299637
 H    1.0558849829    1.7940800168    0.4903753030
 H    0.5083579934    1.6315690857   -1.2007504484
 H   -0.6847356773    1.6540750101    0.1265259918
 H    0.9201990373   -0.1872586197    1.8672053445
 H   -0.8053078230   -0.3283926852    1.5085653272
 H   -0.3949899424   -5.2345105355    1.4068893320
 H    1.2804614259   -6.3547018472   -0.1178891130
 H    2.1266068166   -4.7440305737   -0.3511844069
 H    2.4080138437   -4.6156268935    1.9645242096