16

 N   -0.1323966808    1.2191018151   -0.3308234227
 C   -0.0584150114   -0.0093395208   -0.0430736188
 O    1.0805785504   -0.7078768256    0.2061018072
 C    0.7620108795   -2.0734099805    0.5606571596
 C   -0.6515712262   -2.3309398393    0.0178364025
 C   -1.2339388759   -0.9302225159    0.0335710807
 C   -2.4424243003   -0.4813195231    0.7824403801
 N   -2.4580478179   -0.5854192810   -0.6803269887
 H    0.7857175506    1.6625837454   -0.3309533282
 H    1.5308030851   -2.7129040116    0.1233283498
 H    0.8046868508   -2.1657629057    1.6521407994
 H   -0.6145202872   -2.7062934682   -1.0097423562
 H   -1.2088257940   -3.0471838671    0.6241610186
 H   -3.0444839779   -1.2214536105    1.3035669617
 H   -2.4090773617    0.5061120329    1.2332625917
 H   -2.3240000731    0.3447450759   -1.0789758066