21

 O   -0.6618592393    0.9534614475    1.0336745539
 C   -0.0574748168    1.1379421933    0.0088953755
 C    1.2661015609    1.8563651680   -0.1050894758
 C    1.1869879626    3.0565343778   -1.0703157668
 C    2.5342492110    3.7524459031   -1.2215907454
 C    3.6948747454    3.1536156995   -2.0876276047
 C    2.9236408708    3.6070164258   -3.3624089154
 C    2.8094769626    4.7918339212   -2.3573587063
 C    4.3232417000    4.5772364620   -2.0665266438
 H   -0.4653151043    0.7782554670   -0.9664307584
 H    1.5848585508    2.1636835503    0.8953415587
 H    2.0020875269    1.1365642300   -0.4919095141
 H    0.7958596924    2.7172073150   -2.0352995154
 H    0.4586314168    3.7795992100   -0.6809720643
 H    2.8720310352    4.0963621924   -0.2356919892
 H    4.2155456708    2.2066191662   -1.9329574494
 H    3.5325670357    3.7893286389   -4.2520989256
 H    2.0110631273    3.0712639485   -3.6274087875
 H    2.2977708503    5.7432673252   -2.5131657915
 H    4.6963800338    4.9374308801   -1.1036765090
 H    5.0129779572    4.8149990181   -2.8803654857