17

 O   -0.4869433605    0.0842587584   -0.2627313865
 C   -0.2836180785    1.2520935751   -0.1287829317
 O    0.9469079276    1.7596733289    0.0840351910
 C    1.0967363905    3.1695182032    0.2169083954
 C    1.8820310745    3.6453690882    1.4721888940
 C    2.8859029990    4.3742383412    0.5416242880
 O    4.0532724129    3.5846743250    0.2665788331
 C    3.4399513580    3.0067920947   -0.9135693024
 C    2.1471217944    3.8196306183   -0.7136015141
 H   -1.0679831097    2.0340192664   -0.1617079584
 H    0.1161391122    3.6500030801    0.1267911134
 H    1.3033842049    4.2819562967    2.1456492650
 H    2.3493275561    2.8385655914    2.0395551675
 H    3.1160337581    5.4238024787    0.7353288308
 H    3.9994842659    3.2709573802   -1.8179695139
 H    3.3413263695    1.9186144707   -0.8491550182
 H    1.7859401753    4.4120848727   -1.5528557030