21

 C    0.0368102905    1.5346649419    0.1962397114
 C   -0.0851057451    0.0108636129    0.1543462447
 C   -1.4932189958   -0.4903917010   -0.2435581026
 C   -1.8583826071   -0.0426743003   -1.5930674431
 N   -2.1323968708    0.3006478755   -2.6624329696
 C   -1.5835328651   -2.0096752977   -0.1554394934
 N   -1.7505293986   -2.5569537742    1.1965805415
 C   -2.8185207728   -2.7596791661    0.1992171256
 C   -4.1629301456   -2.1301943669    0.4743768849
 H    1.0471556466    1.8334990958    0.4899158109
 H   -0.1745308138    1.9781061168   -0.7816748341
 H   -0.6625465775    1.9676683828    0.9197218845
 H    0.6492277327   -0.4070203949   -0.5444372987
 H    0.1283462319   -0.4171563717    1.1393244759
 H   -2.2177895772   -0.0584916562    0.4551677917
 H   -0.8904932939   -2.5163253321   -0.8260855426
 H   -1.1941239592   -3.3979456834    1.3189155548
 H   -2.8812466252   -3.7520650596   -0.2462417610
 H   -4.0615830898   -1.1691020216    0.9830418050
 H   -4.7174430511   -1.9760368200   -0.4570239897
 H   -4.7603460033   -2.7816910399    1.1205618638