19

 O    0.0437007521    1.4526411141    0.2013228201
 C    0.1039723094    0.0673571612    0.0406900659
 C   -0.5518660359   -0.7227128418    1.1248653816
 C    0.9651340033   -0.8273985802    0.9643685868
 C    1.3932338117   -1.9960824391    0.1295070447
 C    1.0339236443   -1.7932180262   -1.1406331066
 C    0.3971682390   -2.4920143307   -2.3232168320
 C   -0.7351455961   -1.4077885495   -2.1850584250
 C    0.2636935777   -0.5143094556   -1.3526309421
 H    0.8422589287    1.8303541083   -0.1840341430
 H   -0.9068453491   -0.1241630094    1.9569603859
 H   -1.1605940490   -1.5887130883    0.8860405063
 H    1.5874090501   -0.4005325032    1.7440301120
 H    1.7595507546   -2.9236162327    0.5566966637
 H    0.9527340767   -2.3663084568   -3.2586812067
 H    0.1235961826   -3.5431987448   -2.2099980927
 H   -1.1190031774   -0.9752275240   -3.1113911627
 H   -1.5656830594   -1.7680561221   -1.5745022367
 H    0.7547911969    0.2101720708   -2.0173104492