18

 C    0.3198321058    1.6299407112    0.0760540861
 C    0.0820163178    0.1160879145   -0.0640539230
 O    0.6613565501   -0.5985184703    1.0212959267
 C   -1.4212646376   -0.2127950463   -0.1838480609
 C   -2.2202742039    0.0159386821    1.0724070571
 O   -1.7513383729    0.2171590842    2.1710258732
 C    0.7598971450   -0.3485902610   -1.3698688459
 N    1.8080644786   -1.1848522656   -1.1962262005
 O    0.3567181903    0.0408271208   -2.4521998673
 H    1.3875906942    1.8180052779    0.2172587056
 H   -0.0105737048    2.1485728181   -0.8268699316
 H   -0.2172952734    2.0276502920    0.9410023260
 H    0.1636758157   -0.3396044559    1.8101039235
 H   -1.8721403832    0.3386005119   -1.0156062226
 H   -1.5566049939   -1.2761400451   -0.4353610661
 H   -3.3227479929   -0.0395520696    0.9418328800
 H    2.0548465057   -1.4887192400   -0.2695646977
 H    2.2950813794   -1.5309601388   -2.0054944425