20

 C   -0.0712882421    1.5925103913   -0.6778657975
 C    0.0059189680    0.0947643367   -0.4371691257
 C    0.9087532650   -0.9177800232   -1.1966561395
 C    2.0838039834   -0.4350777310   -0.2983446539
 C    2.8735108937    0.8657791346   -0.4582833165
 N    0.8941802451   -0.4915135198    0.7061312868
 C    0.6081002132   -1.8403101314    0.0018678916
 C   -0.7407145323   -2.4702272446    0.2473970274
 O   -1.5049572623   -2.8173101355   -0.6173497826
 H    0.8411334895    2.0596008126   -1.0380419902
 H   -0.8555532259    1.7843872719   -1.4181886855
 H   -0.3695921144    2.0936422082    0.2497670784
 H   -1.0239386156   -0.2505681557   -0.3098636653
 H    0.9149014236   -1.1719175660   -2.2616102222
 H    2.7893399786   -1.2371056195   -0.0592097717
 H    2.5710744715    1.6118868583    0.2801006210
 H    3.9378589588    0.6698734368   -0.3018429144
 H    2.7693785026    1.3043408392   -1.4540034554
 H    1.3686778681   -2.5908606201    0.2585187338
 H   -0.9649098987   -2.6432691730    1.3252640513