18

 N   -0.0439890959    1.3494770602    0.0446495037
 C    0.0535157324   -0.0188702730   -0.0225853284
 O    1.1343233412   -0.5755732663   -0.0984884733
 C   -1.2487525283   -0.7620205110   -0.0276657436
 C   -1.2194135307   -2.0975745858    0.0030145814
 C   -2.4680170272   -2.9264798204    0.0506343776
 C   -3.6658127889   -2.0485802292    0.4179675739
 O   -3.6710362521   -0.8594438025   -0.3549107291
 C   -2.5689816602   -0.0221697968   -0.0767065099
 H    0.8214774428    1.8498858010    0.1717091490
 H   -0.8891552407    1.8094381316    0.3369316494
 H   -0.2504333185   -2.5879890595   -0.0006788189
 H   -2.6323919818   -3.4071370314   -0.9237976259
 H   -2.3573325841   -3.7412687995    0.7773564647
 H   -4.6142952656   -2.5508970219    0.2111116978
 H   -3.6357411312   -1.8055350883    1.4929814071
 H   -2.7359201063    0.5217761318    0.8743068756
 H   -2.5561094049    0.7263615910   -0.8776663110