25

 C    0.0245041853    1.5328318796    0.1902628807
 C    0.0744803182    0.0079919017    0.0508231824
 C    0.6483815224   -0.4979817658   -1.2860285414
 C    2.1677714631   -0.2621887637   -1.3894116972
 C    2.7548927809   -0.4311247968   -2.7952397141
 C    0.3117859031   -1.9991572076   -1.4858847037
 C   -1.1159069534   -2.2757213764   -1.6099739429
 C   -2.2970465184   -2.4844981159   -1.7228656202
 C   -3.7223231592   -2.7506317286   -1.8616672377
 H    1.0179525322    1.9899151282    0.1424662563
 H   -0.5838280289    1.9796167746   -0.6042015829
 H   -0.4196425220    1.8213833918    1.1482541760
 H    0.6631493524   -0.4202830239    0.8746579973
 H   -0.9406916610   -0.3888043652    0.1616993246
 H    0.1571131096    0.0571315770   -2.0979472728
 H    2.3928623936    0.7524383346   -1.0426735277
 H    2.6797426460   -0.9381636886   -0.6899111836
 H    3.8253280052   -0.2023050977   -2.8006000829
 H    2.6405882594   -1.4508997352   -3.1758247013
 H    2.2678225282    0.2436836211   -3.5079722407
 H    0.8239317458   -2.3758086690   -2.3791388217
 H    0.7262461761   -2.5669345090   -0.6402053300
 H   -3.9122645787   -3.5253252232   -2.6131572184
 H   -4.1603813613   -3.0929583142   -0.9173332057
 H   -4.2680032985   -1.8520894878   -2.1711319423