22

 C    0.0215410229    1.5665185518   -0.0510271218
 C    0.0081049850    0.0371401714    0.0087988198
 C   -1.4103776639   -0.5440483797    0.0126210453
 C   -1.4562094375   -2.0659759513    0.0627658789
 C   -2.8641232642   -2.6513835512    0.1333684766
 C   -2.7819073524   -4.1785963469    0.0417146945
 N   -1.9038340681   -4.6432053471   -1.0293547224
 C   -1.0576393731   -3.8280821290   -1.4946005645
 O   -0.7855390135   -2.5536893786   -1.1219518166
 H    1.0444628370    1.9552896457   -0.0506449668
 H   -0.4722788171    1.9317887372   -0.9583826771
 H   -0.5010169385    2.0042862940    0.8072001754
 H    0.5585632384   -0.3747038938   -0.8434192385
 H    0.5378615211   -0.3005695506    0.9095880644
 H   -1.9659761261   -0.1628184156    0.8796946919
 H   -1.9539808421   -0.2096372852   -0.8805891710
 H   -0.8739016522   -2.4220588742    0.9262563938
 H   -3.3536374896   -2.3342720419    1.0601929491
 H   -3.4551933990   -2.2577703481   -0.7024444270
 H   -2.4266504448   -4.6021433898    0.9910559215
 H   -3.7755735183   -4.6080203940   -0.1270245186
 H   -0.4120699739   -4.1110961330   -2.3247644870