15

 O    0.0503227255    1.4653144904    0.0285044063
 C   -0.0314426259    0.0668180413    0.0407088788
 C   -1.4743764016   -0.4691797070   -0.1777060882
 N   -0.9601922793   -1.1622620608   -1.3705322781
 C   -1.5975738322   -1.9261506803   -2.4123564611
 C   -2.6753288033   -1.1831402509   -3.0839526460
 N   -3.5349458889   -0.5946587690   -3.5825876848
 C    0.3113666122   -0.6407173764   -1.3007135953
 O    1.2596735961   -0.7125802494   -2.0355975935
 H    0.9459557331    1.7054540395   -0.2353559135
 H    0.4769176799   -0.3811884527    0.9052403002
 H   -1.8678898509   -1.1370889095    0.5936547771
 H   -2.1901554879    0.3257778559   -0.4035674311
 H   -0.8203831157   -2.1807886977   -3.1410857014
 H   -2.0130894113   -2.8651076131   -2.0247537695