23

 C   -0.0054731632    1.5126825512    0.1190284174
 C   -0.0691549450    0.0244606973    0.0013347236
 C   -0.0784586798   -0.7565195081   -1.0923334198
 C   -0.0283383388   -0.3852896990   -2.5388423475
 C    0.0034702070   -2.2040663165   -0.6116388459
 C    1.4548879281   -2.4062353470   -0.0609038777
 C    1.4661675972   -1.4992627467    1.2088381247
 C    0.0195775887   -0.9007281294    1.2134731023
 C   -0.7925630065   -2.1117330550    0.7074568096
 H    0.9151874394    1.8319896787    0.6263802099
 H   -0.0354654546    2.0086525492   -0.8550204930
 H   -0.8382681362    1.9016657360    0.7193432403
 H   -0.0480651129    0.6972904806   -2.6914380255
 H    0.8822529101   -0.7718032719   -3.0167364741
 H   -0.8728620265   -0.8174088472   -3.0913908472
 H   -0.3099144096   -2.9598235266   -1.3347623490
 H    1.6292433159   -3.4555872299    0.1974060356
 H    2.2121145415   -2.1192624851   -0.7951935561
 H    1.6464379427   -2.0854509253    2.1155584857
 H    2.2294719636   -0.7179110830    1.1665438709
 H   -0.2789485809   -0.4595035717    2.1666202649
 H   -1.8494540102   -1.8807917168    0.5518609049
 H   -0.6972265600   -3.0007388138    1.3414973161