21

 C    0.2701366467    1.5236634118   -0.2549018749
 C    0.0443595527    0.0376878442    0.0363279834
 N    0.5794868541   -0.8190065764   -1.0437533958
 C    1.8069105956   -1.2788578709   -0.5969310561
 C    2.8005445769   -1.9315483564   -1.5194479545
 O    3.9602486663   -2.3086415185   -0.8288691831
 N    2.0375481336   -1.1715994387    0.6561686373
 C    0.8406870846   -0.5474327700    1.2544523811
 C    1.1987911037    0.4234968368    2.3738797030
 H    1.3350603716    1.7496823606   -0.3692460005
 H   -0.2413136921    1.8128838994   -1.1797586354
 H   -0.1284249389    2.1490467471    0.5491743090
 H   -1.0272972646   -0.1467664160    0.1584679952
 H    0.5270482346   -0.4637387331   -1.9895864257
 H    2.3178602098   -2.8026341481   -1.9925796726
 H    3.0494119231   -1.2334405668   -2.3363239761
 H    3.7808799319   -2.0941743212    0.1011053728
 H    0.2363935662   -1.3585030662    1.6866342030
 H    1.8340462741    1.2371575392    2.0136631982
 H    0.3010031678    0.8571140541    2.8266006495
 H    1.7499017423   -0.1087645309    3.1535367923