16

 C   -0.0204270083    1.4906859955    0.0916069095
 C   -0.0460488627   -0.0145592537   -0.1133454304
 C    0.8543873181   -0.4984819908   -1.2372015147
 O    0.8283007939   -1.9100046381   -1.2906034570
 C    1.3830911022   -2.4678184112   -0.1197571071
 C    0.9637291979   -1.8155393068    1.1960585810
 O    1.2197722592   -2.3215517659    2.2539534998
 O    0.3452128732   -0.6170317330    1.1471568991
 H    0.9987934562    1.8390353513    0.2842950163
 H   -0.4045935207    2.0024098426   -0.7960525313
 H   -0.6432332921    1.7648926588    0.9462822713
 H   -1.0684989939   -0.3540931164   -0.3216068717
 H    0.4854376617   -0.1329275400   -2.1992588026
 H    1.8823616069   -0.1246646917   -1.0927712552
 H    1.0895838111   -3.5187721815   -0.0787500727
 H    2.4851999172   -2.4309310990   -0.1446430242