20

 C   -0.0129744551    1.3558401340    0.1246563845
 O   -0.0027138074   -0.0486407714    0.0247649359
 C    0.6484131597   -0.5111089863   -1.1410672107
 C    0.5434151767   -2.0245090154   -1.1578701108
 N   -0.8107526712   -2.5111789354   -1.3980373091
 C   -0.6917311370   -3.8929987839   -1.8788805612
 C    0.4726257191   -3.7961094573   -2.8728543778
 C    1.3444313075   -2.6836082088   -2.2885616597
 O    2.4540382458   -2.3732481066   -2.6353631944
 H    1.0071002105    1.7698491060    0.1575703053
 H   -0.5441929300    1.8211240065   -0.7204591489
 H   -0.5292170967    1.6146866854    1.0523730604
 H    0.1693306099   -0.0983398222   -2.0431120448
 H    1.7099307515   -0.2184370625   -1.1484796313
 H    0.9828608645   -2.3992464508   -0.2110311016
 H   -1.3977492984   -2.4223584906   -0.5783214786
 H   -0.4402514638   -4.6140194377   -1.0806451649
 H   -1.6271621928   -4.2203986922   -2.3405784997
 H    1.0429831554   -4.7164030331   -3.0120216930
 H    0.1252087318   -3.4624080676   -3.8575928695