18

 C   -0.4104012808    1.2229472967   -0.1693164358
 C   -0.2099605737   -0.2121790852   -0.0443877213
 C   -0.0564262916   -1.4030328873    0.0446472413
 C    0.1581179436   -2.8208211797    0.1383440504
 C   -0.5149539505   -3.6156680556    1.2409516988
 N   -0.9136257775   -3.7643463057   -0.1362668506
 C   -2.1555334859   -3.4633985357   -0.7018831621
 C   -3.3262368517   -4.1405799278   -0.0120476917
 O   -2.2626294790   -2.7826126825   -1.6940255194
 H    0.4886210852    1.7135222219   -0.5579220277
 H   -1.2335413212    1.4434813565   -0.8575509258
 H   -0.6486382065    1.6812099853    0.7968684873
 H    1.1359537841   -3.1647985342   -0.1929470783
 H    0.0046464734   -4.4589683959    1.6896118210
 H   -1.1642571994   -3.0568645102    1.9106406151
 H   -3.6008664530   -3.5812281990    0.8896210241
 H   -4.1804888520   -4.1486106671   -0.6890201189
 H   -3.0745983934   -5.1593181145    0.2941717434