17

 C    0.0982030930    1.5124145444    0.2019870246
 O    1.5144461587    1.4367648243   -0.1464424581
 C    1.2981919227    0.2158317107   -0.9018100666
 C    1.5158953735   -1.2065818722   -0.3459292570
 N    0.7710229942   -0.7648087544    0.8726320413
 C   -0.0369920550    0.0362861067   -0.1590031166
 C   -0.7999265685   -1.0417522649   -0.9246917108
 N   -0.2559207022   -1.2589722066   -2.2887572008
 C    0.3647784046   -1.9560173687   -1.1352225737
 H   -0.0537777268    1.7759586315    1.2514894019
 H   -0.4352133998    2.2062872750   -0.4599915555
 H    1.3882006597    0.3802175819   -1.9710182947
 H    2.4629041486   -1.7360558439   -0.2233184351
 H    0.2114647549   -1.5255705687    1.2624464306
 H   -1.7940617373   -1.3877893135   -0.6657387325
 H   -0.8535446898   -1.9202166175   -2.7832632465
 H    0.2889896495   -3.0353719142   -1.0566114804