20

 C   -0.1504365684    1.5248677713   -0.0287523864
 C    0.0483885368    0.0081462145   -0.0021952695
 C    1.0609777860   -0.5396471269   -1.0523215331
 N    2.0847803461   -1.2350417849   -0.2383005253
 C    1.3196590334   -1.9267206124    0.9007821279
 C    2.5543904609   -1.6741038588    1.7955988909
 O    3.7242271560   -2.3873270368    1.5537964085
 C    2.2946494010   -0.3679476804    1.0108353262
 C    0.7612503180   -0.5179157272    1.2448796181
 H    0.8045199133    2.0522154443    0.0762171016
 H   -0.6046440386    1.8464027870   -0.9719412764
 H   -0.8056830117    1.8567035865    0.7836561245
 H   -0.9275688613   -0.4801307785   -0.1115091229
 H    0.6145428561   -1.2476826426   -1.7567107913
 H    1.5382274746    0.2584404822   -1.6306182516
 H    0.7659457662   -2.8520080794    0.7245282017
 H    2.3836715104   -1.6436637406    2.8727851560
 H    3.8282968574   -2.3834566162    0.5914056185
 H    2.8955365178    0.5431173427    0.9682128591
 H    0.3210987461   -0.3142615140    2.2244391933