25

 C    1.0287455233    1.3643181927   -0.1447355462
 C    0.7274477480   -0.1342791253   -0.0573847818
 C    0.9579493299   -0.7070259464    1.3455458826
 C    0.6661497630   -2.2087203106    1.4672686445
 C    1.7356052005   -3.1133410171    0.7995545738
 C    2.3885288909   -3.3285319323    2.1907306801
 C    1.0858756550   -2.8023728246    2.8514904141
 O   -0.6331708810   -2.5481145881    1.0101780156
 C   -1.7009063901   -2.0285409152    1.7716614181
 H    2.0725642837    1.5769767223    0.1129887493
 H    0.8513689561    1.7483237781   -1.1543114095
 H    0.3979214867    1.9379966040    0.5439291394
 H   -0.3083972784   -0.3257162917   -0.3576905137
 H    1.3517041086   -0.6746192041   -0.7798278553
 H    1.9985080455   -0.5345376677    1.6504134454
 H    0.3446014328   -0.1578479812    2.0728314064
 H    1.2627301257   -4.0219170309    0.4201626909
 H    2.3474367838   -2.6730835141    0.0087579809
 H    2.6943764163   -4.3458220513    2.4423505438
 H    3.2394046807   -2.6638100799    2.3609257504
 H    1.1834089206   -2.1110217624    3.6929241487
 H    0.4177473677   -3.6201989456    3.1343917823
 H   -2.6157639322   -2.4892868928    1.3900603495
 H   -1.6046318775   -2.2752735864    2.8394218311
 H   -1.7984361696   -0.9374425794    1.6780835994