18

 C    0.0585847175    1.6110036808   -0.0870611295
 C    0.0540028737    0.1045541419    0.0087752976
 O   -1.1635625317   -0.4900726161   -0.3700677398
 C    1.2627735032   -0.7473015359   -0.2064861619
 N    2.5662124765   -0.0878330362   -0.2049117045
 C    2.8683015536    0.3608707916    1.1626158492
 C    1.6646749478   -0.0138369140    2.0506708501
 O    1.6163910060    0.1524788150    3.2439000828
 C    0.6431977090   -0.6769124183    1.1886450534
 H    1.0237254513    2.0426470150    0.1810425039
 H   -0.1544284859    1.9166646806   -1.1189336672
 H   -0.7134691675    2.0362561384    0.5604745893
 H   -1.3011948713   -0.2986961611   -1.3052551501
 H    1.1645869953   -1.6288528595   -0.8297047663
 H    3.2674986530   -0.7426644845   -0.5230551578
 H    3.7614026249   -0.1218084995    1.5755729942
 H    3.0393285389    1.4431626399    1.2194927332
 H    0.0065648959   -1.4357394980    1.6246162334