14

 C    0.0725996784    1.3981526602   -0.0466895561
 N   -0.0721514757   -0.0406685246    0.1147621364
 C    0.5900835637   -0.7091658882    1.0910336053
 N    0.7395221970   -2.0229661269    1.1439978075
 N    1.4064684003   -2.1596068593    2.3126961203
 C    1.7927272409   -3.4326642607    2.7999913192
 O    2.3862578177   -3.6044196186    3.8209935626
 N    1.6553869083   -0.9972948479    2.9298691848
 N    1.1536301951   -0.0720406386    2.1803932266
 H    1.0547285402    1.6889113436   -0.4429634587
 H   -0.7028073264    1.7515841501   -0.7292546247
 H   -0.0634732581    1.8871699364    0.9191084914
 H   -0.2642860224   -0.5832859661   -0.7120544167
 H    1.4600170510   -4.2097974595    2.0944968821