22

 O    2.1458961040    0.4236066060   -0.2583949799
 C    1.5105869772   -0.8345487440   -0.1002310379
 C   -0.0113850766   -0.7728448253   -0.2353452898
 C   -0.7387906010    0.4465484978    0.2626585320
 C   -0.5936468811    0.2158729010   -1.2234871514
 N   -0.7614054011   -2.0121729273   -0.1543912968
 C   -0.1392683059   -3.3133938026    0.0625493268
 C   -1.0301674064   -2.7160065178    1.1004600257
 C   -0.4937820437   -2.2743910715    2.4440571328
 H    2.1361570634    0.6443369004   -1.1942787610
 H    1.9072840318   -1.5686424740   -0.8181878878
 H    1.7949648788   -1.1754457119    0.9007562593
 H   -1.7166079556    0.2981593687    0.7061813007
 H   -0.1388307635    1.2336262414    0.7045706155
 H    0.0645747300    0.8810764890   -1.7723497225
 H   -1.4625135449   -0.1262280476   -1.7719955319
 H   -0.4825483982   -4.1163751504   -0.5867338215
 H    0.9190022224   -3.3671787141    0.3098272232
 H   -2.0554038458   -3.0837156461    1.1483172016
 H    0.5715177871   -2.0333548307    2.4142774315
 H   -1.0272412869   -1.3920620052    2.8124575786
 H   -0.6327811740   -3.0748435459    3.1789675429