18

 C   -0.0860000362    1.4776446479   -0.0651169632
 C   -0.0718230465   -0.0183394890   -0.0057705340
 N   -0.3295986303   -0.7901999362   -1.3499621119
 C   -0.3842252373   -1.8843702167   -0.3725827212
 N    0.6410454696   -2.6374738488   -0.3012440769
 C    1.2939175342   -2.2395301181    0.9649766552
 C    0.6739406080   -0.8357583541    1.2065089697
 N    1.0615111598   -0.0045277173    2.3025147811
 C   -0.7670031431   -0.9989780628    0.8564405768
 H    0.6663361608    1.8391392933   -0.7731565906
 H   -1.0646604769    1.8498045241   -0.3908505236
 H    0.1319490490    1.8803594168    0.9264486653
 H   -1.2779233258   -0.4699429435   -1.5810423875
 H    1.1106984831   -2.8895681093    1.8363976707
 H    2.3742185131   -2.2335025805    0.7765931847
 H    0.8512542162   -0.4511645905    3.1906491438
 H    2.0596892974    0.1815704636    2.2832678961
 H   -1.6616318251   -0.9676860290    1.4674595256