15

 O    0.0061604967    1.3517471847    0.4882631510
 C    0.0131453900    0.0742722707   -0.1301320823
 C   -1.3717672115   -0.4899019051   -0.0423406703
 C   -1.7549223591   -1.8097231998    0.0592825507
 O   -3.1200813885   -1.8949522835    0.0652203430
 C   -3.5923322495   -0.6385086228   -0.0248705148
 C   -2.5769183776    0.2683003275   -0.0971504316
 C   -0.9853248738   -3.0353931314    0.1645008292
 O   -1.4450294386   -4.1543055329    0.2308330422
 H    0.8614492765    1.7629022196    0.3314392197
 H    0.3040595833    0.1540940286   -1.1905799218
 H    0.7344704022   -0.6034144811    0.3494275133
 H   -4.6663611621   -0.5403687681   -0.0221373850
 H   -2.6593347096    1.3405323860   -0.1616616842
 H    0.1122312117   -2.8561746925    0.1826191511