25

 C   -0.6639682824    1.6640495628   -0.0824080126
 O   -0.4217932727    0.2959748403    0.1710652768
 C   -1.5705459891   -0.5570724092    0.0701691257
 C   -1.9792565578   -0.7749343958   -1.3886788092
 C   -1.2258907286   -1.8811429464    0.7595082816
 C   -0.7328764648   -1.7956896803    2.2248009326
 C   -1.6922455200   -0.9848613871    3.1150061709
 C   -0.5712542042   -3.2123886002    2.7855361633
 O    0.5697777866   -1.2158596783    2.2715559478
 H    0.2602503615    2.2011906022    0.1433672589
 H   -0.9290041612    1.8530689518   -1.1310702685
 H   -1.4691494830    2.0566142107    0.5568268345
 H   -2.4037122907   -0.0723109705    0.6033451399
 H   -2.8429813656   -1.4447847008   -1.4426697002
 H   -2.2588922561    0.1618622631   -1.8786963806
 H   -1.1557172452   -1.2263073745   -1.9507070178
 H   -2.1193426713   -2.5152929615    0.7136975189
 H   -0.4441066800   -2.3854125629    0.1784612421
 H   -2.7113756958   -1.3874532972    3.0908173268
 H   -1.3372813213   -1.0076658144    4.1491659886
 H   -1.7294142414    0.0630002040    2.8027684777
 H    0.0830014437   -3.8065589898    2.1407800730
 H   -0.1137625769   -3.1640467846    3.7779275393
 H   -1.5366014614   -3.7210956168    2.8712652323
 H    0.5455768177   -0.4596041348    1.6693352280