17

 C    0.0046230523    1.4866024237    0.0686396683
 N   -0.0421575735    0.0425606851    0.0005030460
 C   -0.0173770950   -0.7052085229   -1.1463361433
 C    0.0256971857   -2.0394933362   -0.8125120111
 C    0.0326483063   -2.0970145116    0.6095399816
 N    0.0591273239   -3.2405877272    1.4236552964
 C    0.0924234476   -4.5407568978    1.0127611049
 O    0.1034398510   -4.9297276001   -0.1353375491
 C   -0.0058886748   -0.8012066701    1.0859643036
 H    1.0186629150    1.8531867069    0.2677369828
 H   -0.3356647259    1.9024593770   -0.8818438378
 H   -0.6588153218    1.8488960420    0.8591916059
 H   -0.0328475529   -0.2252738160   -2.1121160000
 H    0.0363965345   -2.8840460053   -1.4773745489
 H    0.0545688066   -3.0878024938    2.4202020802
 H    0.1089322483   -5.2271418904    1.8830130719
 H   -0.0122114471   -0.4156661933    2.0931302386