22

 C    0.0623811168    1.3850683409   -0.3092244858
 C   -0.0084055478   -0.0884871125    0.1207520474
 C    0.6864405537   -0.3187136239    1.4708135873
 C   -1.4355393097   -0.5659799377    0.1421609347
 C   -2.5612066401   -0.2030595884    1.1201231955
 C   -3.3770982261   -1.3280393919    0.4297352648
 C   -3.5312772052   -0.7826128000   -0.9972903968
 N   -2.0500193613   -0.9137338575   -1.1960294258
 C   -2.0076639802   -1.9163839137   -0.0874765380
 H    1.1014348670    1.7226751295   -0.3789289147
 H   -0.4115005657    1.5243011092   -1.2847956724
 H   -0.4482220654    2.0319163472    0.4138712876
 H    0.5069387312   -0.6874450524   -0.6408250194
 H    0.2196766418    0.2757935879    2.2643776798
 H    0.6416514885   -1.3711040764    1.7692268197
 H    1.7399654063   -0.0264384083    1.4175835341
 H   -2.2830037515   -0.4707837858    2.1426451364
 H   -2.9820039771    0.8089822328    1.1037204515
 H   -4.1739738689   -1.8499091567    0.9565398794
 H   -4.0310678446   -1.4741802135   -1.6808538047
 H   -3.9384109722    0.2278223428   -1.1275896049
 H   -1.5810235793   -2.9072589416   -0.1784376653