13

 C   -0.0294687391    1.4977389561    0.0054573556
 C   -0.0121919004    0.0069750766   -0.0449147899
 N   -0.0342218881   -0.7189936224   -1.1352575001
 C   -0.0045924889   -2.0083116752   -0.6583537842
 N    0.0343068987   -2.1329241182    0.6448073584
 N    0.0296056000   -0.8256818825    1.0561284691
 C    0.0637466592   -0.4648470059    2.4142963007
 O    0.0992956027   -1.2393205933    3.3237022514
 H    0.8642423708    1.8992433348    0.4938177549
 H   -0.0620310640    1.8687555451   -1.0192196341
 H   -0.9051394947    1.8770105370    0.5419322765
 H   -0.0123831001   -2.8697733799   -1.3098142303
 H    0.0532190239    0.6327435180    2.5286518220