20

 C   -0.4702019156    1.4700804450    0.0915556289
 C    0.0005305972    0.0174524732    0.0964351371
 C    0.6868685349   -0.4456597043   -1.2097270103
 C    1.5983841325   -1.6409581783   -0.8214338695
 C    1.5206752815   -1.7273762203    0.7352887450
 C    2.7730889638   -2.0977684720    1.3810183654
 N    3.7729993969   -2.3329555142    1.9131191093
 C    1.0374507459   -0.3160589093    1.1783040046
 O    2.0803504725    0.6346929078    1.0982304938
 H    0.3776259252    2.1478374761   -0.0336744796
 H   -1.1765764739    1.6442813306   -0.7263794042
 H   -0.9743176217    1.7283621576    1.0285911569
 H   -0.8621246392   -0.6356401622    0.2872382130
 H   -0.0447122790   -0.7145891300   -1.9761004721
 H    1.2926206124    0.3709284885   -1.6116187140
 H    1.2747393490   -2.5835107720   -1.2682636673
 H    2.6282177512   -1.4713937668   -1.1396801844
 H    0.7585724999   -2.4569933433    1.0318271250
 H    0.6016983235   -0.3431812519    2.1871474101
 H    2.7789099530    0.3777047360    1.7111740622