19

 C    0.3137792312    1.7514872040    0.1795536341
 C    0.1127777190    0.2392897197    0.3109272712
 C    0.2942627904   -0.4849956340   -1.0341893380
 O    1.6137669990   -0.3502217252   -1.5432686094
 N    0.9866505402   -0.3744934337    1.3332246190
 C    0.4971066070   -1.4324698818    2.0980466550
 N   -0.6788252587   -1.8865156930    1.9291054938
 C    2.3115030622    0.0008541474    1.5007180379
 O    3.0857453370   -0.5304065165    2.2655744736
 H    1.2307940159    1.9981258718   -0.3606556875
 H   -0.5218961466    2.1684939787   -0.3899793566
 H    0.3315536161    2.2388831724    1.1581359959
 H   -0.9036972188    0.0372344154    0.6567708825
 H    0.0082302730   -1.5372258422   -0.9217319931
 H   -0.3778484821   -0.0315437576   -1.7712015571
 H    2.1489130058   -1.0636611710   -1.1845508849
 H    1.2399549952   -1.7833796149    2.8153157981
 H   -0.8591372329   -2.6419058912    2.5875216360
 H    2.5940302572    0.8440970516    0.8551933796