18

 C    0.6101853699    1.5552572353   -0.2530069386
 O    0.6533437994    0.1770985941    0.0235440766
 C   -0.2243947912   -0.5723089431   -0.7861215393
 C   -0.0956311303   -2.0380688930   -0.3900832944
 N   -1.0009631032   -2.8525834815   -1.1892849038
 C   -0.4573433280   -3.3985825783   -2.4302843388
 C   -0.7002277188   -4.2769048852   -1.2533559430
 H    0.9007817705    1.7735212365   -1.2933646294
 H   -0.3943732075    1.9754800014   -0.0850650467
 H    1.3156956060    2.0480861539    0.4206085783
 H   -1.2673994059   -0.2422662325   -0.6536345847
 H    0.0241449677   -0.4434798303   -1.8538192089
 H    0.9599059528   -2.3473716199   -0.4906538009
 H   -0.3681314584   -2.1470820797    0.6654500392
 H   -1.1337368035   -3.4114736466   -3.2800428031
 H    0.5799932111   -3.1739477322   -2.6756412017
 H    0.1749040651   -4.6385210688   -0.7154169129
 H   -1.5578106757   -4.9432292000   -1.2268783279