20

 C   -0.3857915066    1.4146985959    0.0584606683
 C    0.0070401373   -0.0402935293    0.0414579184
 N    1.4029205864   -0.3475290533   -0.2817444644
 C    0.8974120881   -0.6476099201    1.0856222669
 C    1.4371792041    0.1035834531    2.1842487935
 C    1.8680562507    0.7111648510    3.1336931248
 C    2.3997189645    1.4291654161    4.2547961732
 C    1.9700740903    2.8635421929    4.5229551224
 C    1.5087038889    1.7710064454    5.4401884967
 H    0.4082934490    2.0187951002    0.5021113483
 H   -0.5664522391    1.7755496203   -0.9596146184
 H   -1.3024707266    1.5615080265    0.6396421401
 H   -0.7519621051   -0.7157591918   -0.3529096504
 H    1.4666366251   -1.2147157427   -0.8091846428
 H    0.7034749682   -1.6954847128    1.3091459084
 H    3.4329418008    1.1978200827    4.4983033163
 H    2.7314527563    3.5506327274    4.8744436607
 H    1.2484199506    3.2957606178    3.8403823144
 H    0.4728389085    1.4591471328    5.3819225026
 H    1.9496818085    1.7003891980    6.4281307410