23

 C   -0.7154353834    1.4247661933    0.8042551376
 C   -0.0840202261    0.2076506364    0.1180521338
 C    0.9041308468   -0.5145192221    1.0183719998
 C    0.4177240122   -1.5024570635    2.0379938877
 C    1.2494870580   -1.9802239800    0.8545969531
 C    0.6582345754   -2.8982576457   -0.1890188040
 O    0.7150257039   -4.2619447595    0.2086634545
 O    1.9501273018    0.2928243928    1.5013078864
 C    2.9215411631    0.6403460370    0.5335064226
 H    0.0535723398    2.1300592060    1.1296982611
 H   -1.3978688608    1.9465432941    0.1268015610
 H   -1.2823805803    1.1231988263    1.6911245974
 H   -0.8665030991   -0.4928170814   -0.1898987967
 H    0.4178288218    0.5215207076   -0.8060394702
 H    0.8872713412   -1.4775092675    3.0142402600
 H   -0.6437640128   -1.7346945420    2.0436457042
 H    2.2818908133   -2.2159015881    1.0996024453
 H   -0.3753125077   -2.6015995778   -0.4254418023
 H    1.2306577142   -2.8436438705   -1.1216797864
 H    0.3077809129   -4.3189052162    1.0798028403
 H    3.3401344776   -0.2491719087    0.0414977127
 H    2.5221646233    1.3100525503   -0.2409275000
 H    3.7219682048    1.1623767291    1.0633267222