20

 C    0.0436083283    1.4894609121   -0.1220487113
 C   -0.0253757829   -0.0064691733    0.0488782925
 C   -1.2972990560   -0.7379761992   -0.3861230492
 C   -1.2251470091   -2.1292778482    0.2812592442
 C   -0.3266961773   -1.9210082047    1.5017825065
 C   -0.7154638409   -2.2790693408    2.8719711114
 O    0.2195950551   -3.0781849133    2.1402182746
 C    0.5620996316   -0.7486016674    1.2050345733
 N    1.2412596220   -0.7351991826   -0.1039964177
 H    0.9993653725    1.8732649816    0.2422916235
 H   -0.0459349465    1.7629738121   -1.1798692438
 H   -0.7671801266    1.9861884940    0.4222854247
 H   -2.1667485635   -0.1802941847   -0.0188950981
 H   -1.3920360360   -0.7938245951   -1.4765200842
 H   -2.2069385579   -2.5251897278    0.5494177874
 H   -0.7608802318   -2.8683124368   -0.3806682627
 H   -0.3002841051   -1.7319971094    3.7182855114
 H   -1.6865586085   -2.7396990445    3.0520720989
 H    1.0996154924   -0.2705483082    2.0185757505
 H    1.1248579101   -1.6223862137   -0.5884200820