15

 C    0.0187842766    1.5172575821   -0.0563618794
 C   -0.0105819758    0.0048558951    0.0249292013
 O    0.6621836297   -0.5000056983   -1.1567209844
 C    0.7581443256   -1.8125660376   -1.3005257342
 C    1.4068119832   -2.3256191076   -2.4396010324
 N    1.5119337415   -3.6221427967   -2.6001730300
 N    0.9900473518   -4.4362050338   -1.6595128666
 N    0.3921479950   -3.9564438775   -0.6099403070
 N    0.2589664910   -2.6404298235   -0.4000217502
 H    1.0469227064    1.8885184252   -0.0781129581
 H   -0.4974325349    1.8713001909   -0.9527800898
 H   -0.4820865138    1.9391059294    0.8196656505
 H    0.5071570375   -0.3744930209    0.9108668264
 H   -1.0302130578   -0.3912391479    0.0427598578
 H    1.8288251041   -1.6750251488   -3.2001920638