12

 C   -0.0659793778   -1.2032997062    0.0209789948
 C   -0.0315670371   -0.0037312307    0.0037225825
 C    0.0009095963    1.4355681217   -0.0354148074
 O    0.5093864100    2.0941298086    1.1449778095
 C    1.3198004054    2.1566534217   -0.0159415452
 C    2.5675807039    1.4264019607   -0.0008769429
 N    3.5798543482    0.8698043775   -0.0171426192
 C   -1.1127928683    2.0842802519   -0.6831189321
 C   -2.0368047496    2.6208355210   -1.2305442616
 H   -0.0881465139   -2.2656833501    0.0421132574
 H    1.3650699182    3.1280204222   -0.5045617572
 H   -2.8596332053    3.0928298018   -1.7098474985