18

 N   -0.1501787581    1.2808242973    0.0101548381
 C   -0.0329726916    0.0136422490    0.0196951315
 C    1.1729543088   -0.9511106302    0.0288084758
 N    0.6319813833   -2.3242309451    0.0361934313
 C   -0.6351278125   -2.1666217071    0.0286048695
 C   -1.8172387169   -3.0943881062    0.0086115096
 C   -2.9874327595   -2.1644788899    0.4330778635
 C   -2.5434095673   -0.7301498304    0.0329065175
 N   -1.1016346469   -0.8605863422    0.0269628849
 H    0.7677650420    1.7238366454    0.0152430084
 H    1.8034447051   -0.7918746888   -0.8540239588
 H    1.8053321185   -0.7806704575    0.9081402551
 H   -1.9583799810   -3.4775364325   -1.0085789582
 H   -1.6805717101   -3.9547472061    0.6655235052
 H   -3.9375205808   -2.4436575519   -0.0256142534
 H   -3.1172163650   -2.2123582385    1.5181546396
 H   -2.9155672607   -0.4416863302   -0.9584970811
 H   -2.8666832970    0.0339848850    0.7444361515