21

 C   -0.0960360636    1.3409314365   -0.0361723894
 O   -0.0639558070   -0.0649064366   -0.0610016077
 C    0.7433927733   -0.5775741550   -1.1015358008
 C    0.6673294741   -2.0945717884   -1.0702615382
 C   -0.7576275558   -2.6676806335   -1.3736697743
 C   -0.3859887389   -3.4698875086   -2.6368430025
 C    0.9009418025   -4.2217883580   -2.2311156730
 C    1.3914071675   -2.7592697212   -2.2671743368
 O    0.4565999817   -2.5180866180   -3.3675229026
 H    0.9051437075    1.7714111296    0.1278523189
 H   -0.4956507704    1.7584239600   -0.9741510799
 H   -0.7468586709    1.6405746150    0.7891961376
 H    0.3953228460   -0.2117153516   -2.0806966205
 H    1.7878620471   -0.2412544642   -0.9734459533
 H    1.0602669934   -2.4529935017   -0.1137794076
 H   -1.1552539390   -3.2918643282   -0.5696677924
 H   -1.4804722573   -1.8783913849   -1.5886031316
 H   -1.1781883569   -3.9141421576   -3.2392745405
 H    0.9252958887   -4.7733153003   -1.2873710489
 H    1.3104059035   -4.8085957087   -3.0536970852
 H    2.4207300447   -2.4731060945   -2.4873484513