20

 C   -0.1859921534    1.4448847446   -0.0933229852
 C    1.2535790767    1.0693481901    0.1550805160
 C    0.2029241461   -0.0073163122    0.0298866973
 C   -0.2150739870   -0.8202336233    1.2304587958
 C   -1.5965104782   -1.4931427737    1.1213761706
 C   -1.4987289828   -2.6168997664    2.1601881840
 O   -0.1125559836   -2.9475980114    2.2810555092
 C    0.6714790492   -2.0437146105    1.5117341709
 H   -0.7403442674    1.8918519417    0.7256346849
 H   -0.4587207482    1.8253529624   -1.0713736805
 H    1.9663973003    1.1926752541   -0.6525958563
 H    1.6635713574    1.2647044994    1.1406856567
 H    0.2153490156   -0.5729342875   -0.8997366294
 H   -0.2071858699   -0.1741575970    2.1188915180
 H   -2.4276750783   -0.8095767839    1.3104972569
 H   -1.7260193727   -1.9072107985    0.1144869348
 H   -1.8746622648   -2.2898340338    3.1404960006
 H   -2.0596523695   -3.5134864711    1.8702747362
 H    0.9818432533   -2.5154450358    0.5643609129
 H    1.5773829874   -1.7989361373    2.0763174866