11

 C   -0.0132505638    1.4542089373   -0.0093912691
 C   -0.0188419646   -0.0005447046    0.0273082870
 C   -0.0309750140   -1.2033578806    0.0545335863
 C   -0.0224057055   -2.6594703816    0.0971521433
 O   -1.2571224304   -3.1627343740   -0.4025761045
 H    0.7956526635    1.8359013380   -0.6420392243
 H   -0.9571150473    1.8378734084   -0.4120147777
 H    0.1165420126    1.8797368918    0.9917763014
 H    0.8273109114   -3.0335583063   -0.4976264596
 H    0.1486375892   -2.9897636084    1.1351177457
 H   -1.2123139611   -4.1233420300   -0.3581831386