19

 C   -0.0083668714    1.5354186692    0.0199988173
 C   -0.0123442011    0.0073260830   -0.0086632040
 O   -1.3376567529   -0.4978952725   -0.0871661871
 C    0.9290115842   -0.5506473487   -1.1544257550
 C    2.2914070150   -0.6444349079   -0.4760372521
 C    2.0956988058   -0.7504130227    0.8335709062
 C    2.4966193153   -0.2469937575    2.1963044160
 O    1.1174030797    0.2048421387    2.3846671640
 C    0.6712994431   -0.6009637550    1.2378676969
 H    1.0078856540    1.9279570064    0.1045561607
 H   -0.4478778604    1.9294436300   -0.9044616444
 H   -0.5885945664    1.9002172204    0.8706196713
 H   -1.7886340670   -0.0471701671   -0.8084475076
 H    0.5427219751   -1.5192240545   -1.4950104915
 H    0.9493870593    0.1139090901   -2.0263185950
 H    3.2326653638   -0.5141364835   -0.9971150224
 H    2.7605202890   -1.0111685828    2.9387522129
 H    3.2223278113    0.5722456588    2.2375489461
 H    0.1143817036   -1.4784659743    1.5885388974