19

 C   -0.0405039123    0.6004133535    0.2871893131
 O   -0.2269876153    0.3529472558   -1.0935795272
 C    0.7680811443   -0.4965332271   -1.6517758840
 C    0.6860932971   -1.9184149006   -1.1853287574
 N    1.6502045226   -2.5647033349   -0.5571534811
 C    1.1633906352   -3.8285574339   -0.3353699570
 C   -0.1104953817   -3.9416286017   -0.8269597539
 N   -0.4145985262   -2.7138800614   -1.3696256823
 C   -1.6500635561   -2.3551620931   -2.0460889283
 H   -0.0666338099   -0.3234203717    0.8806272547
 H    0.9199581466    1.1027194761    0.4757609394
 H   -0.8543504855    1.2559986856    0.6056336185
 H    0.6246592935   -0.4251275182   -2.7359065102
 H    1.7789794378   -0.1390510437   -1.4149177452
 H    1.7494992583   -4.5795844817    0.1722573370
 H   -0.8213023353   -4.7521110123   -0.8365848230
 H   -2.4838226729   -2.8958322830   -1.5925376039
 H   -1.8191521195   -1.2841817477   -1.9318197120
 H   -1.6093379707   -2.6066509500   -3.1117656572