21

 C    0.0152369356    1.4705754417    0.2527929726
 C   -0.0597948296   -0.0189759110   -0.1008917854
 C    0.7555139620   -0.4167363963   -1.3097558085
 O    0.8334628655   -1.8674377538   -1.4699242119
 C    2.2841871899   -1.8337699609   -1.4728777235
 C    2.2916652216   -0.2956092537   -1.4447014535
 C    2.0929511013    0.4674965532   -2.7746050713
 C    1.2623795735   -0.2976026834   -3.7668928946
 C    0.5635935476    0.3791200740   -2.6262432637
 H    1.0471893767    1.7820484749    0.4467110351
 H   -0.3761994072    2.1020189743   -0.5501987183
 H   -0.5685062850    1.6805629112    1.1536984720
 H    0.2789346437   -0.6229230287    0.7486957483
 H   -1.1028233528   -0.3088912584   -0.2881568596
 H    2.6915780095   -2.3020411084   -0.5679406510
 H    2.7119445290   -2.3251022512   -2.3546172071
 H    2.9009400804    0.2108996210   -0.6970730998
 H    2.6932635209    1.3162992437   -3.0785619228
 H    1.1443171250    0.1939490136   -4.7274674836
 H    1.2839508995   -1.3801963394   -3.8196282986
 H   -0.1904693470    1.1408279776   -2.7867460850