20

 C    0.0261918725    1.4785820452    0.1579011321
 N   -0.0610108392    0.0363661018    0.1535973868
 C   -1.3414601795   -0.5956708586    0.5294951917
 C   -0.5352049784   -1.7057690902    1.2228814064
 C    0.6537166457   -0.7219847773    1.2011717489
 O   -1.0695969941   -2.0825895226    2.4897050624
 C   -0.3659793446   -3.0201747083    3.1661040480
 C   -1.0490417215   -3.3648360632    4.4668412854
 O    0.6627184139   -3.4987337499    2.7610776567
 H    1.0544399198    1.7879356477   -0.0573597595
 H   -0.6186815884    1.8922356153   -0.6248571104
 H   -0.2732278293    1.9305747481    1.1233658192
 H   -1.9173795640   -0.0202966994    1.2729964775
 H   -1.9947602778   -0.8645812343   -0.3066072702
 H   -0.3654436645   -2.5951729105    0.6156506777
 H    1.6377769443   -1.1043424898    0.9184581918
 H    0.7287631120   -0.1833205836    2.1606126955
 H   -1.1987058419   -2.4619943826    5.0652279046
 H   -2.0372689420   -3.7898553329    4.2680222569
 H   -0.4414424932   -4.0825326950    5.0164817886