12

 O   -0.0352440954    0.3479519407   -0.9274303643
 C    0.0045037244    1.2553057445   -0.1622387464
 O   -1.1992911286    1.7090495562    0.4162422923
 C   -1.5677140528    2.9963244739    0.2956067341
 C   -0.8473536676    4.0656392544   -0.0965882046
 C    0.6014170410    4.1753193351   -0.2604814923
 O    1.1579289141    5.1696602812   -0.6859505678
 C    1.4455603438    3.0541456959    0.2973778992
 N    1.1593516563    1.8176845425    0.3521516050
 H   -2.6218967425    3.0972984249    0.5341907971
 H   -1.3877536594    4.9975318690   -0.2207686932
 H    2.4122701667    3.3763044917    0.6892605808