18

 C    0.3799678674    1.5259435630   -0.0288214173
 C   -0.0685129717    0.1070843805    0.0783247633
 C   -1.4884529067   -0.4629758141   -0.0879642838
 C   -1.0984818572   -1.6375442211    0.8734326674
 C    0.3066536355   -0.9933645129    0.9795775919
 O    0.8367441650   -0.9327208563   -0.3451201478
 C   -1.8504947950   -1.6067553109    2.1952418497
 N   -1.9759567487   -2.8181899899    2.8100728948
 O   -2.2652647282   -0.5769330595    2.6950594849
 H    1.4196221379    1.6237188907    0.2947034570
 H    0.3099389741    1.8788346245   -1.0640727311
 H   -0.2466969977    2.1726532009    0.5929460878
 H   -2.2518683393    0.1667646937    0.3715112222
 H   -1.7674252364   -0.7392296750   -1.1071242554
 H   -1.0808315570   -2.6373182719    0.4309480605
 H    1.0082620370   -1.0449999642    1.8051440447
 H   -1.6891200989   -3.6759452188    2.3735054723
 H   -2.4571850401   -2.8582464487    3.6937124390