19

 C   -0.0427916008    1.5754820841    0.0387860277
 C    1.4933554204    1.9029027844    0.0151278874
 C    1.9221073699    1.7232471160    1.4621613297
 C    1.8417893413    0.4183115584    1.7440764737
 C    1.4608839299   -0.3036577156    0.4767762300
 C   -0.0046157517    0.0070695384   -0.0395305916
 C    0.1530907879   -0.2755429967   -1.5245468606
 C    1.3777228659    0.1273438532   -1.8805553679
 C    2.0911436931    0.5871996124   -0.6347867006
 H   -0.5061041367    1.9436315631    0.9571424125
 H   -0.5797429764    1.9958099184   -0.8147817556
 H    1.7555970012    2.8463352509   -0.4624602797
 H    2.1016011178    2.5377992285    2.1538796232
 H    1.9761090190   -0.0547066672    2.7088239004
 H    1.7012409625   -1.3663378495    0.4180675555
 H   -0.8211408640   -0.4994435351    0.4739450008
 H   -0.6506644179   -0.5979945102   -2.1758456064
 H    1.7905586475    0.1690526856   -2.8807315911
 H    3.1818182211    0.6006647410   -0.6622671774