15

 O    0.0084185569    1.3857414776    0.2041065998
 C   -0.0162700218   -0.0221365109    0.2079982186
 C   -1.3875016237   -0.5795334619   -0.1486697429
 C   -1.5088094658   -2.1224963096   -0.0559717715
 N   -2.4542658122   -2.3750590050    1.0436392371
 C   -2.8224201615   -1.2296989893    1.4463240499
 O   -2.3403452087   -0.1073976344    0.8589980404
 C   -3.7538185134   -1.0083505209    2.5179027062
 N   -4.4997176842   -0.8204581163    3.3793028654
 H   -0.6443932894    1.6847251556    0.8472482387
 H    0.7070146472   -0.3565588129   -0.5442695792
 H    0.2960995606   -0.4411634267    1.1790095868
 H   -1.7216389079   -0.1691798253   -1.1046819611
 H   -1.8907339714   -2.5771659968   -0.9746958478
 H   -0.5497397044   -2.6016062532    0.1723754296