20

 C    0.5423527036    0.8928256600    0.3826719188
 C   -0.0875236509   -0.2554891982   -0.3758632393
 O    0.4835845782   -0.7385660694   -1.3349131261
 C   -1.4690997463   -0.7913076695    0.0643848591
 C   -2.0401974190   -0.0950331727    1.3060880748
 C   -2.4338272905   -0.5904101691   -1.1362098932
 C   -1.3831883482   -2.3230339969    0.3617024157
 N   -0.8205849092   -3.0766652824   -0.6191840040
 O   -1.8541793750   -2.7929114995    1.3795000441
 H    1.5097799692    1.1254074283   -0.0629130354
 H   -0.1007711439    1.7783675162    0.3517743223
 H    0.6690368113    0.6348892122    1.4389044090
 H   -2.1736939252    0.9761136647    1.1297688398
 H   -3.0110417352   -0.5285815610    1.5501815375
 H   -1.4045550756   -0.2341349248    2.1831596404
 H   -2.0367487252   -1.0443703687   -2.0449857956
 H   -3.4040139290   -1.0421537668   -0.9111138195
 H   -2.5919488206    0.4770376426   -1.3228876268
 H   -0.2497321490   -2.6212724868   -1.3177086813
 H   -0.6719082997   -4.0514492281   -0.4119609403