23

 C    0.0315394751    1.6662893521    0.0457308018
 C   -0.1918094967    0.1552488217   -0.0863579175
 C    0.5860572354   -0.5029105139   -1.2295206495
 C    0.2586630007    0.1178594372   -2.5972914432
 O    1.9893839061   -0.3585631384   -0.9390404116
 C    2.6607120597   -1.3836511824   -1.6267958704
 O    1.7258051184   -2.4129718309   -1.9000341683
 C    0.4713874585   -2.0480492924   -1.3127246851
 C    0.2675291003   -2.7933552990    0.0030490573
 H    1.0976377040    1.8900973340    0.1384018981
 H   -0.3582783900    2.2183849424   -0.8143462410
 H   -0.4751261906    2.0480360449    0.9371740343
 H    0.1010598009   -0.3273392858    0.8502108508
 H   -1.2593348253   -0.0534180651   -0.2312655011
 H    0.6158982411    1.1486670139   -2.6504993834
 H    0.7314398145   -0.4511077401   -3.4026687450
 H   -0.8219118279    0.1159189967   -2.7741187345
 H    3.0758928371   -1.0302567697   -2.5846639291
 H    3.4777686792   -1.7468057502   -0.9879549104
 H   -0.3082972187   -2.3380549871   -2.0261223649
 H    1.0130314889   -2.4961252682    0.7463291038
 H   -0.7297263695   -2.6128746984    0.4162490257
 H    0.3739914686   -3.8668725912   -0.1750865568