23

 C    0.0152258765    1.5341847744    0.2112617989
 C   -0.1228994490    0.0103641306    0.2316537780
 C   -1.4421466932   -0.4823376050   -0.3746098359
 O   -1.6047396698   -0.0722684389   -1.7313551854
 C   -1.5560363354   -1.9922876196   -0.2801430885
 O   -1.7088519187   -2.5667874338    1.0214222904
 C   -2.7712162825   -2.7540245078    0.0607053659
 C   -4.0825337869   -2.0798017884    0.3978593552
 C   -2.9013612354   -4.1746554824   -0.4480950986
 H    0.9876243687    1.8485622609    0.6015949261
 H   -0.0889701167    1.9196158513   -0.8066440598
 H   -0.7599010490    2.0065879855    0.8246646260
 H    0.7098839080   -0.4508668329   -0.3210000446
 H   -0.0576088026   -0.3717255225    1.2567534405
 H   -2.2728732164   -0.0136934145    0.1614976313
 H   -0.8401724318   -0.3886306937   -2.2261892908
 H   -0.8164392706   -2.5083811561   -0.9038220458
 H   -3.9332063939   -1.0992313108    0.8514341586
 H   -4.6958561760   -1.9588692705   -0.5012582420
 H   -4.6464336537   -2.6946479332    1.1079034868
 H   -3.4075590089   -4.8018753892    0.2938566110
 H   -3.4919848295   -4.2036403474   -1.3701240066
 H   -1.9191523332   -4.6094682060   -0.6490622807