20

 C   -0.0944503366    1.4685299011   -0.1897581134
 C    1.2828690955    0.9085263921    0.0635359079
 C    0.0847213824   -0.0138611600    0.0360654051
 C   -0.3854414592   -0.6903406631    1.2753273776
 C   -0.3722127825   -2.1889137468    1.4258656592
 C   -1.6847806441   -1.4640855048    1.5588402772
 C   -1.7849697925   -0.8321042857    2.9490821622
 C   -0.4535724576   -0.0566326647    2.6765021583
 H   -0.5533864748    2.0580687535    0.5965947881
 H   -0.3398556885    1.8042056913   -1.1914413128
 H    1.9892983969    0.8664767717   -0.7581603947
 H    1.7361466878    1.1116226407    1.0281933712
 H   -0.0068802197   -0.6305270873   -0.8547261209
 H   -0.2378871538   -2.7418935350    0.5008616847
 H    0.0877446354   -2.6601197938    2.2934211753
 H   -2.5170649589   -1.6679926785    0.8948754746
 H   -2.6372175646   -0.1575631312    3.0572538305
 H   -1.7839338474   -1.5294708646    3.7940217044
 H    0.3917400956   -0.2740886301    3.3382152215
 H   -0.6079589234    1.0248207154    2.6593572840