17

 C    0.0163448535    1.3960498470    0.0620828880
 N    0.0271275290   -0.0410485283    0.0373276938
 C    0.0056964060   -0.9375300325   -1.0057740056
 O   -0.0281184422   -0.7824055092   -2.1989039699
 C    0.0419728386   -2.1333769417   -0.0201058680
 C    0.0631073674   -1.0562571644    1.0760466773
 C    0.8593726083   -0.9999238731    2.3399919006
 C   -0.6654557688   -1.0118120001    2.3807520514
 H    0.9173529986    1.8010012571    0.5393599939
 H   -0.0150397118    1.7402107619   -0.9744088368
 H   -0.8633131791    1.7867284559    0.5885483618
 H   -0.8484551038   -2.7645234733   -0.0475571005
 H    0.9398723545   -2.7498171532   -0.0961685679
 H    1.3935910219   -1.8914388927    2.6514228456
 H    1.3572268251   -0.0704175116    2.5967975490
 H   -1.1630114313   -0.0898206387    2.6638808068
 H   -1.1684677059   -1.9112536631    2.7200456707