13

 N   -0.0163835411    1.3423824916    0.1660630370
 C    0.0308388296   -0.0236265793    0.0544107344
 N   -1.1551397615   -0.6886612914    0.0548218340
 H   -2.0368200475   -0.2032118629    0.1548934552
 C   -1.2196450147   -2.0828115928   -0.0043709080
 N   -2.3677722784   -2.6447155860   -0.0066785159
 C    0.1202633384   -2.6612031631   -0.0386777701
 N    1.2204852074   -1.9824245873   -0.0240493692
 N    1.2007685167   -0.6106459453    0.0018939422
 H    0.8848645957    1.7701050642    0.0072581891
 H   -0.7854883448    1.8196128322   -0.2800654537
 H   -2.2645828899   -3.6572984897   -0.0456224646
 H    0.2071204600   -3.7442464803   -0.0699631704