22

 C   -0.0770850643    1.5026197339    0.0737623850
 C   -0.0404020041   -0.0151776416    0.0505272906
 C   -1.2739397499   -0.6354495542   -0.5816179127
 C    1.3056590437   -0.6859704988   -0.1792946381
 C    0.6661739078   -0.7273890354    1.1911846714
 O    1.1929297315    0.1234789039    2.1834781649
 C    0.1435295856   -2.0243671593    1.7447717834
 C    0.7135739693   -2.6112358674    2.9835050018
 N   -0.6384894002   -2.0211919645    2.9908491614
 H    0.7941062915    1.9200168507    0.5794773584
 H   -0.1122272283    1.8965739930   -0.9484876249
 H   -0.9701290471    1.8619708356    0.5980207402
 H   -1.4228454337   -0.2280904476   -1.5882639442
 H   -1.2017059096   -1.7210600608   -0.6776531331
 H   -2.1729472971   -0.4111310126    0.0034402843
 H    1.3382279641   -1.6024222499   -0.7608621494
 H    2.1741025461   -0.0450564436   -0.2962909367
 H    2.0990950991   -0.1523565399    2.3579997943
 H   -0.2367032651   -2.7144576058    0.9971720288
 H    0.7480945923   -3.6902500949    3.1053531067
 H    1.5067973337   -2.0725578269    3.4938841303
 H   -0.5708934451   -1.0887040738    3.3961999278