14

 O   -0.6120111908   -0.0993429854    1.1365942140
 C   -0.2162036563    0.9892204929    0.7978118207
 C    1.2800175876    1.3682488576    0.8789261191
 C    1.8859469690    1.5290343716   -0.4387949507
 N    2.3446599346    1.6526465507   -1.4926032260
 N   -1.0432709268    2.0337282173    0.4343970271
 C   -1.1090014378    2.7192486880   -0.8488069711
 C   -2.2468031030    1.8781142249   -0.3458275618
 H    1.3901793992    2.3029137209    1.4383004918
 H    1.7886517759    0.5692452542    1.4225909648
 H   -1.1725706211    3.8022974055   -0.7989589669
 H   -0.5085783942    2.3270063667   -1.6635070539
 H   -2.4101653814    0.9087495054   -0.8080537557
 H   -3.1337641547    2.3594972597    0.0545907785