15

 O   -0.0999183943    1.3976975410    0.1710798452
 C    0.0073997193   -0.0112559963    0.0542100138
 C   -1.4152333176   -0.5470036220   -0.1046884897
 C   -1.5039013960   -2.0849821202   -0.0357350475
 O   -1.8516449564   -2.3779880114    1.3206997526
 C   -2.3279275513   -1.2449063113    1.9316366365
 O   -2.7324043814   -1.2248880958    3.0590084148
 N   -2.2614771043   -0.2063683401    1.0239723545
 H    0.7601843388    1.7556701880    0.4083223739
 H    0.6084073462   -0.3033443424   -0.8217849522
 H    0.4671634018   -0.4596215474    0.9486674457
 H   -1.8342968958   -0.1603298878   -1.0391153601
 H   -2.2843578177   -2.4729396057   -0.6986022059
 H   -0.5584651079   -2.5815326734   -0.2702661061
 H   -2.2391333633    0.7321358048    1.3919064944