17

 O   -0.1063935136    1.4210406760    0.0254973107
 C   -0.0682734916    0.0466863367    0.0258721157
 C   -0.2159361601   -0.7240329598   -1.2556271829
 C   -1.1383864738   -1.0330923616   -0.0988365331
 O   -0.4602284212   -1.8764466721    0.8406761357
 C    0.5349929708   -0.8486310191    1.1034511204
 C   -2.6133089765   -1.0300403652   -0.1147496294
 C   -3.3835305029   -2.0608345373    0.5960982972
 O   -3.2671636013   -0.7422103466    1.1305716377
 H   -0.5577795314    1.7143137282    0.8259600040
 H   -0.6648235821   -0.1360059833   -2.0507478397
 H    0.5189478491   -1.4604680068   -1.5706586377
 H    1.5591441083   -1.2112053230    0.9614890741
 H    0.4152893800   -0.4476502342    2.1177354530
 H   -3.0621356543   -0.5438151544   -0.9801598437
 H   -4.3720839804   -2.3374486627    0.2318692001
 H   -2.8428394290   -2.8300951849    1.1422673577