15

 C   -0.0454706957    1.5253383835    0.0790388029
 C    0.0162731493   -0.0090618609   -0.0365213177
 C    0.7015991368   -0.4636155669   -1.2371006572
 C    1.2725232482   -0.8192547520   -2.2379591345
 C    1.9368605335   -1.2485901256   -3.4021043934
 N    2.4599049338   -0.5271561145   -4.3592326120
 C    2.9514712576   -1.4906176269   -5.1968271288
 N    2.7586247688   -2.7236055007   -4.8107330742
 O    2.0762822045   -2.5758190205   -3.6052013598
 H    0.9593475162    1.9541228020    0.1071160871
 H   -0.5758171138    1.9585270989   -0.7726255313
 H   -0.5696193650    1.8101792772    0.9952459289
 H    0.5225936427   -0.4313993088    0.8408412129
 H   -0.9986068758   -0.4268793492   -0.0295959104
 H    3.4666197987   -1.2674626556   -6.1198861725