19

 O   -0.0404842246    0.2238945215   -0.6799064095
 C   -0.0439883395    1.2830277798   -0.1251094359
 C   -1.1595656713    2.1948243347    0.4211853507
 C   -0.0471362754    3.1706700734    0.8625582917
 C    1.0674423041    2.2561211693    0.3146037584
 C    0.0026741206    4.6635942864    0.7706040161
 C   -1.3491559219    5.2743502231    1.1595627319
 C   -1.2629772315    4.5497312708    2.5444145121
 C    0.0874553340    3.9511313383    2.1323979330
 H   -1.8469616575    2.5580316443   -0.3501867626
 H   -1.7491562807    1.7356294106    1.2217941104
 H    1.7555439991    1.8325636854    1.0541046610
 H    1.6575966604    2.6548102605   -0.5175685795
 H    0.7847440549    5.1633689644    0.2096327960
 H   -1.3129180084    6.3609075473    1.2620297198
 H   -2.1964338244    5.0165377641    0.5154028800
 H   -1.1816022955    5.2563938142    3.3729207394
 H   -2.0554806093    3.8315715570    2.7799508040
 H    0.9449297570    3.8172133849    2.7827060430