18

 C   -0.1103943916    1.5346654940   -0.0490428519
 C    0.0581049290    0.0344913211    0.0414713323
 O    1.0893898061   -0.4783144048   -0.8496488962
 C    1.7295703632   -1.2036916365    0.2185823638
 C    0.7545531081   -0.6182566467    1.2696642125
 N    1.8882065220    0.1068211779    1.8336523770
 C    1.9963939280    1.1033899420    2.8709940041
 C    2.8272179367   -0.3611425826    0.9318862668
 O    3.9980982319   -0.1273752735    0.7989660977
 H    0.8216956234    2.0492251926    0.1977929170
 H   -0.3931528097    1.8166028139   -1.0677521115
 H   -0.9001378134    1.8752077698    0.6294166927
 H   -0.8891273276   -0.4792955990   -0.1739361041
 H    1.9029828953   -2.2585850946    0.0044985373
 H    0.1566890891   -1.1938330955    1.9767389485
 H    1.6811545874    0.7022250547    3.8411626011
 H    3.0480674074    1.3936669569    2.9341531816
 H    1.3973635948    1.9943920306    2.6510404711