19

 N    0.0652193383   -1.1869154872    0.0419783081
 C    0.0386240260   -0.0322044129    0.0145425783
 C   -0.0076780023    1.4407185728    0.0191350086
 C   -0.8075731228    1.9288627600    1.2588226078
 C   -1.3928039069    3.3474665252    1.0923497638
 O   -0.6884163862    4.1918607545    0.2033490843
 C    0.7002644236    4.3466022969    0.4498099185
 C    1.5090906868    3.3567550737   -0.3992866408
 N    1.3641831837    1.9420589412   -0.0733293110
 H   -0.5323397816    1.7554676546   -0.8914531030
 H   -1.6305457714    1.2385670523    1.4729929359
 H   -0.1334925609    1.8779094410    2.1213067304
 H   -2.3992599909    3.2841090171    0.6675008980
 H   -1.4843125205    3.8175608989    2.0841489795
 H    0.9618850385    5.3713138588    0.1584199047
 H    0.9314169049    4.2372580176    1.5205095242
 H    1.2088638026    3.5026942717   -1.4445285848
 H    2.5753582344    3.6016053775   -0.3340181214
 H    1.8623083546    1.7149033163    0.7811212186