17

 O   -0.1025324226    1.4418459614   -0.0206784970
 C    0.0199450234    0.0650762448   -0.0641826987
 C    0.6658944677   -0.6938089470   -1.2219393208
 C   -0.3521434256   -1.8599628891   -0.9701554629
 O    0.1495235162   -3.0340747955   -0.3427327349
 C    1.0338579338   -2.7570974344    0.7082701045
 O    0.5312429294   -1.8518877716    1.6708186155
 C   -0.2298645241   -0.7886984380    1.1617757911
 C   -1.1406348366   -0.9554706800   -0.0092136869
 H    0.6514574715    1.8012517754    0.4600087172
 H    0.4252960340   -0.2021425160   -2.1682428044
 H    1.7384676689   -0.9042502626   -1.1970325899
 H   -0.8837210365   -2.1992271239   -1.8577188492
 H    1.2057846574   -3.7011486916    1.2304803320
 H    1.9905184087   -2.3771931586    0.3156237442
 H   -0.6342371899   -0.2145258731    1.9890991444
 H   -2.2145750057   -0.8229253600    0.0233151858