24

 C   -0.2051636116    1.5520101829    0.0620429268
 C    0.0046442344    0.0587136564   -0.0356104128
 C    0.6171773393   -0.6344790719   -1.2024560222
 C    1.4246850812    0.1565762477   -2.2243702273
 C    2.8334613135    0.3018093171   -1.5752138103
 C    3.6983918599   -0.9153628500   -1.9500089527
 C    3.5458639410    1.5968652984   -1.9766269826
 C    2.5055511879    0.2487372220   -0.0561598426
 N    1.3144476345   -0.6110350077    0.1095730297
 H    0.4562053855    2.1350830626   -0.5820244697
 H   -1.2353929148    1.7933218931   -0.2206422940
 H   -0.0574773646    1.8975847335    1.0917948816
 H   -0.7700573873   -0.4980198887    0.4918512490
 H    0.2220695609   -1.6005657836   -1.5078703269
 H    1.4752129551   -0.3690028430   -3.1822067116
 H    0.9862930813    1.1395012277   -2.4277603538
 H    3.8757236375   -0.9540648081   -3.0304926018
 H    4.6728868057   -0.8716049630   -1.4514323201
 H    3.2128496209   -1.8501131793   -1.6517308470
 H    2.9420670582    2.4782973166   -1.7331575827
 H    4.5064333289    1.6968313806   -1.4587701469
 H    3.7502684083    1.6190854742   -3.0529378696
 H    3.3314369601   -0.1918691432    0.5118715032
 H    2.3416581141    1.2545135558    0.3489974241