21

 C    0.1029677100    1.3177282565    0.2107416916
 O   -0.1628152493   -0.0357470705   -0.1163735770
 C    0.5658915261   -0.4999389581   -1.1841320306
 C    0.9512239469   -1.9167355697   -1.5057436412
 C    0.4345669451   -1.7730095726   -2.9375750810
 C    0.3320217639   -0.2266579877   -2.7089022426
 C    1.6009204806    0.4885153867   -3.1939822822
 C    2.7465473674   -0.1953956692   -2.3909836631
 C    2.0268604894   -0.8508338892   -1.2136956988
 H    1.1647241633    1.4715143054    0.4488124335
 H   -0.1744165268    1.9964051124   -0.6082717404
 H   -0.5018807621    1.5593729849    1.0876942738
 H    0.8803525850   -2.7977648137   -0.8785910759
 H    1.0832137232   -2.1052777926   -3.7563220152
 H   -0.5489070040   -2.2349293950   -3.0553460106
 H   -0.6089478246    0.2380429784   -3.0038088239
 H    1.7409327688    0.4067126340   -4.2768043390
 H    1.5475179060    1.5562001164   -2.9504015558
 H    3.2814631365   -0.9317169202   -3.0008724123
 H    3.4909282280    0.5301389739   -2.0486872595
 H    2.5361015866   -0.9891380099   -0.2661317095