16

 C   -0.0283709516    1.3748656343    0.0530025599
 O    0.0101323404   -0.0519149175    0.0518849667
 C    0.6364665218   -0.5998452048    1.1013303236
 N    1.2058892349    0.0260375947    2.1084927647
 C    1.6961532685   -0.9845641487    2.9025498348
 O    2.3589396468   -0.7121911867    4.0533363608
 C    1.4312234464   -2.2228145766    2.3892469552
 N    1.6901200280   -3.5504057598    2.7710239900
 N    0.7292746586   -1.9400810518    1.1973809075
 H    0.9834130823    1.7912120490    0.0430753094
 H   -0.5643680892    1.6574199650   -0.8536439585
 H   -0.5521388084    1.7490737485    0.9377512070
 H    2.3772342059    0.2487640983    4.1300491297
 H    1.2704539084   -3.7824637550    3.6650986733
 H    2.6835874453   -3.7434934982    2.8422774523
 H    0.3724444620   -2.6240646807    0.5524748635