18

 N    0.0293439493    1.1964030574   -0.0421650610
 C   -0.0235980674   -0.0530634208    0.0255286088
 O    1.0069134554   -0.9919980560    0.1508058895
 C    0.0469670434   -2.0670324842   -0.0327798905
 C   -0.9255107595   -2.0876574636    1.0925753241
 C   -0.5999368014   -1.7207120656    2.5032317564
 C   -1.6910615894   -1.6925807939    3.5444296631
 C   -0.6463486405   -2.7790370692    3.5797353978
 C   -1.1026604568   -1.0797857232   -0.0626689265
 H    0.9928556952    1.5290907847    0.0238196049
 H    0.3328147200   -2.8697546446   -0.6992003546
 H   -1.6507512086   -2.8956733460    0.9971793975
 H    0.1799154971   -0.9741725526    2.6015078454
 H   -1.6576333082   -0.9142096509    4.2983280419
 H   -2.6948092706   -1.9644353096    3.2341701099
 H   -0.9472713421   -3.7820360645    3.2943420240
 H    0.1087602787   -2.7497815316    4.3572283504
 H   -1.9939716646   -1.0240343657   -0.6697687612