21

 C    0.0257900112    1.5277157410    0.0115578712
 C   -0.0429273601    0.0274326972   -0.0134056876
 C   -0.0345839786   -0.6774443537   -1.1496733766
 C   -0.0701151234   -2.1653586191   -1.1733232902
 C   -0.2857437953   -2.8212122013   -2.5155767603
 O    0.9151348556   -2.8334629569   -0.3311803521
 C   -0.4538005856   -2.8509920039    0.0734809960
 C   -0.8286650625   -2.0230563165    1.2806837896
 C   -0.0725803430   -0.6819850647    1.3223767506
 H    0.9058683719    1.8726519794    0.5702647804
 H    0.0770349069    1.9496635478   -0.9956992818
 H   -0.8487217266    1.9539872631    0.5201414935
 H    0.0080548637   -0.1693892614   -2.1100992535
 H    0.5120685211   -2.5427050082   -3.2131850461
 H   -0.2888445540   -3.9093575616   -2.4179953161
 H   -1.2385421018   -2.5045123376   -2.9538561275
 H   -0.9359134893   -3.8278671744   -0.0023906774
 H   -1.9115479981   -1.8445711253    1.2370626161
 H   -0.6403371471   -2.5860486774    2.2018698249
 H    0.9607083847   -0.8666591527    1.6419306808
 H   -0.5170157296   -0.0321514938    2.0849142260