19

 C   -0.0292886120    1.3368341850   -0.3508313608
 C    1.2929062652    0.8920638452    0.1630637435
 N    0.1882359311   -0.0562465718   -0.0135656052
 C   -0.3801549760   -0.5923041151    1.1987860463
 C   -1.5458909766   -0.1450964892    2.0570221843
 C   -2.8718651260    0.1594364662    1.3033830487
 N   -2.6558166685    0.0489695569   -0.1641602425
 C   -2.8584432634   -1.1662118017    0.6617270282
 C   -1.5346720956   -1.5380485356    1.3744786035
 H   -0.6449324487    1.9285269823    0.3219684063
 H   -0.1832502564    1.5446920208   -1.4055976873
 H    2.1409409623    0.7534506459   -0.5025461296
 H    1.5538105535    1.1909233590    1.1778476835
 H    0.4229551726   -0.9319062082    1.8546427988
 H   -1.4398161951    0.0738971094    3.1133008885
 H   -3.6916314604    0.7362188307    1.7110664098
 H   -3.5536184371    0.2531730740   -0.6048500004
 H   -3.6651135169   -1.8579783843    0.4579277218
 H   -1.4020945921   -2.5038784494    1.8477528423