20

 C    0.2057995806    1.4150718584   -0.5116524462
 C    1.4404834017    1.5731485608    0.4160177289
 C    1.2865490709    0.0720507227    0.8069868516
 C   -0.1640772000    0.1225615327    0.2672229177
 C    2.2496822048   -0.8903784004    0.0984304746
 C    3.3541823015   -1.0681378916    1.1480556771
 C    2.5353210092   -1.0612216456    2.4435642887
 O    1.4087287030   -0.2209184404    2.1940231403
 H   -0.5259216337    2.2249973550   -0.5102147394
 H    0.4883890290    1.2063546840   -1.5470810246
 H    2.3883683869    1.8930174363   -0.0271456998
 H    1.2198409535    2.2035691872    1.2812376584
 H   -0.8584939764    0.3278895171    1.0860587199
 H   -0.5236284378   -0.7425260390   -0.2972393843
 H    1.7478048786   -1.8470802236   -0.0900701782
 H    2.6096063170   -0.5054138673   -0.8586558428
 H    3.9400018858   -1.9814437277    1.0190566453
 H    4.0435725760   -0.2172246111    1.1267855888
 H    2.1904481876   -2.0747080580    2.6987079184
 H    3.0882412220   -0.6679561197    3.3036571954