18

 C    0.0307318025    1.4195519954    0.1496354706
 C    1.5169458835    1.8738722022   -0.0473219508
 C    2.1373268698    0.6088119453   -0.5590565416
 C    3.3183948119   -0.0008607071   -0.5652671970
 C    3.1694888968   -1.4564912141   -0.9763076032
 C    1.6455611905   -1.7203082080   -0.7772975325
 C    1.0188186091   -0.3301102583   -0.9316531434
 O   -0.0139381165   -0.0000408510   -0.0063635484
 H   -0.3631670976    1.6559736238    1.1414455109
 H   -0.6141961177    1.9046841538   -0.5987218955
 H    1.5802349419    2.7046943850   -0.7585345831
 H    1.9758621038    2.2088195426    0.8869825317
 H    4.2710054485    0.4365911745   -0.2866041149
 H    3.4702482381   -1.6190406425   -2.0209694946
 H    3.7920257793   -2.1263572313   -0.3727464694
 H    1.2423990424   -2.4672481940   -1.4652778534
 H    1.4592476741   -2.0597872816    0.2463582595
 H    0.6571967295   -0.1572838547   -1.9625605349