17

 O   -0.4435949111    1.3748112255   -0.5751568776
 C   -0.1213197339    0.0822444460   -0.1257452059
 C   -1.3686478273   -0.7564904306    0.1203814905
 O   -2.0311918536   -0.8375168303   -1.1580566201
 C   -3.3532960586   -0.7150398136   -1.2055022655
 N   -4.1297430187   -0.9756905652   -0.2387198846
 N   -3.7480730143   -0.2982685723   -2.5004828562
 C   -3.0829762739    0.5726352531   -3.3354867094
 O   -2.0352528643    1.1353280630   -3.1226767778
 H   -0.8959714356    1.2867244007   -1.4287738371
 H    0.5370225182   -0.4496479173   -0.8314240537
 H    0.4240559959    0.1863836156    0.8194035417
 H   -1.1298547609   -1.7693855137    0.4618616680
 H   -2.0406858782   -0.2831434762    0.8388222265
 H   -5.0988884901   -0.7588118202   -0.4563352329
 H   -4.6808070143   -0.5602831256   -2.7809904551
 H   -3.6513410894    0.7188707511   -4.2732509208