14

 N    0.1103835896    1.3601833697    0.1252930573
 C    0.0067173348   -0.0013268118    0.0274580528
 N   -1.1458452827   -0.7007538233    0.0160908851
 H   -2.0642823339   -0.2907758454    0.0730443640
 C   -0.8527759689   -2.0762742318   -0.0051690841
 C    0.4963681569   -2.1854059096   -0.0043905370
 N    0.9917106203   -0.8880652197    0.0137152814
 C    1.6173591276   -3.2582440428   -0.0342316365
 O    2.7379038114   -2.6876913047   -0.0295459771
 O    1.2528336547   -4.4295164486   -0.0586180413
 H    1.0364086148    1.7247101898   -0.0447999610
 H   -0.6058442633    1.8952739410   -0.3443203374
 H   -1.6285609249   -2.8198341681   -0.0275954966
 H    2.0251464837   -0.8850574048    0.0073857804