20

 C    0.1519088985    1.6574730612    0.3015383090
 C    1.5567926644    1.4657759384   -0.3302821004
 C    1.0684144122    0.1028852218   -0.9047843848
 N    2.0658410946   -0.9183130493   -1.0222734301
 C    2.2239874788   -1.9806958601   -0.3655698277
 O    1.5362766175   -2.6008206332    0.6283201494
 C    0.2241388495   -2.1897357116    1.0261594131
 C    0.1027156819   -0.7095372693    1.3692776207
 C   -0.1166462737    0.1374947607    0.1217343023
 H    0.1165250763    2.0414645114    1.3243480608
 H   -0.5051099056    2.2709531067   -0.3202313466
 H    1.9102728311    2.2119659409   -1.0446262347
 H    2.3310948406    1.3117063745    0.4256433849
 H    0.6659774504    0.2742501395   -1.9102326024
 H    3.1017592646   -2.5950973344   -0.5719949404
 H   -0.4892618739   -2.4559192540    0.2329113994
 H    0.0079069331   -2.8164464940    1.8952344822
 H   -0.7431947401   -0.5763210072    2.0553569701
 H    1.0005415875   -0.3992839542    1.9182012424
 H   -1.0891140978   -0.1230447777   -0.3105834974