16

 C    0.1218304920    1.6200791275    0.1753209613
 C   -0.0508054575    0.1056862723   -0.0355803268
 C    0.5885467971   -0.3729142804   -1.3000625260
 C    0.0213070424   -0.8209734421   -2.4855119214
 N    1.0983987288   -1.0917393311   -3.2731290075
 N    2.2414448124   -0.8396567807   -2.6458389660
 N    1.9424757264   -0.4017203930   -1.4472700003
 C   -1.3394477597   -1.0250539649   -2.9587754254
 O   -1.5982058356   -1.4372127931   -4.0704707895
 H    1.1821496589    1.8847597661    0.1848975183
 H   -0.3615314069    2.1869129498   -0.6263892314
 H   -0.3214265137    1.9277713006    1.1266291022
 H    0.4055684718   -0.4308187537    0.8036140358
 H   -1.1140067459   -0.1555835729   -0.0375223661
 H    1.0850927157   -1.4474733283   -4.2178641013
 H   -2.1344550162   -0.7767876658   -2.2281963659