14

 C    0.0002624786    1.4097930221   -0.0666326924
 N   -0.0494038464   -0.0267335710    0.1372199377
 C   -1.2356365979   -0.6885042279    0.0384441174
 N   -2.4019514709   -0.0768387897    0.0205464402
 O   -3.3145718518   -1.1849967399   -0.0273773431
 C   -2.5570155420   -2.2798543938   -0.0515772755
 N   -3.1886824093   -3.4788510418   -0.1611884872
 N   -1.2717548625   -2.0656662273   -0.0121715418
 H    1.0121527729    1.7623786978    0.1435763424
 H   -0.2806516552    1.7087517449   -1.0860412649
 H   -0.6902000587    1.8971824880    0.6263140528
 H    0.7407595503   -0.5690697906   -0.1732965849
 H   -4.1540293905   -3.5014057544    0.1269403081
 H   -2.6358667165   -4.2778060063    0.1049782813