21

 C   -0.3981272948    1.2754323576   -0.2316706552
 O    0.1107220487   -0.0154249181    0.0025390201
 C    0.6831907340   -0.5966628239   -1.1461303305
 C    1.1986564692   -1.9861620551   -0.7571076429
 C    1.8135099873   -2.6854010719   -1.8785806618
 C    2.3241143824   -3.2347859744   -2.8210476107
 C    2.9214065769   -3.9292393560   -3.9545643928
 C    2.0607590525   -5.0962443091   -4.4507646250
 O    2.7456826274   -5.6792204197   -5.5465047675
 H    0.3888273240    1.9715520577   -0.5629839239
 H   -1.1924806367    1.2698864385   -0.9950282102
 H   -0.8166090610    1.6385561268    0.7101534209
 H   -0.0596738230   -0.6824877798   -1.9559487584
 H    1.5127285083    0.0204609465   -1.5280353483
 H    1.9155963429   -1.8724487840    0.0651330748
 H    0.3591478016   -2.5670340300   -0.3559912631
 H    3.0774941802   -3.2365625604   -4.7907584386
 H    3.9117157405   -4.3192053645   -3.6889926063
 H    1.9142981611   -5.8157447587   -3.6314379053
 H    1.0690063194   -4.7198310017   -4.7429824444
 H    2.2245489992   -6.4199216098   -5.8689254409