19

 C   -0.0597363685    1.5154657522    0.2105685333
 N   -0.0154577793    0.0646759860    0.0408123446
 C    0.8466357366   -0.5925399950    1.0059361280
 C   -1.3106125478   -0.4964066858   -0.0862028366
 C   -2.2560701165   -0.9844197677    1.0491215203
 C   -1.8514028411   -1.9000393517   -0.0586808678
 O   -2.7006601399   -1.6363038991   -1.2128128822
 C   -2.1629054830   -0.3559156262   -1.3147162451
 N   -2.3309802541    0.5348003779   -2.1785959742
 H    0.9535454274    1.9176746340    0.1160154834
 H   -0.6816817319    1.9502506857   -0.5746196400
 H   -0.4622979044    1.8194330513    1.1937383014
 H    0.5370126020   -0.4397017012    2.0567466072
 H    0.8795630524   -1.6681448454    0.8080812163
 H    1.8622866946   -0.1990031451    0.9019000982
 H   -1.7520318724   -1.1425103170    1.9977710653
 H   -3.2878479223   -0.6538684508    1.1180264993
 H   -1.3928770435   -2.8775375012   -0.0001411034
 H   -2.9848902281    0.2343167192   -2.9033553181