17

 C   -0.1454579963    1.5153930757   -0.0323195878
 C   -0.0364601657   -0.0051252907   -0.0459474845
 C    1.1433544791   -0.5624211166   -0.8907295226
 O    1.5798932886    0.3037811893   -1.9054324655
 C    1.9954432149   -0.6962983139    0.4001650811
 C    0.6657344965   -0.6349437240    1.2149667511
 C    0.6578318921    0.1092555147    2.4611252691
 N    0.6550332561    0.7145005207    3.4467864418
 H    0.8059341972    1.9948854623    0.2130405700
 H   -0.4523523866    1.8772519944   -1.0166960555
 H   -0.8850270944    1.8383804859    0.7059768963
 H   -1.0107548574   -0.4457429919   -0.2715711593
 H    0.8927550483   -1.5541575508   -1.2938701277
 H    2.2821832730   -0.1289735393   -2.4007655656
 H    2.6181046539   -1.5831625067    0.5318655376
 H    2.5974846661    0.2008055601    0.5572221760
 H    0.2804768945   -1.6401221892    1.4068113656