22

 C    0.0054872250    1.5558177372    0.0971161580
 C   -0.0107185547    0.0360617712   -0.0269076803
 C    0.5506052546   -0.4420921712   -1.3818466577
 C    0.1707819165   -1.8748179942   -1.7059243286
 C    1.1637402303   -2.8749045910   -2.1909776706
 N    0.5832895053   -2.9945591066   -0.8571841069
 C    1.4297935959   -2.7080234141    0.3007938095
 C    0.6965147225   -1.8429252005    1.3285291192
 O    0.7593061459   -0.4530913944    1.0658728083
 H    1.0235989028    1.9384307843   -0.0283865662
 H   -0.6334565314    2.0138111288   -0.6635612251
 H   -0.3522231771    1.8576954905    1.0846380790
 H   -1.0493538582   -0.3255578805    0.0733743697
 H    0.1643659775    0.2028673808   -2.1804902411
 H    1.6369154610   -0.3041770013   -1.3624479801
 H   -0.8579199887   -1.9797822171   -2.0519406467
 H    0.8842750539   -3.6440678143   -2.9068280229
 H    2.1990494532   -2.5423776858   -2.2654364488
 H    1.6916474143   -3.6696899311    0.7599186113
 H    2.3757278462   -2.2057700718    0.0421614442
 H   -0.3485601582   -2.1826280610    1.4068541064
 H    1.1687541934   -1.9683791180    2.3082537094