21

 O   -0.0231559264    1.4239435998    0.1074854124
 C   -0.0191445715    0.0400591744    0.0235718987
 C   -0.9165984502   -0.7482415534   -0.9404689643
 C   -1.1855606797   -1.7841496380    0.2016918570
 C   -0.3041801360   -0.9563075957    1.1456057512
 C    1.0993283578   -0.7980124036    0.5832079981
 C    1.8727148022   -1.8515280379   -0.1469387455
 C    3.3152578903   -1.6036777165   -0.5229380925
 C    2.9780991577   -2.6014924484    0.5569856667
 H    0.6997501623    1.7614956251   -0.4323960712
 H   -1.8148969582   -0.1798677083   -1.1908901926
 H   -0.4606033438   -1.1132833863   -1.8670310005
 H   -2.2342116400   -1.8017544267    0.5051387952
 H   -0.8623829799   -2.8130149740    0.0166991436
 H   -0.5080624986   -0.7691969914    2.1931473881
 H    1.7152647595   -0.2025554618    1.2571067801
 H    1.3001617722   -2.4314041412   -0.8632050594
 H    3.6739238209   -1.9746267549   -1.4769381136
 H    3.7624416460   -0.6622857671   -0.2191434738
 H    3.1955174796   -2.3286183898    1.5846605970
 H    3.1054181359   -3.6571404542    0.3434673553