19

 O   -0.4288847766    0.5394184071    0.7376310918
 C    0.0683215793    1.0010189607   -0.2529256240
 C    1.3764231712    1.7952720729   -0.2570224936
 C    1.3450419733    2.9034519375   -1.2006219366
 C    1.2595202332    3.8065119174   -1.9930017799
 C    1.1993370441    4.9199502373   -2.9375828483
 C    2.5431394504    5.6060100222   -3.1408822359
 C    3.5209203807    5.0720237987   -4.1523822242
 C    2.8046185908    6.3770998395   -4.4079919668
 H   -0.3877905980    0.8703476717   -1.2584099254
 H    1.5799199973    2.1206177663    0.7685379002
 H    2.1729884150    1.0850562030   -0.5291772197
 H    0.8305873417    4.5572480630   -3.9064967496
 H    0.4592503784    5.6533414308   -2.5897427432
 H    2.9692061359    6.0127943108   -2.2286942194
 H    4.5782021516    5.1006464045   -3.9142479278
 H    3.2224158545    4.2076751921   -4.7367554582
 H    2.0273719222    6.3882488980   -5.1655731757
 H    3.3697828950    7.3000993066   -4.3424491539