18

 C    0.1576484079    1.4739803886    0.0331493021
 C   -0.0476555365    0.0021652402    0.0073415113
 C   -1.1510926605   -0.7971614417    0.0421474901
 C   -2.5920966369   -0.4013983347    0.1125577659
 C   -0.6672930066   -2.1578451099   -0.0255891713
 N   -1.4661963878   -3.3157058037   -0.1122210598
 C    0.6848183997   -2.0671892867   -0.0869186532
 O    1.6372050823   -3.0267782805   -0.1017802153
 O    1.0890713254   -0.7633076909   -0.0719026518
 H    0.7345354782    1.7892437213    0.9111054463
 H    0.7008693360    1.8207532260   -0.8540050304
 H   -0.8050393402    1.9891394210    0.0615454744
 H   -3.1695055980   -0.8799413351   -0.6868247515
 H   -3.0540108506   -0.7015332306    1.0623301285
 H   -2.7193697541    0.6801159302    0.0183182130
 H   -2.1457779036   -3.3651206847    0.6393864668
 H   -0.8918517514   -4.1501218533   -0.0718850614
 H    2.1606863668   -2.9524296455   -0.9097482039