20

 C   -0.3374950519    1.3924087863   -0.0360431444
 C    0.0105340275   -0.0926120373    0.0176213794
 C    1.1821926041   -0.5202341304   -0.9223092349
 C    2.1238381731   -0.4734652083    0.2935693100
 C    0.8983653645   -0.5063732422    1.2333241244
 O    3.0332712342   -1.5747950090    0.3494548240
 C    3.9967254727   -1.4865305785    1.3011702551
 N    4.7598369794   -2.6215913868    1.2941560960
 O    4.1382446582   -0.5560287489    2.0600456447
 H    0.5527875381    2.0207661920    0.0808254754
 H   -0.8045737552    1.6540554973   -0.9919150524
 H   -1.0365781040    1.6604717707    0.7635020213
 H   -0.9002749937   -0.6852739706   -0.1011206012
 H    1.0666685779   -1.5476888797   -1.2769736439
 H    1.4190202409    0.1266979151   -1.7710569153
 H    2.6904128998    0.4544515037    0.3816718201
 H    0.9191665352    0.1551219378    2.1019200138
 H    0.6934184925   -1.5283023064    1.5635387997
 H    4.7170984715   -3.2269939356    0.4920791130
 H    5.6248942653   -2.5747947790    1.8043175752