22

 O   -0.0095956510    1.4055967114    0.2836791209
 C   -0.0136694522   -0.0086441057    0.4310392737
 C   -1.4037126516   -0.5363752426    0.1179913510
 C   -1.5467568502   -2.0497111085    0.1685646230
 C   -0.7368058902   -2.7771376988   -0.8875746790
 C    0.6494335665   -3.3020874934   -0.5944143630
 C   -0.5019281064   -4.2605934602   -0.7759079519
 C   -2.5705525566    0.3218431491    0.4371168293
 N   -2.1537713037    0.1149119785   -0.9684669421
 H    0.9004630449    1.7109938339    0.3177404487
 H    0.7106297882   -0.4734953005   -0.2527220174
 H    0.2640873199   -0.3016948548    1.4567544859
 H   -1.2667946269   -2.4141802205    1.1670886944
 H   -2.6081031608   -2.2867906516    0.0332863799
 H   -0.9007121698   -2.3957547802   -1.8917117052
 H    1.4032142797   -3.2475091388   -1.3725892930
 H    1.0410808032   -3.1732431829    0.4100291970
 H   -0.8798354277   -4.7677923343    0.1063245540
 H   -0.5369656585   -4.8598298841   -1.6790202050
 H   -3.5176621857   -0.1381903235    0.7069946199
 H   -2.3813919798    1.2927153168    0.8827016387
 H   -1.6330443914    0.9408879607   -1.2582677998