17

 C   -0.1428357631    1.4173531856    0.2559322585
 N   -0.1696686809    0.1529445908   -0.4853906859
 C   -1.2081710563   -0.7152700582   -0.2459271885
 C   -1.3112967421   -2.0328667369   -0.0527709362
 O   -2.6695944260   -2.3690435217   -0.0167660772
 C   -3.3673978906   -1.1980842128   -0.1207177795
 O   -2.4737446886   -0.1673375928   -0.2891356465
 N   -4.6035844671   -1.0111612332   -0.0773109357
 C   -5.4768806410   -2.1560053125    0.1118146207
 H    0.6650230677    2.0355479359   -0.1410282934
 H   -1.0864639707    1.9413417523    0.0977347532
 H    0.0060616968    1.2845478778    1.3373100044
 H    0.7202400629   -0.3257917244   -0.4910793591
 H   -0.5997309146   -2.8313772636    0.0422518713
 H   -4.9869330243   -3.0155512384    0.5867281405
 H   -6.3281608188   -1.8548293510    0.7299666023
 H   -5.8811281034   -2.4889548868   -0.8528189989