18

 C    0.1165336963    1.5839429315   -0.0597506175
 C    0.0784824972    0.0725052479    0.0632022767
 N    0.9725728830   -0.6725042108   -0.8663148027
 C    1.3897501443   -1.6104006984    0.2043752538
 C    2.8848210485   -1.6161464440    0.4697896399
 C    3.1084912799   -0.3787287721    1.3402129187
 O    4.1411664928    0.1306706571    1.6552882597
 O    1.9017926338    0.1062157343    1.7753597990
 C    0.7989790868   -0.6232241485    1.2466043921
 H    1.1389387483    1.9531304885    0.0433507710
 H   -0.2660201047    1.8936345123   -1.0378003821
 H   -0.5046210564    2.0520818348    0.7111311319
 H   -0.9617719879   -0.2861100771    0.0320763813
 H    0.5216956019   -1.0948436203   -1.6696511973
 H    0.9278533664   -2.6017545387    0.1753639625
 H    3.2152666971   -2.4964004478    1.0320197924
 H    3.4863739494   -1.5411350847   -0.4373428422
 H    0.1887464933   -0.9847790041    2.0747286229