19

 C   -1.8839195369    1.1170016591   -0.0202592624
 C   -0.9600298772   -0.0821428980   -0.0900614311
 O   -0.2895255180   -0.4294743278    0.8602754424
 C   -0.9255206138   -0.7943728278   -1.4077033646
 C    0.1942347707   -1.7538933845   -1.7159908718
 C   -1.1762182506   -2.3183621026   -1.5144499783
 C   -1.6197171926   -3.1833619732   -0.3551764235
 C   -0.6192674786   -3.5704066716    0.7110364325
 O   -2.7605967143   -3.5914428858   -0.3478670471
 H   -1.8585176734    1.5497781023    0.9799653687
 H   -1.5803717551    1.8703138561   -0.7565922763
 H   -2.9076452678    0.8191395055   -0.2738909421
 H   -1.3547884542   -0.2351040295   -2.2321778624
 H    0.6109125974   -1.7507610126   -2.7167670353
 H    0.9113685199   -1.8854103388   -0.9133046217
 H   -1.7464466365   -2.5690515249   -2.4033638789
 H   -0.1913053180   -2.6801799256    1.1791258814
 H   -1.1148532531   -4.1947952369    1.4551882471
 H    0.2070175823   -4.1292599232    0.2557823936