18

 C   -0.2349833198    1.6155624223    0.2676285794
 C    0.0849954451    0.2607806297   -0.3385439671
 O   -0.7433073334    0.0582379360   -1.4897837507
 C   -1.9973631665   -0.3753498819   -1.3174789156
 N   -2.5315956390   -0.5990035666   -0.1907792500
 C    1.5339538712   -0.2239127308   -0.6284599373
 C    1.7713565185   -0.4223584379    0.8871940987
 C    0.3881225033   -1.0097407744    0.5138257311
 O    1.0257163932   -1.6126711421   -0.6819486409
 H   -0.1494186707    2.3887546260   -0.5019601051
 H   -1.2612853715    1.6112403592    0.6413529536
 H    0.4303495445    1.8771547785    1.0909478320
 H   -2.4652064066   -0.4933955538   -2.2998826722
 H   -3.4871794343   -0.9252245154   -0.3160047828
 H    2.2199817197    0.0962165866   -1.4131680641
 H    2.5158692861   -1.1861398393    1.1079030809
 H    1.8419298832    0.4398433652    1.5509047928
 H   -0.2988532429   -1.6223268714    1.0911263774