19

 C   -0.1028892443    1.5185975551    0.0063447696
 C    0.0831497027    0.0086252936    0.0103808578
 C    0.9925910258   -0.5804496635   -1.1181432483
 C    1.9684641066   -1.3368787902   -0.2065303771
 O    2.9514996627   -2.0426867003   -0.8910665449
 C    0.9956952039   -1.9317271125    0.8535289826
 N    0.7666344786   -0.4912467949    1.2605437801
 C    2.2233115475   -0.2747733422    0.8993682770
 H    0.8518313969    2.0536814781    0.0107314283
 H   -0.6488466950    1.8290570130   -0.8905527634
 H   -0.6727189697    1.8338681411    0.8852762537
 H   -0.9059234622   -0.4603363058   -0.0093569489
 H    0.4659746046   -1.2502303267   -1.8030877274
 H    1.5023474766    0.1857496715   -1.7099817460
 H    3.5219708060   -2.4740848545   -0.2463594156
 H    0.1031828349   -2.4719940124    0.5238778704
 H    1.4971147350   -2.4775366044    1.6581290880
 H    2.8617978792   -0.6278801833    1.7141584067
 H    2.5039817602    0.7426111084    0.6174043475