16

 C    0.0556860083    1.3733674857    0.1773138512
 C    0.1396962581   -0.0670712110    0.0170005470
 C    0.2076714426   -1.2628274112   -0.1126379357
 C    0.2398978981   -2.6841620747   -0.3300120149
 O   -0.2919679215   -3.2562664361   -1.2472914016
 O    0.9489972682   -3.2994154314    0.6541965593
 C    1.1301042992   -4.6891931367    0.5875113569
 C    1.9868043765   -5.1411227690   -0.5611397634
 N    0.6319415805   -5.3476752308    1.5354674867
 H    0.8190134600    1.7417252575    0.8701320653
 H    0.1876260118    1.8827439826   -0.7829987140
 H   -0.9253198964    1.6575526594    0.5733006964
 H    2.2012271906   -6.2084889746   -0.4833943666
 H    1.4755330365   -4.9416902920   -1.5056898938
 H    2.9298991562   -4.5849332271   -0.5645167817
 H    0.8743745813   -6.3342053906    1.4460150889