25

 C   -0.0151689515    1.5845493453    0.1358435280
 C   -0.0262953909    0.0864386804   -0.1767301397
 C   -1.3474097105   -0.5851647927    0.2021279166
 C   -1.3599616396   -2.0913973722   -0.0480413200
 O   -0.3329565723   -2.6835484182   -0.2961791331
 C   -2.7143841649   -2.8350880625   -0.0037963188
 C   -2.4587120902   -4.3409465498    0.1634286805
 C   -3.6074152816   -2.3234105999    1.1430425030
 C   -3.4153695511   -2.5810645244   -1.3601827658
 H    0.9393733112    2.0395535865   -0.1459811203
 H   -0.8073837439    2.1139191341   -0.4059852582
 H   -0.1682542862    1.7703690504    1.2051429742
 H    0.1648537619   -0.0761800711   -1.2436347006
 H    0.7900395314   -0.4187250154    0.3483948776
 H   -1.5587614487   -0.4286857549    1.2700493513
 H   -2.1904256525   -0.1178131941   -0.3227434025
 H   -1.9764792273   -4.5548409756    1.1221678130
 H   -3.4052190840   -4.8901588560    0.1269789117
 H   -1.8022533195   -4.7160472789   -0.6236109816
 H   -3.8647719485   -1.2665442283    1.0309352403
 H   -4.5449667500   -2.8890008774    1.1618958062
 H   -3.1235818707   -2.4548704041    2.1168536700
 H   -2.8023537622   -2.9410848385   -2.1920978881
 H   -4.3715117403   -3.1143929772   -1.3887809087
 H   -3.6240190581   -1.5190916455   -1.5237917550