20

 C   -0.4398642944    1.2959911671   -0.0418072273
 O   -0.1965794742   -0.0897753838   -0.0768312934
 C    0.7912886898   -0.4476790024   -1.0190876282
 C    0.9550536381   -1.9437395586   -0.9664175959
 N    0.1507431647   -2.7513043373   -1.8944125864
 C    1.6182411227   -2.7537847078   -2.0242319400
 C    2.1929434038   -2.1872743550   -3.3109301780
 C    2.0540064489   -3.1802591659   -4.4478944660
 O    2.9591106219   -3.5534867006   -5.1489292832
 H    0.4652576060    1.8637922756    0.2279069791
 H   -0.8031543349    1.6722002542   -1.0112355303
 H   -1.2069848793    1.4742305213    0.7154765369
 H    0.4947987960   -0.1292486682   -2.0299666715
 H    1.7488459501    0.0476691581   -0.7776113638
 H    1.0656233487   -2.3145305326    0.0513138607
 H   -0.1793175584   -3.6004991681   -1.4452953804
 H    2.1458518142   -3.6370912140   -1.6659901909
 H    1.6343676568   -1.2876445331   -3.5943600052
 H    3.2490816956   -1.9249333243   -3.1983690164
 H    1.0168930240   -3.5578917645   -4.5904557299