21

 C    0.0278674738    1.5512559318   -0.0341698275
 C    0.0340431343    0.0374361077   -0.0036173843
 C    0.4509036121   -0.7029520185   -1.2708568954
 C    0.3605433331   -1.9904335953   -0.9487743461
 C   -0.1081274798   -1.9884228504    0.5031868703
 C   -0.3142916129   -3.3242903137    1.1855215463
 C    0.6415382820   -0.7837548288    1.2065688519
 C   -0.6224015878   -0.4847079345    2.0472315183
 C   -1.1504068952   -0.8027059586    0.6281545812
 H    1.0265009216    1.9379624474   -0.2672905363
 H   -0.6549831542    1.9202430728   -0.8079423640
 H   -0.2826306323    1.9914741979    0.9171338011
 H    0.7466784757   -0.2389095713   -2.2022467227
 H    0.5619322951   -2.8712088404   -1.5437390814
 H    0.6165095814   -3.9028241019    1.1934312481
 H   -0.6480905325   -3.2221455600    2.2215343838
 H   -1.0651239489   -3.9193140320    0.6532069172
 H    1.6876622836   -0.7760908154    1.5306436234
 H   -0.8710783250   -1.1920500271    2.8408088192
 H   -0.7496605734    0.5378368403    2.4079939052
 H   -2.1885161006   -0.8170915302    0.2794628518