21

 O    0.1363546602    1.4338496182   -0.0550939727
 C    0.0433708332    0.0292733344   -0.0153110161
 C    0.2106060178   -0.5815587362    1.4057364484
 C   -1.3419654893   -0.6308803889    1.5169807825
 C   -2.0255409851   -1.6632761485    2.4464493497
 C   -2.1350903879   -0.5552317969    3.5337236918
 C   -1.9744756430    0.4760086699    2.3905933175
 O   -1.1669829383    1.6279573326    2.5712588754
 C   -1.4150653544   -0.5269311670   -0.0225561861
 H   -0.2638484632    1.7794965333    0.7570083249
 H    0.7092627995   -0.3456184651   -0.7965371187
 H    0.6329164136   -1.5908860536    1.3739933759
 H    0.7644893481    0.0225150873    2.1274830384
 H   -3.0075373811   -1.9696686949    2.0729593913
 H   -1.4501913664   -2.5580057983    2.6946372374
 H   -3.0388329325   -0.5109743464    4.1460173880
 H   -1.2560222749   -0.5422962586    4.1833799077
 H   -2.9559129067    0.7575944767    1.9822713346
 H   -1.6881112619    2.3174005657    2.9940668659
 H   -2.1801496249    0.1283498549   -0.4503064269
 H   -1.4770814128   -1.5115452686   -0.4979511188