20

 C   -0.0127064731    1.5370036845    0.0604890002
 C   -0.0032612261    0.0398335471   -0.0045602286
 C    1.0867132065   -0.8574626624   -0.5352589327
 C    0.5443098541   -1.7729223944   -1.6215892951
 C   -0.8709678525   -2.0962467592   -1.1145409537
 C   -0.7627217558   -2.9852907576    0.1453733327
 N   -0.6967462005   -1.7653718764    1.0189092125
 C    0.5841311564   -1.0276870235    0.9007949654
 C   -1.2115046463   -0.9131402564   -0.1256199958
 H    0.9777201414    1.9231611097    0.3231033850
 H   -0.2920293708    1.9778835103   -0.9043011716
 H   -0.7219493927    1.9035582662    0.8110249816
 H    2.0855438387   -0.4409846210   -0.6242312899
 H    0.5196486671   -1.2373491593   -2.5793332204
 H    1.1340153326   -2.6851368955   -1.7681997936
 H   -1.5802092497   -2.3772698839   -1.8951154032
 H   -1.6731653914   -3.5466184541    0.3773499522
 H    0.0999696222   -3.6568357441    0.2123783910
 H    1.2514350729   -0.9415628269    1.7524285893
 H   -2.2331172133   -0.5371685131   -0.0500439452