14

 O    0.1660916984    1.1605682083   -0.6727729391
 C   -0.0086012949    0.0069822756    0.1339270915
 C   -1.4137436249   -0.5249028273    0.0684717497
 N   -2.0527414278   -0.8229439720    1.1709396215
 O   -3.3114349948   -1.2931128564    0.7661159876
 C   -3.3824683343   -1.2505409548   -0.5593799115
 C   -2.2199657807   -0.7701186611   -1.0932995944
 C   -1.9222438860   -0.5642909602   -2.5163976992
 O   -2.6915861956   -0.8557297808   -3.4053758164
 H   -0.3674373521    1.8702500702   -0.2991563206
 H    0.6864974145   -0.7392810875   -0.2647018785
 H    0.2556563142    0.1798630069    1.1846621159
 H   -4.3057531546   -1.5814181135   -1.0093431731
 H   -0.9359998815   -0.1070450073   -2.7248163634