18

 C   -0.0512498125   -1.2015812381   -0.0976837439
 C   -0.0129554733   -0.0008492182   -0.0341285739
 C    0.0446444572    1.4498300911    0.0468055746
 C   -0.4522057651    2.0517496031    1.4202312508
 C    0.8183708756    2.8218758745    1.8237297359
 C    1.2259436666    3.5023331754    0.4845443464
 C    1.4865342959    2.0324856589    0.0501841874
 C    1.9395793610    1.7863497241    1.5165204387
 H   -0.0898095119   -2.2607468076   -0.1590703938
 H   -0.5278282715    1.8721387664   -0.7866230813
 H   -1.3197902992    2.7037833197    1.2872586319
 H   -0.7168846426    1.2680596300    2.1334783702
 H    0.7837708832    3.3733012869    2.7636934382
 H    0.4682925964    4.0775569821   -0.0575331185
 H    2.1488835961    4.0804142755    0.5679521485
 H    2.1108534285    1.7752817809   -0.8050044116
 H    2.9393022217    2.1799665737    1.7128362336
 H    1.8414881441    0.7757470716    1.9214300067