19

 C   -0.6445179299    0.9723097275   -0.4669367643
 O    0.3860095003    0.1305353208    0.0133761371
 C    1.0431259090   -0.6100055772   -1.0105761228
 C    2.3830392981   -1.0739641498   -0.4395310086
 C    0.1861775647   -1.7640833207   -1.4573468485
 N    0.1508638962   -2.3108237858   -2.6529141022
 C   -0.7303565430   -3.3643921747   -2.5486189729
 C   -1.2347922954   -3.4483508074   -1.2780364692
 N   -0.6350767765   -2.4191421686   -0.5866667278
 H   -0.2522411794    1.7247426795   -1.1667136806
 H   -1.4377586006    0.4077044693   -0.9769938336
 H   -1.0716386106    1.4830552749    0.3995110949
 H    1.2245982001    0.0256087538   -1.8892212261
 H    2.2243821068   -1.6987650328    0.4446014959
 H    2.9244871942   -1.6590704665   -1.1868271543
 H    2.9874154946   -0.2099303514   -0.1508862551
 H   -0.9550180347   -3.9954251765   -3.3950865518
 H   -1.9466575517   -4.1109429574   -0.8148764032
 H   -0.7857547024   -2.1492086170    0.3712488730