20

 C   -0.1181579453    1.5209162272   -0.3566408218
 C    0.0383997796    0.0302935754   -0.0556041516
 C    0.8806326439   -0.7083987231   -1.0973915326
 O    2.2295309317   -0.2502425564   -1.0519166677
 C    2.8287251774    0.0982233709   -2.2141598573
 N    4.0421218475    0.4177323729   -2.2373021437
 C    4.6081591280    0.8043938697   -3.5126622381
 C    0.8744037786   -2.2210136420   -0.8691642849
 O   -0.1206334733   -2.8529400385   -0.6339603220
 H    0.8551066589    2.0182580454   -0.3950160259
 H   -0.6206109242    1.6825438894   -1.3170933332
 H   -0.7154394694    2.0105833961    0.4176205210
 H    0.5074456020   -0.1116949530    0.9247161089
 H   -0.9332794087   -0.4717797626   -0.0185383381
 H    0.4590318847   -0.5339119067   -2.1006960060
 H    2.1595027589    0.0812773911   -3.0896222513
 H    3.8936534917    0.7673230471   -4.3513971634
 H    5.0046854556    1.8236445749   -3.4442277968
 H    5.4538002185    0.1498859284   -3.7517695209
 H    1.8795306437   -2.6919329062   -0.9431001346