19

 C   -0.0300241089    1.6740550740    0.2807042690
 C    0.0587870433    0.1711283472    0.0057164713
 C   -1.3118985529   -0.5050311867   -0.1618178277
 C   -2.0652347401   -0.2144606458   -1.4440483752
 C   -2.5398907996   -1.3106442691   -2.0406001886
 C   -2.2624018341   -2.5551561687   -1.2391148275
 O   -1.7773584231   -3.6471418047   -1.9836614865
 C   -1.2191409366   -2.0342752728   -0.2359574966
 O   -0.3967155792   -2.7434832484    0.2863080807
 H    0.9672611180    2.1065214288    0.4051698029
 H   -0.5201920293    2.2103639737   -0.5387381288
 H   -0.5975054954    1.8767907494    1.1958562043
 H    0.6553700576   -0.0113155771   -0.8960964624
 H    0.5806540020   -0.3326742874    0.8262400488
 H   -1.9301919971   -0.2503637732    0.7152534159
 H   -2.1924742286    0.7951953113   -1.8181572400
 H   -3.1017594490   -1.3375810718   -2.9662830783
 H   -3.1674037025   -2.8500581284   -0.6727095779
 H   -1.1172089645   -4.0764210602   -1.4211367435