21

 C    0.0033954771    1.4841051633    0.0422165751
 C   -0.1591017012    0.0329918384   -0.3752265735
 O    1.0904350237   -0.4403804586   -0.8580467508
 C    1.0547999788   -1.7897778193   -1.2062272116
 C    0.5412251325   -2.4059459707   -2.4809223213
 C    0.9488753004   -1.7182818661   -3.8110254408
 C    1.7645371249   -0.4569167330   -3.6670975797
 C    2.4121127922   -1.7945747029   -3.4257573246
 C    2.0401424787   -2.4803732683   -2.0835875689
 H    0.7700437424    1.5775865106    0.8165771155
 H    0.3011588905    2.1016876179   -0.8101110425
 H   -0.9397642373    1.8735009670    0.4374309222
 H   -0.4830053285   -0.5815144675    0.4814046142
 H   -0.9277206369   -0.0693436571   -1.1562766779
 H    0.7870742049   -2.4215088043   -0.3517058213
 H   -0.1924398058   -3.2034682771   -2.4611386640
 H    0.4927993525   -2.0017036056   -4.7506416446
 H    2.0366843282   -0.0142068550   -4.6219796362
 H    1.6056470751    0.2465210661   -2.8640612226
 H    3.2404262360   -2.1536378102   -4.0223289717
 H    2.5951165518   -3.3389437676   -1.7240659947