19

 C    0.4141362289    1.4110298293    0.2753168605
 N   -0.2033112996    0.1769146589   -0.2031324259
 C    0.5145368440   -0.4782499624   -1.2622433334
 C    1.8722571822   -1.1628960179   -1.0541365769
 C    0.6492599842   -1.9933936357   -1.3202284031
 C    0.0685772981   -2.9009755955   -0.2540305469
 O    0.7844484782   -4.1199666503   -0.1466440138
 C    0.3380680086    0.1818668845   -2.5424257351
 N    0.2165783938    0.7100385932   -3.5642887071
 H    1.4447295072    1.2828744944    0.6447324438
 H    0.4369730916    2.1426084037   -0.5383857682
 H   -0.1981072709    1.8253106863    1.0802683115
 H   -0.3876565353   -0.4579169449    0.5606760566
 H    2.6295494523   -1.0716482610   -1.8238112556
 H    2.2484220415   -1.1504088803   -0.0361491751
 H    0.5626246619   -2.4028193643   -2.3239448103
 H    0.1480251254   -2.4392500128    0.7356422736
 H   -1.0000246844   -3.0763940728   -0.4497429588
 H    0.6734567223   -4.6055717323   -0.9704653158