15

 N   -0.0148692271    1.3479775632   -0.0713438114
 C    0.0105199982   -0.0285953568   -0.0658490642
 N   -1.1666971846   -0.6562242043   -0.1099521061
 C   -1.0982315582   -1.9955406981   -0.1630595047
 C    0.0864540403   -2.6942161747   -0.1741947246
 O    0.2200920960   -4.0617283947   -0.2217746422
 C    1.2708058409   -1.9264485806   -0.1112573072
 N    2.4886890488   -2.5433105993   -0.1427916932
 N    1.2268951088   -0.5992529323   -0.0483203206
 H    0.8191995795    1.7963144616    0.2713033906
 H   -0.8895221208    1.7577337275    0.2143479835
 H   -2.0485088032   -2.5306145236   -0.1939490147
 H   -0.6546847187   -4.4636017366   -0.2243864994
 H    2.5172370215   -3.5250110898    0.0765671277
 H    3.2779761786   -1.9816109814    0.1320291864