14

 C   -0.0707175776    1.4477145729   -0.0434072568
 N   -0.1073980584   -0.0020658148   -0.0813666064
 C    0.5733626359   -0.6304329637   -0.9253200418
 O    1.4035729688   -0.0879809787   -1.8809370786
 C    1.9882142220   -1.1323710672   -2.6330956797
 O    1.4998300841   -2.3608762829   -2.1223867483
 C    0.6384908902   -2.1118865549   -1.0859136275
 N    0.0254405831   -2.9747966280   -0.4066614816
 H    0.5862806947    1.9091273201   -0.7891593038
 H   -1.0892222970    1.8270621264   -0.1824700172
 H    0.2476734372    1.7633245120    0.9563359434
 H    1.7025528523   -1.0338351194   -3.6870603649
 H    3.0789945231   -1.0988093265   -2.5270865816
 H    0.2510621018   -3.9178037755   -0.7274698752