17

 O   -0.1602086068    1.4886516302   -0.0417168632
 C   -0.0186731899    0.0818294548   -0.2308831894
 C   -1.4108972151   -0.4979722395   -0.0290251015
 O   -1.9281164722   -0.1132043583    1.2120852255
 C   -2.3412214809   -0.3734769074   -1.2632569777
 O   -2.1411094875   -1.7682940232   -1.5891458591
 C   -1.5299622608   -2.0253919261   -0.3010308829
 C   -0.3348750156   -2.8462314060   -0.3642575188
 C    0.6598683240   -3.5204606625   -0.4023739491
 H    0.7143380937    1.8795069444    0.0355648352
 H    0.3562692308   -0.1607974972   -1.2336128674
 H    0.6642005194   -0.3546878191    0.5103111618
 H   -1.6151106819    0.7896935468    1.3603005913
 H   -3.3790234974   -0.1591903392   -0.9812545788
 H   -2.0251656466    0.2878772993   -2.0757456304
 H   -2.2546661720   -2.4638963907    0.3992263652
 H    1.5322253487   -4.1253869662   -0.4399886307