19

 C    0.0452097980    1.4791082731    0.1165195224
 C   -0.0881975331   -0.0337149180   -0.0409720309
 C   -1.5629076751   -0.4420464103   -0.1536000373
 C    0.7341036402   -0.5407859620   -1.2389248879
 C    1.0137627310   -2.0109724045   -1.1375969740
 C    1.0128074081   -2.6260096558    0.0452764649
 C    0.8042171242   -1.8805612512    1.3064768154
 O    0.9986990882   -2.3593759156    2.3950803536
 O    0.4368745156   -0.5770255831    1.2048120958
 H    1.0907146113    1.7564056874    0.2753734871
 H   -0.3203517085    1.9896841279   -0.7796969215
 H   -0.5358114939    1.8250783039    0.9752942596
 H   -2.0356470372    0.0631262804   -1.0016622211
 H   -1.6697564278   -1.5206819143   -0.2943470342
 H   -2.0948911822   -0.1591203649    0.7581968087
 H    0.1952653084   -0.3135476241   -2.1655048123
 H    1.6867895437    0.0042506354   -1.3014899892
 H    1.2431771285   -2.5578857949   -2.0483857428
 H    1.2311078208   -3.6798530094    0.1679151336