16

 N   -0.0661440583    1.2747808193   -0.2500759410
 C   -0.0247743877   -0.0876289829   -0.0735594753
 N   -1.0794425125   -0.8911580768   -0.1897610037
 N   -0.5084392790   -2.0869881313    0.0106365767
 C   -1.2457809468   -3.3328197040   -0.0518801260
 C   -1.6932587183   -3.6549819141   -1.4780110061
 O   -2.4080902768   -4.8732034866   -1.3943761962
 N    0.7903751559   -2.0314865243    0.2303239177
 N    1.1246587683   -0.7629380443    0.1862196143
 H    0.7039004886    1.7572971922    0.1890901841
 H   -0.9631095281    1.6939965667   -0.0562991400
 H   -0.5806938265   -4.1108511755    0.3246128679
 H   -2.1192081021   -3.2603113620    0.6009569877
 H   -2.3155837798   -2.8317999312   -1.8558105480
 H   -0.8072061668   -3.7369555937   -2.1254837024
 H   -2.7272557100   -5.0991867413   -2.2724781097