22

 C   -0.2656033738    1.3992735937   -0.1713961444
 O   -0.0103611073    0.0159596032   -0.0637453727
 C    0.7252728929   -0.6231910826   -1.1236964345
 C    0.0209705937   -0.4647512406   -2.4773763504
 C    2.1685548209   -0.1061236113   -1.1841734054
 C    0.7428736081   -2.0982601090   -0.6782073251
 N   -0.5914480488   -2.6172158444   -0.4548992003
 C   -1.0751066079   -3.7321058167   -1.0591479819
 O   -0.4563307015   -4.4463017632   -1.8214149055
 H    0.6545652235    1.9947731954   -0.2443298052
 H   -0.9085517769    1.6459847696   -1.0270462219
 H   -0.7870168907    1.6887525579    0.7448087679
 H    0.0249323471    0.5755764806   -2.8140967080
 H    0.5326581759   -1.0599056207   -3.2391967410
 H   -1.0149847895   -0.8073344951   -2.4174083621
 H    2.6346854326   -0.1568941456   -0.1958374234
 H    2.7599514018   -0.7123194264   -1.8773361102
 H    2.2141335228    0.9283105793   -1.5354550677
 H    1.2109902303   -2.7286256692   -1.4363185340
 H    1.3319347451   -2.1717012058    0.2444598495
 H   -1.1990859498   -2.0638818805    0.1284247704
 H   -2.1267223187   -3.9292607888   -0.7689989842