17

 N    0.0769378284    1.3446371646    0.1295654026
 C   -0.0256155834   -0.0197886599    0.0326634146
 C   -1.1484412342   -0.7811252947   -0.0413422654
 C   -0.7867801651   -2.1889016094   -0.0133331544
 N   -1.5102972310   -3.2473564476    0.0188071868
 O   -2.8850609667   -2.9125454072   -0.0015829405
 C    0.7095712761   -2.2905350057   -0.0132235842
 C    1.4348490706   -1.6943630682   -1.1995432115
 C    1.2097676738   -0.8625254317    0.0492647771
 H    0.9309349769    1.7618509099   -0.2066545515
 H   -0.7490359249    1.8828601149   -0.0838886644
 H   -2.1632365502   -0.4241487870   -0.1333559326
 H   -3.2985672335   -3.7800102402    0.0441236485
 H    1.1854421254   -3.0911465500    0.5373096467
 H    2.4433787618   -2.0510448481   -1.3822729230
 H    0.8650029521   -1.4463705802   -2.0881964686
 H    2.0547575539   -0.5631268895    0.6594052598