19

 O   -0.1586600967    1.4874218511   -0.0551144681
 C   -0.0623148855    0.0795127996    0.0279810240
 C    0.2573556499   -0.5889221593    1.4117389694
 C   -1.0804804922   -1.3288654894    1.3252067513
 C   -2.1986120417   -0.3335078745    1.2420754382
 C   -1.4108223857   -0.6281823067   -0.0074978899
 C   -2.0396490970   -1.1440438140   -1.2454207337
 C   -1.9412305557   -0.4137299031   -2.5170863010
 O   -1.1537428867   -1.5859158818   -2.2836874730
 H    0.7328599649    1.8500675830   -0.0691462351
 H    0.5884464805   -0.3219863173   -0.7577967384
 H    1.1358253421   -1.2366230900    1.3749706176
 H    0.3546354601    0.1065159280    2.2516815760
 H   -1.2477087286   -2.3661477404    1.5876956651
 H   -3.2011410467   -0.7511889728    1.2532967445
 H   -2.1132781105    0.6389100827    1.7190731333
 H   -2.9047930587   -1.7923572821   -1.0952447722
 H   -2.7240565093   -0.5180227006   -3.2672021707
 H   -1.3886526427    0.5240740576   -2.5400038573