17

 C   -0.0990292600    1.5710774154   -0.0237427661
 C   -0.0265406797    0.0632423981   -0.0017160515
 C   -1.2088204574   -0.6694646155   -0.5242780294
 O   -2.1884743929   -0.1492606219   -0.9968881961
 C    1.3190360222   -0.6438567524   -0.2211409452
 O    2.4564833056    0.1037952509   -0.4585738556
 C    0.7033158672   -0.6832834641    1.1522189605
 C    1.3303264490    0.0777449105    2.1874178270
 C    1.9194376115    0.7217041258    3.0171677050
 H    0.8991071069    2.0111525874   -0.0250380670
 H   -0.6232288868    1.8875392244   -0.9283895542
 H   -0.6522844005    1.9570242966    0.8368714095
 H   -1.1258827577   -1.7809965552   -0.4599704147
 H    1.3048315976   -1.5662187746   -0.7954978689
 H    2.7973021947    0.4188118452    0.3899675911
 H    0.2593658986   -1.6247252307    1.4648288524
 H    2.4039420316    1.2883092103    3.7740339332