21

 C    0.0816143909    1.5470895183    0.1166639116
 C    0.1147563156    0.0181070782    0.0981107190
 O    0.7937577450   -0.5044094860    1.2440274549
 C   -1.2820354926   -0.5833613251    0.0055690196
 C   -2.0858111824   -0.7680396495   -1.3113259016
 C   -1.1553182174   -1.9196542084   -1.7477624814
 C   -1.5182178299   -2.1042026435   -0.2471781917
 C   -1.2691020351   -3.2580354696    0.6705953614
 O   -2.9274888970   -1.7603807555   -0.6084812976
 H    1.0933295307    1.9468307112    0.2261573285
 H   -0.3531187585    1.9441752142   -0.8067164431
 H   -0.5254457006    1.9129348369    0.9540196622
 H    0.7322141981   -0.3086767247   -0.7441795939
 H    0.3016544728   -0.2264149509    2.0250247167
 H   -1.9232106119   -0.2102419443    0.8138908633
 H   -2.5987618427   -0.0229099119   -1.9198694655
 H   -1.6203256202   -2.6467447498   -2.4149595527
 H   -0.1213423374   -1.7023154810   -2.0225008725
 H   -0.2043824898   -3.3051696576    0.9161679687
 H   -1.8313305532   -3.1294173247    1.6008516561
 H   -1.5736979845   -4.2016494762    0.2082081280