17

 O    0.1725764183    1.0216833073   -0.9879174854
 C    0.0740720251   -0.0685891910   -0.1072371399
 C    1.2686312990   -0.9707118942    0.0426014389
 C    0.9045517436    0.0083721776    1.1415747035
 C   -1.3425189957   -0.6183172445   -0.0420884708
 C   -2.4863634709    0.3413209955   -0.1080780329
 N   -2.2058606648   -0.5496022759   -1.2393051657
 C   -1.4983899712   -1.8254462830    0.7417079714
 N   -1.5919163534   -2.7748055466    1.3949257714
 H    0.5587865977    0.7094382576   -1.8127583115
 H    1.1035645243   -2.0272462843    0.2196161060
 H    2.1361216930   -0.7383842936   -0.5666181377
 H    1.5164160891    0.8959212109    1.2487798305
 H    0.4940936348   -0.3893687860    2.0627072720
 H   -3.3988640983    0.1219006204    0.4363986165
 H   -2.2210985156    1.3899906931   -0.1971749082
 H   -1.6994325651   -0.0185512633   -1.9456518483