17

 C    0.0454693798    1.4569168731   -0.0954443091
 C   -0.0188986839   -0.0246907699    0.0708746967
 O    0.5272843279   -0.9058057362   -1.0185042962
 C    0.0761771408   -1.8907401786   -0.0031678935
 C    0.6605174029   -0.9757821483    1.1104256199
 C    2.1760642405   -0.9072188356    1.2413557678
 O    2.6966343343   -2.0346022945    1.9307818134
 C   -1.2087470434   -1.0272685879    0.0401198044
 O   -2.3906136689   -1.0795349381   -0.0451691506
 H    1.0802192897    1.8085021458   -0.1443353451
 H   -0.4706147658    1.7576300821   -1.0114142633
 H   -0.4463955509    1.9444105063    0.7518821912
 H    0.2417213733   -2.9450285637   -0.2155718417
 H    0.1758647760   -1.0478858992    2.0898332645
 H    2.6327388693   -0.7826004295    0.2528240963
 H    2.4465580836   -0.0379975450    1.8503357328
 H    2.6425859747   -2.7926676808    1.3406618925