22

 C    0.0355313909    1.6417017617   -0.0725031943
 C   -0.0139877794    0.1130129966   -0.1432887081
 C   -1.4065351589   -0.5207161860    0.0111798363
 C   -2.3841579999   -0.0920107655   -1.0832970483
 C   -1.3445597050   -2.0681826892    0.2464232290
 C   -1.9046812313   -1.8401841909    1.6765835591
 N   -1.9565481279   -0.4071207896    1.3900098979
 C   -2.6725079519    0.5351874537    2.0437379036
 O   -3.2407811797    0.3494817821    3.1026335348
 H    1.0686685613    1.9928221577   -0.1520507532
 H   -0.5324991138    2.1116452032   -0.8810031127
 H   -0.3622142891    2.0080883788    0.8791542329
 H    0.3990954719   -0.2279333966   -1.1018448531
 H    0.6329257863   -0.3027734854    0.6381470520
 H   -1.9895317967   -0.3695807899   -2.0668505431
 H   -3.3518107894   -0.5845209638   -0.9511653760
 H   -2.5542799399    0.9881928744   -1.0852633456
 H   -2.0009100850   -2.6423666771   -0.4093027168
 H   -0.3390247596   -2.4893740352    0.2035313100
 H   -2.8881029757   -2.2723091294    1.8843774931
 H   -1.2309627902   -2.1007274547    2.4988780036
 H   -2.6814303069    1.5085408551    1.5137074688