23

 C    0.0219705099    1.5296778253   -0.2199550833
 C    0.0022571226    0.0235672801   -0.0336252918
 C   -1.1609355246   -0.6565868340   -0.7335260407
 C    1.3201256866   -0.7204389820    0.0112168718
 C    0.4768814500   -0.6006591749    1.2631196724
 C    0.9582843734    0.1900299746    2.4626935778
 C    1.8541658259   -0.6570613386    3.3895671381
 C    2.4228911124    0.1613327315    4.5237238983
 O    2.2853169068   -0.0815208833    5.6949359254
 H    0.8908356957    1.9999467325    0.2471449850
 H    0.0500643244    1.7807834807   -1.2867383928
 H   -0.8773646699    1.9943218831    0.2019457516
 H   -1.1359835346   -0.4662071708   -1.8131875960
 H   -1.1391294115   -1.7408874043   -0.5863826641
 H   -2.1215094619   -0.2871268140   -0.3549088859
 H    1.3943631864   -1.6845337502   -0.4814134877
 H    2.2311902083   -0.1301943420   -0.0352935827
 H   -0.0591197605   -1.5058023496    1.5436616512
 H    1.5188098346    1.0741393555    2.1381348552
 H    0.0997966960    0.5618687167    3.0368100381
 H    1.3090376176   -1.5077949094    3.8086548480
 H    2.6975443088   -1.0467746817    2.8014066955
 H    3.0020721835    1.0568676048    4.1915230567