20

 C   -0.2618810976    1.5245294589    0.0831688668
 C    0.0799578300    0.0703000145   -0.0111742010
 N   -0.7272194945   -0.9610665016    0.6964091630
 C    0.7312979451   -0.8598957630    0.9608303788
 C    1.3476291044   -1.7112669426   -0.1667015229
 C    2.8488169562   -1.8966937878   -0.1625620392
 O    0.7222202504   -2.9709864186   -0.3243314832
 C    0.7700086750   -0.6444837786   -1.1893469017
 O    0.0117144977   -1.1478586743   -2.2446143337
 H    0.5763352618    2.1436335233   -0.2532370248
 H   -1.1260719868    1.7629617901   -0.5466736565
 H   -0.5030111901    1.8144335232    1.1122367004
 H   -1.2207305587   -0.4992942562    1.4584956599
 H    1.1111528701   -0.6845369255    1.9610851173
 H    3.1500759493   -2.5600616126    0.6540302763
 H    3.1760481961   -2.3448972332   -1.1055631627
 H    3.3593137792   -0.9366776425   -0.0405032388
 H   -0.1715294710   -2.8395470487    0.0363681759
 H    1.5699381133   -0.0050664508   -1.5843710389
 H   -0.1215647499   -2.0846087540   -2.0359113450