18

 C   -0.6937317928    1.2953954084    0.0185145829
 C    0.0965850893   -0.0030841778   -0.0381608486
 C    1.4563505733   -0.0049897547   -0.8243172854
 C    2.1170373700   -0.6131147578    0.3998314339
 N    3.2342497944   -1.1337959850    0.6912094069
 O    4.1094109605   -1.1002669297   -0.4043555722
 C    0.8770021625   -0.4451283842    1.2208653105
 C    0.7438433495   -0.0180067816    2.6210723130
 O    0.4030755748   -1.3435196630    2.2051239561
 H   -0.0671409788    2.1253080813    0.3631691459
 H   -1.0851079029    1.5586836413   -0.9696851872
 H   -1.5467975018    1.2107513708    0.7001638212
 H   -0.5414171813   -0.8268160776   -0.3735319354
 H    1.4989143231   -0.6159926265   -1.7289005351
 H    1.8312529243    0.9954474755   -1.0639868126
 H    4.8898290224   -1.5452365128   -0.0560136053
 H    1.6378433629    0.0635356107    3.2370343412
 H   -0.0952779894    0.6119006727    2.9136186302