15

 O   -0.0759570727    1.3687416909    0.0916956963
 C    0.0346450983   -0.0382945780    0.0266689958
 C    0.7054916348   -0.4574817636   -1.2260289705
 N    1.2339730308   -0.7755666161   -2.2028678562
 C    0.7670357145   -0.5978691376    1.2443670060
 O    1.9671011371    0.0843840624    1.4925253285
 C   -0.0184292766   -1.1325586680    2.4098095231
 C    0.7584147137   -2.0705564171    1.5060621424
 H    0.8265949118    1.7121973589    0.0839836433
 H   -0.9883723563   -0.4273345026    0.0038143914
 H    1.7684825889    0.8185625939    2.0839680542
 H    0.3870102969   -0.9477051869    3.3986455336
 H   -1.1016855620   -1.1295384785    2.3549629599
 H    0.2101353263   -2.7146048395    0.8269321083
 H    1.6794078045   -2.4916635981    1.8907033641