15

 C   -0.2720495746    1.4269416422   -0.5691150805
 C   -0.0413537111    0.0175571900   -0.0734093356
 C    1.0145628777   -0.8331278727   -0.6645981670
 O    1.1865726551   -0.2301409031    0.6172040700
 C   -1.1973596227   -0.6605176654    0.5583476038
 C   -1.2907191273   -1.4923007355    1.6332298496
 N   -2.6188765070   -1.8161200495    1.7652161975
 N   -3.3140730575   -1.2596732389    0.8843382711
 O   -2.4144199375   -0.4765138860    0.0556682198
 H    0.6475750206    1.8234520153   -1.0042896201
 H   -1.0627206008    1.4428590660   -1.3241134137
 H   -0.5767490485    2.0783737064    0.2553436108
 H    0.8997858916   -1.9151111007   -0.6624982586
 H    1.6306341026   -0.4224359527   -1.4631167776
 H   -0.5310981505   -1.8561125654    2.3014004705