21

 C    0.1860922339    1.5928436403    0.0506863877
 C    0.0107912020    0.0693806282    0.0074984227
 C    0.5760480452   -0.5256419950   -1.3012017170
 C    0.6963524510   -2.0266119869   -1.2808726214
 C    0.9489718408   -2.7206648268   -0.1671203460
 C    1.0995369063   -4.2161698657   -0.1275847888
 C    1.0906159625   -1.9878865206    1.1240685852
 O    2.0264810337   -0.8822949106    1.1690731658
 C    0.6295622272   -0.5944270810    1.2203422854
 H    1.2490331477    1.8565992923    0.0556605651
 H   -0.2764548053    2.0675581129   -0.8206917404
 H   -0.2712242289    2.0223270345    0.9482382307
 H   -1.0639913826   -0.1614749494    0.0531933279
 H   -0.0523167693   -0.2072618193   -2.1405133939
 H    1.5671288120   -0.0873893614   -1.4819604231
 H    0.6089519773   -2.5498810702   -2.2302629745
 H    0.9501278062   -4.6589656089   -1.1156807242
 H    2.0965555088   -4.5051515133    0.2287921335
 H    0.3776217255   -4.6740417313    0.5610853703
 H    1.1072095826   -2.5967513319    2.0274105612
 H    0.2812291834   -0.2290197257    2.1887273940