14

 N    0.0420898998    1.2815882578    0.1426504500
 C   -0.0390393568   -0.0660792301    0.0429564310
 N   -1.1411780435   -0.7769568738   -0.0069182683
 C   -0.6841802298   -2.0724799099   -0.0419019045
 N   -1.5768536609   -3.0985381545   -0.1484845698
 C    0.7007512479   -2.0985423899   -0.0126701614
 O    1.1016870196   -0.7499107796    0.0422665912
 C    1.6668514415   -3.1434223635   -0.0299083767
 O    2.8790962090   -3.0256017285   -0.0015448858
 H    0.9228429753    1.7065571279   -0.0977421597
 H   -0.7903640326    1.7917532802   -0.1021550902
 H   -2.5203985161   -2.8660566182    0.1202350006
 H   -1.2702203143   -4.0180245088    0.1237390544
 H    1.1859674808   -4.1513360191   -0.0756502207