13

 N   -0.0516416957    1.3610170001    0.0108078479
 C   -0.0336495913    0.0861943359    0.0036574568
 N    1.1188435480   -0.7202211943   -0.0079313034
 N    1.2151007606   -2.0624437228   -0.0159342396
 N    0.1472810726   -2.7519380282   -0.0131256248
 C   -1.0720467649   -2.1018859443   -0.0019910492
 C   -1.2370929065   -0.7492660681    0.0064945524
 C   -2.5154948880   -0.1447701114    0.0177503303
 C   -3.6166771383    0.3415495626    0.0272329679
 H    0.8874143781    1.7615223858    0.0072060018
 H    2.0244291207   -0.2704341243   -0.0110564711
 H   -1.9282940762   -2.7654660197   -0.0003498700
 H   -4.5810342293    0.7866097888    0.0355683310