18

 O   -0.9009634959    1.1434796901    0.0824031498
 C    0.2380672622    0.7592605825    0.0320588077
 C    1.4454479306    1.6829076139    0.0417325923
 C    1.3068669015    2.8418900058    1.0357898446
 C    2.5985449041    3.6700907040    1.0480829892
 C    3.8114595851    2.7533112991    1.2671031842
 C    3.7929297614    1.6009174089    0.2611968088
 O    2.5732161714    0.8727695416    0.3152395971
 H    0.5038616379   -0.3185986242   -0.0360701417
 H    1.5290559297    2.1026215648   -0.9813655866
 H    0.4342034075    3.4422135552    0.7646085720
 H    1.1186447037    2.4247344786    2.0325176916
 H    2.7055383252    4.1916471528    0.0869424781
 H    2.5514344077    4.4433067915    1.8216178778
 H    4.7498539964    3.3104968306    1.1683292385
 H    3.7841986948    2.3370284793    2.2815377664
 H    3.9447970640    1.9918140020   -0.7602191415
 H    4.5860740526    0.8762129036    0.4649771618