16

 C   -0.0180378436    1.4278617818    0.1863755735
 N   -0.0095326821   -0.0097122922    0.0294744383
 N   -0.0609501650   -0.5953338254   -1.1563453826
 C   -0.0329255169   -1.9021228394   -0.8812975922
 C    0.0369531080   -2.0431889626    0.5166852557
 N    0.0890800564   -3.1671455865    1.3265275206
 C    0.0834197747   -4.4746230547    0.9140453864
 N    0.0272858020   -4.8208802975   -0.3116296722
 N    0.0508615977   -0.8311284623    1.0782115644
 H    0.8939550497    1.7584327458    0.6905357782
 H   -0.0710937705    1.8619187552   -0.8107809990
 H   -0.8843079568    1.7385882365    0.7764824743
 H   -0.0615103759   -2.6619156143   -1.6396569828
 H    0.1354052188   -2.9808002304    2.3148074305
 H    0.1328337594   -5.1594999518    1.7683598996
 H    0.0346958143   -5.8345158121   -0.3901332927