19

 C    0.1350202161    1.5227292957    0.1392802605
 C    0.0446846349    0.0015409493    0.2218462041
 O    0.3014370019   -0.4538976768    1.5586814620
 C   -1.3033879798   -0.5351492929   -0.2916927401
 C   -1.3801628741   -2.0300080612   -0.3674835656
 C   -1.9607651162   -2.8754840008   -1.2960116955
 C   -1.7158318767   -4.1746819860   -0.8042664252
 N   -1.0344584407   -4.1528876944    0.3382470992
 N   -0.8511638392   -2.8422411115    0.5843996934
 H    1.0868562614    1.8681331361    0.5509732581
 H    0.0588263601    1.8667921141   -0.8967185631
 H   -0.6776920897    1.9936683744    0.7068026293
 H    0.8505511109   -0.4450930655   -0.3708534843
 H   -0.3026556366    0.0136442660    2.1474768561
 H   -2.0969090702   -0.1388434085    0.3611328324
 H   -1.5003652905   -0.1258342887   -1.2880054308
 H   -2.4833319202   -2.5880465000   -2.1945130350
 H   -2.0052358127   -5.1218044360   -1.2360008944
 H   -0.3085547386   -2.5283710231    1.3745807389