19

 C   -0.1307318986    1.4631296114    0.0102306849
 C    1.2413341360    0.8398295112   -0.0045475566
 C    0.0102081057   -0.0356591920    0.0021013493
 C   -0.3090964781   -0.8780008600    1.2188742779
 N   -1.7397818178   -1.2069574184    1.3955683847
 C   -0.8398288865   -2.1907896435    0.7585639056
 C   -0.8530022287   -2.1837951947   -0.7593234207
 N   -1.7637952916   -1.1942047975   -1.3715196682
 C   -0.3302320531   -0.8667784355   -1.2166574166
 H   -0.4754563214    1.9312001237    0.9258770767
 H   -0.4912568312    1.9395933217   -0.8949417005
 H    1.8230231997    0.8925034378   -0.9195976583
 H    1.8388215080    0.8841159134    0.9007152159
 H    0.3169439391   -0.7794178552    2.1017377058
 H   -1.8912228726   -1.4873507254    2.3627023497
 H   -0.6145711530   -3.1196197434    1.2714999646
 H   -0.6367543993   -3.1078405566   -1.2846298411
 H   -1.9320202025   -1.4656829168   -2.3384234569
 H    0.2803991860   -0.7600126901   -2.1093071961