16

 O   -0.0986044147   -0.0477900151   -0.0731072947
 C   -0.0267128646    1.1483721628    0.0364671655
 C    1.2776981217    1.9174697250    0.0836231634
 C    1.3293935859    2.9138541891    1.2545057421
 C    2.7232638361    3.4744411472    1.3775728237
 C    3.7887598446    2.7957817114    0.9473411481
 C    3.6801560444    1.4160833840    0.3947251729
 O    4.6471750927    0.6927794934    0.2403382236
 N    2.3957050324    1.0098640880    0.1333838019
 H   -0.9350466454    1.7879532251    0.0845459092
 H    1.2865253199    2.5189218855   -0.8480103440
 H    0.6004282520    3.7142883651    1.0901937122
 H    1.0487399733    2.4164841906    2.1944012011
 H    2.8379882230    4.4397298613    1.8632943379
 H    4.8011851870    3.1676130856    1.0511573647
 H    2.2604513917    0.0768816812   -0.2299695276