20

 C   -0.0276072925    1.5075087837    0.0186584761
 C    0.0088072601   -0.0054205550    0.0241341201
 C    1.3111059808   -0.7092759156   -0.2787573132
 C    0.7623518171   -0.7079176397    1.1284059360
 N    0.4703205929   -2.0774508759    1.5662610198
 C   -0.6402675233   -2.7822705487    0.9141777472
 C    0.7511225798   -2.9678969002    0.4256073164
 C    1.2263987986   -2.1486996711   -0.7882039867
 O    0.3586061262   -2.2116896589   -1.9171708830
 H    0.8980219540    1.9276223310    0.4266315139
 H   -0.1474655027    1.8953578667   -0.9986947153
 H   -0.8584493976    1.8858458489    0.6240851857
 H   -0.8859622472   -0.4722714314   -0.3707239891
 H    2.1728315315   -0.1153027777   -0.5632499565
 H    1.2009094313   -0.0979986245    1.9113177170
 H   -1.1011642604   -3.5530540975    1.5266123772
 H   -1.3365211691   -2.2348832411    0.2889015706
 H    1.2880460288   -3.8864776583    0.6533683416
 H    2.2316205557   -2.4916492467   -1.0729929359
 H    0.2641918361   -3.1373164379   -2.1643565018