22

 O   -0.1579653852    0.1644888889    0.7401991186
 C   -0.0609504792    1.2505429789    0.2076642491
 N    1.0850413731    1.7907399801   -0.2845679967
 C    2.3831606940    1.1269230738   -0.2392186093
 C    2.9272743915    0.8718708484   -1.6543111675
 C    4.3037243251    0.1915362619   -1.6154610232
 C    5.3054426985    0.9940226436   -0.7737892681
 C    4.7643036756    1.2460472183    0.6402671299
 C    3.3885251133    1.9278491123    0.6042039206
 H   -0.9255607889    1.9305020210    0.0663143658
 H    1.0312316396    2.7064633624   -0.7041664472
 H    2.1909558511    0.1664038992    0.2492540458
 H    2.2091102510    0.2655741132   -2.2164807370
 H    3.0108847018    1.8337680304   -2.1823000460
 H    4.1953474567   -0.8144451081   -1.1874782296
 H    4.6813916011    0.0552982845   -2.6348593544
 H    6.2657252424    0.4688258822   -0.7244283675
 H    5.5015125608    1.9577842072   -1.2643654353
 H    4.6766618699    0.2878246592    1.1704107314
 H    5.4680305109    1.8559990998    1.2173991446
 H    3.4919936129    2.9351254904    0.1733129944
 H    2.9918783739    2.0577802325    1.6167094316