25

 C    0.0531877335    1.5189928947   -0.1134460263
 C    0.0842538888   -0.0014150655    0.0884664635
 C    0.7678430357   -0.3691496171    1.4060806825
 O    2.1095352496    0.0992542533    1.3651081794
 C   -1.3144483927   -0.6105613325    0.0189802549
 C   -2.1048361109   -0.5314481913   -1.3178792629
 C   -2.6479978724   -1.9620584745   -1.0442588733
 C   -2.7955325605   -2.9337460090   -2.2044855250
 C   -1.4830360180   -2.1568758685   -0.0336036268
 H    1.0599214973    1.9363052672   -0.0418997970
 H   -0.3624994800    1.7802319459   -1.0914628260
 H   -0.5677925090    2.0004051874    0.6524078984
 H    0.6901759848   -0.4450879334   -0.7150605310
 H    0.2141701833    0.0866064204    2.2449014686
 H    0.7383224928   -1.4608278195    1.5479889288
 H    2.5247258546   -0.1027673122    2.2081904984
 H   -1.9299686146   -0.2006939204    0.8309466428
 H   -2.8277319852    0.2783505520   -1.4457218861
 H   -1.4235833291   -0.5281569604   -2.1772576383
 H   -3.5956254162   -1.8927000518   -0.4972570652
 H   -1.8576885585   -3.0209142863   -2.7652529669
 H   -3.0682638673   -3.9360752943   -1.8546826428
 H   -3.5719596474   -2.6040773659   -2.9043562243
 H   -0.6190110613   -2.6307661868   -0.5152181286
 H   -1.6952047471   -2.6888927016    0.8977433933