20

 C    0.9602690137    0.0689554178   -0.3386830523
 C   -0.3748758697   -0.3166878960    0.2322769814
 C   -0.4997926908   -0.5288569664    1.7226878243
 O    0.4104076388   -1.4929657381    2.2356960503
 C    0.0451951956   -2.8156604369    1.9694251534
 C    0.5631073233   -3.5194677627    0.7418342252
 C    1.1199052994   -3.8418631655    2.1157165868
 N   -1.4530102060   -0.4624050931   -0.4379909495
 O   -1.2630059149   -0.1938584511   -1.8018216813
 H    1.7576927744   -0.1814625816    0.3632912381
 H    1.1332922074   -0.4353648248   -1.2921446676
 H    0.9949241109    1.1468686906   -0.5373352848
 H   -0.2485552476    0.4021352338    2.2454230355
 H   -1.5385011683   -0.7919642344    1.9601900090
 H   -0.9597018928   -3.0681030223    2.3091278706
 H   -0.0791345979   -4.2418805566    0.2501448635
 H    1.2015029245   -2.9524449481    0.0747803515
 H    2.1118920214   -3.4692731093    2.3446674691
 H    0.8722035276   -4.7903381181    2.5784796974
 H   -2.1359651889   -0.3735547672   -2.1665695904