16

 O    0.1173881042    0.0850038762    0.3031868113
 C    0.0300199910    1.2752829214    0.1157299437
 C   -1.2133968932    2.0661554200   -0.1885912642
 O   -1.3015446252    3.2225393719    0.6685021026
 C   -0.7759395746    3.4044499144   -0.6420470357
 C    0.7424299521    3.5023333477   -0.6614082202
 C    1.1946505251    2.2342021526    0.0555210077
 C    2.2073395750    2.1489629868    1.1494562204
 N    2.5233908678    1.6621998368   -0.1899421869
 H   -2.1460390519    1.5833462041   -0.4598344235
 H   -1.3867018982    4.0002709619   -1.3149689738
 H    1.1119179606    3.5061964899   -1.6924450564
 H    1.0875493708    4.4200146468   -0.1763511707
 H    2.7219492408    3.0586786364    1.4469749789
 H    2.0297579000    1.4275396680    1.9424905203
 H    2.4195222657    0.6460042352   -0.2060270837