20

 O   -0.4443891453    0.4495251186    0.7165948540
 C    0.0760681557    1.0093485145   -0.2115102584
 C    1.2892962747    1.9210387307   -0.0996348521
 N    1.2955182896    2.9257631321   -1.1444529618
 C    0.2952850636    3.9701740984   -0.9179860902
 C    0.2884228753    4.9427027115   -2.0947372056
 O    1.5700328635    5.5091301178   -2.3007163622
 C    2.5371307735    4.5012633144   -2.5372080998
 C    2.6118919522    3.5199147106   -1.3701117349
 H   -0.2801099999    0.8791412043   -1.2591218374
 H    1.3415249487    2.3254254413    0.9267863121
 H    2.1680735657    1.2732106118   -0.2331334721
 H   -0.6946973504    3.5099282862   -0.8167858125
 H    0.4991440572    4.5285361389    0.0158432194
 H   -0.0452534948    4.4140417679   -3.0025045282
 H   -0.3956840039    5.7735438033   -1.9017252950
 H    2.2948929380    3.9504294878   -3.4606975545
 H    3.4950967784    5.0105914257   -2.6735100864
 H    2.9818522795    4.0536191757   -0.4740813741
 H    3.3276935886    2.7237832784   -1.6045768104