24

 C   -1.6471490172   -0.0712596587    0.3960877962
 C   -0.1455024523    0.0830799508    0.1181894459
 C    0.7388920582   -0.3964907187    1.2640760252
 C    0.5355129044    0.3808919980    2.5617737789
 C    1.6376496130    0.2272058342    3.6034896891
 O    1.2196880141    0.9565297371    4.7527944286
 C    1.1124579559   -1.8463277483    1.2938154057
 N    2.1208111368   -0.8319319560    1.0133636020
 C    2.7143793551   -0.7885514529   -0.3127911331
 H   -1.9661064394    0.5267982041    1.2544117555
 H   -2.2348114184    0.2523494313   -0.4685230713
 H   -1.9020268659   -1.1158760670    0.6040665192
 H    0.0981032946   -0.4664205887   -0.7955763375
 H    0.0787624625    1.1390949942   -0.0851597862
 H    0.4385267236    1.4500788313    2.3308926335
 H   -0.4128916062    0.0829278561    3.0243344606
 H    1.7944805937   -0.8343182732    3.8480741946
 H    2.5853332213    0.6084417508    3.2034249736
 H    1.9288283290    0.9175282300    5.4006452228
 H    1.2206386218   -2.3905055452    2.2293907102
 H    0.7638796030   -2.4581742942    0.4604471056
 H    2.0624445094   -1.1438128246   -1.1254380715
 H    3.0232327127    0.2362533978   -0.5436671751
 H    3.6109840004   -1.4174784982   -0.3111514625