21

 C    0.0399834080    1.5424861442    0.1744272854
 C   -0.0008514016    0.0051166438    0.0596698178
 C    0.5984509762   -0.4818073230   -1.2723479278
 C    0.7942351734   -2.0056823584   -1.2829454480
 C    1.5150369588   -2.4654919195   -0.0165587509
 O    0.8408256789   -2.0237153627    1.1556670148
 C    0.7836671354   -0.6157541939    1.2336495801
 C   -1.4645572364   -0.3995060857    0.1980060079
 O   -2.1544985351   -0.8523064868   -0.6775457862
 H    1.0770734347    1.8930606649    0.1879077070
 H   -0.4663716597    2.0107717780   -0.6750882224
 H   -0.4443380690    1.8935669496    1.0927174365
 H   -0.0505482219   -0.1765356478   -2.0982701644
 H    1.5660497883    0.0165349548   -1.4161318654
 H   -0.1807408779   -2.4982898620   -1.3399624261
 H    1.3687834598   -2.3106794528   -2.1648498133
 H    1.5525057790   -3.5563220215    0.0497286807
 H    2.5533955411   -2.0892672375   -0.0077407241
 H    1.8003307146   -0.1853861449    1.2496925095
 H    0.3056092198   -0.3775256380    2.1909265340
 H   -1.8859934963   -0.2040162206    1.2133869748