19

 C    0.3319657787    1.5306812039    0.1625996460
 C   -0.2101273955    0.1358875300   -0.1351601653
 N    0.5106329694   -0.4692601018   -1.2531345543
 C    1.7186010628   -1.2348114476   -0.9268858970
 C    0.4805904058   -1.9067238506   -1.3825282729
 C   -0.3889568922   -2.9368683715   -0.6557885360
 O   -0.6202841989   -3.6331916856   -1.8980426797
 C    0.1511667922   -2.6733368811   -2.6579696881
 H    1.3835460488    1.4852429920    0.4640385865
 H    0.2621459010    2.1663343200   -0.7243932924
 H   -0.2330965895    1.9990804313    0.9741194582
 H   -0.1576929659   -0.4870307331    0.7756989528
 H   -1.2679545823    0.1979309927   -0.4172958800
 H    2.5632951673   -1.1046064719   -1.5988668557
 H    1.9845059402   -1.3472175151    0.1250178413
 H    0.1170539351   -3.5698940256    0.0838413106
 H   -1.3198904676   -2.5505066131   -0.2192731079
 H   -0.4629663062   -2.1195246180   -3.3792164168
 H    0.9939011569   -3.1440838450   -3.1794247092