21

 C   -0.2574094182    1.5289526759    0.0362584455
 O   -0.2209147214    0.1143952907   -0.0180424685
 C    0.6335411179   -0.4913601871   -0.9791136067
 C    0.1853493849   -0.2021289703   -2.4215980927
 O    0.5164550989    1.1296413577   -2.7957767581
 C    2.1468408442   -0.1586249454   -0.7880920762
 C    2.8233743509   -1.5008709380   -0.9123642871
 C    1.9538543293   -2.5093073037   -0.8890674842
 C    0.5340043742   -2.0258315413   -0.7476173246
 H    0.7417042853    1.9644314809    0.1755254361
 H   -0.6969109793    1.9718330854   -0.8632231689
 H   -0.8713465767    1.7831047866    0.9048261684
 H    0.6832241560   -0.9255834675   -3.0846264527
 H   -0.9001903974   -0.3741518839   -2.4768650539
 H    0.2753399117    1.2504451390   -3.7185721000
 H    2.5001490146    0.5784067762   -1.5142615543
 H    2.3115184897    0.2682424796    0.2100622945
 H    3.9012407069   -1.6039537169   -0.9786760426
 H    2.2102680574   -3.5620269077   -0.9341690627
 H    0.1375331130   -2.2060131266    0.2586607783
 H   -0.1607649019   -2.5062470437   -1.4481126994