14

 C    0.0831306812    1.5715619537    0.1754319988
 C    0.0292997802    0.0418962884    0.0919767725
 O    0.5905379486   -0.6007067012    1.2291674767
 C   -1.4433246172   -0.4566255013    0.0832001711
 O   -2.3647278017    0.1936157032   -0.3161545256
 C    0.6523711847   -0.4502136051   -1.1417805984
 C    1.1733295993   -0.8739028673   -2.1471939519
 C    1.7666201493   -1.3461880380   -3.2825741483
 N    2.2747639648   -1.7471947913   -4.2470283922
 H    1.1151365447    1.9247438045    0.1028704427
 H   -0.5034509725    2.0118596017   -0.6331394779
 H   -0.3402875630    1.8873239082    1.1318364792
 H    1.5372927816   -0.4213110172    1.2473778964
 H   -1.5432648202   -1.4815725684    0.4936849368