17

 C    0.0750214619    1.5386189959    0.0036315483
 O    1.5449545068    1.5207917875    0.1551697181
 C    1.5310670352    0.1051654784    0.2438799669
 C    1.7364454847   -1.0953917165   -0.7680299467
 C    1.7693132439   -1.9993099928    0.5022790041
 C    1.2460962314   -0.8675377313    1.4248898202
 O   -0.1992575586   -0.6819227263    1.2640486757
 C    0.0528597026   -0.0012052072    0.0151873426
 C    0.2576344799   -0.8899145977   -1.2432039500
 H   -0.4118079669    2.0090876213    0.8629917715
 H   -0.2220466812    2.0359811145   -0.9259731687
 H    2.5338993700   -1.2240357083   -1.4985112290
 H    1.1693468271   -2.9123943089    0.4808219521
 H    2.8043042435   -2.2342915608    0.7686204077
 H    1.5591565440   -0.8333650574    2.4689524212
 H    0.1866081628   -0.3046287427   -2.1644112630
 H   -0.3708378370   -1.7789330676   -1.3298985408