15

 O   -0.2608158094   -0.0023907578   -0.0387882739
 C   -0.1831936882    1.1848978718    0.0343468997
 C   -1.1703311123    2.3420428054   -0.0892655236
 O   -0.8970476823    3.1689701312    1.0653433093
 C   -0.0329627067    3.2963888941   -0.0569278508
 C    1.0281850665    2.1897894507    0.0938555945
 C    1.9095374226    2.2218075726    1.3088129049
 C    3.1252654134    1.4042195823    1.3943824306
 O    3.2062396102    2.8075057327    1.1407917155
 H   -2.1571726598    2.4058857835   -0.5304911912
 H    0.0456149683    4.2623035954   -0.5394410565
 H    1.6326890500    2.0499754499   -0.8096451190
 H    1.4052169761    2.4999203581    2.2328092056
 H    3.4868904829    1.0802327192    2.3687222044
 H    3.3985113486    0.7600119108    0.5597488404