21

 O   -0.0904744053    1.4458730608    0.0508550268
 C    0.0367192638    0.0275721363    0.0088940270
 C    0.8962998813   -0.4884803611    1.1701454361
 C    0.8574778595   -2.0222580986    1.3175803220
 C   -0.4928026459   -2.6526693236    1.0088246124
 C   -1.8743862567   -2.1855839141    1.4171265949
 C   -2.0349190359   -0.6649877386    1.4793310342
 C   -1.3721363953   -0.5552675986    0.0647522284
 C   -1.4056729669   -2.0954233972   -0.0414861663
 H    0.7934398961    1.8215908979    0.1179834251
 H    0.4915705320   -0.2833216977   -0.9485894656
 H    1.9351579783   -0.1599449824    1.0366256440
 H    0.5376635460   -0.0070906224    2.0850681932
 H    1.5834238336   -2.4675554061    0.6237787347
 H    1.1922627297   -2.3014035547    2.3241049539
 H   -0.4484101902   -3.7402663865    0.9893443794
 H   -2.5738722105   -2.8935934970    1.8476433381
 H   -3.0893140848   -0.3822049762    1.4284806371
 H   -1.5795174707   -0.1247037898    2.3131934825
 H   -2.0044107660   -0.0417788960   -0.6612353641
 H   -1.7331378520   -2.6567344043   -0.9084413038