19

 C   -0.0555880244    1.5050726974    0.0158986256
 C    0.0568994989   -0.0006637431   -0.0021687504
 C   -0.8175674879   -0.8249579011    0.9050476245
 C    0.6868802275   -0.7889539076    1.1429075814
 C    1.4478570721   -1.8920371426    0.5082528106
 C    1.3304462137   -1.8789842397   -0.8328569702
 C    0.5131095446   -0.6775114854   -1.2991836426
 C    1.8661888522   -2.8211750338   -1.7407197963
 C    2.3064654339   -3.5940225814   -2.5549360584
 H    0.8845416516    1.9772686014   -0.2916466461
 H   -0.8402211136    1.8527303657   -0.6667616303
 H   -0.3036515570    1.8735145464    1.0164191094
 H   -1.4413533607   -0.2821046001    1.6086608467
 H   -1.2461871201   -1.7529895080    0.5396755318
 H    1.0607477664   -0.3094871222    2.0413183420
 H    2.0002452396   -2.6372683024    1.0680514426
 H   -0.3273845365   -0.9817932391   -1.9339645067
 H    1.1327639767   -0.0036369400   -1.9057534171
 H    2.7020142030   -4.2833497843   -3.2586591465