16

 O   -0.0785834878    1.4369378516    0.0100427914
 C    0.0222358611    0.0263063841    0.0020057797
 C   -1.4001342003   -0.5241296587    0.0128866023
 C   -1.4125264631   -2.0540605946    0.0046223214
 N   -2.7712012147   -2.5865452110    0.0146442147
 N   -3.4624098242   -2.8354920728    1.1156228247
 N   -4.6228383205   -3.2457387523    0.7021647056
 N   -4.6340766273   -3.2425295870   -0.6450099841
 N   -3.4807781586   -2.8300709238   -1.0758295128
 H    0.8091851808    1.8065288516    0.0033624977
 H    0.5556843424   -0.3362493945   -0.8924611320
 H    0.5727597255   -0.3451321978    0.8823719802
 H   -1.9206640130   -0.1563079180    0.9027128362
 H   -1.9377333348   -0.1466057436   -0.8626442684
 H   -0.9325585355   -2.4556585025   -0.8905706994
 H   -0.9153796600   -2.4654282207    0.8859365429