24

 C    1.1979679143   -0.3277392640    1.2692985055
 C    0.2513990790    0.1109997217    0.1439023218
 C    0.7452102516   -0.2813788017   -1.2422267818
 C    0.5977494453   -1.6963360701   -1.6991979036
 N   -0.1907042441   -0.6383093825   -2.3223851494
 C   -1.6313643662   -0.6431156447   -2.1113857649
 C    1.8615675990    0.6312343520   -1.7753499654
 C    2.7601557384    0.0092529965   -2.8428420983
 O    1.2564139429    1.8293374172   -2.2552050986
 H    1.3041305043   -1.4174559817    1.2918405698
 H    2.1989931720    0.0995298635    1.1527055995
 H    0.8168124380   -0.0065012001    2.2435757941
 H   -0.7363249719   -0.3194667826    0.3317944361
 H    0.1275154860    1.2004182262    0.1619569569
 H    1.3428284592   -2.1793791271   -2.3248826555
 H    0.0737647075   -2.3739906797   -1.0237159355
 H   -1.9561393079   -1.1285847360   -1.1790609868
 H   -2.0079336468    0.3848811557   -2.1125144826
 H   -2.1014372259   -1.1772647345   -2.9436597531
 H    2.4857897722    0.9501425775   -0.9331388033
 H    3.3503847456   -0.8201998910   -2.4399975972
 H    2.1634877419   -0.3615326668   -3.6827056180
 H    3.4473263581    0.7709271403   -3.2200481387
 H    0.6046071076    1.5320743418   -2.9041445009