18

 O   -0.1652275898    1.4556984502    0.1689016015
 C   -0.0059113240    0.0443243930    0.0392255244
 C    0.7486796697   -0.6161129426    1.2061349430
 C    0.2671812534   -0.3460668957    2.6110995036
 C   -0.1879423637   -1.5890657039    1.8887397082
 C   -1.5027244796   -1.5943471347    1.1249893488
 C   -2.3623741187   -0.3555916868    1.0874616737
 C   -1.3838446915   -0.6212111877   -0.0278534161
 H    0.7064360036    1.8326368353    0.3259351044
 H    0.5347237193   -0.1816410375   -0.8924661222
 H    1.7979160498   -0.8503274014    1.0571997422
 H    0.9898393135   -0.4776106766    3.4100694477
 H   -0.4242477177    0.4703537425    2.7791552796
 H    0.1709280702   -2.5457560537    2.2514046114
 H   -1.9874717290   -2.5555403944    0.9965925074
 H   -3.4132115946   -0.4930645077    0.8542388593
 H   -2.1731929726    0.4641507387    1.7684744286
 H   -1.7784428083   -0.8512679469   -1.0109597556