20

 C    0.0050006611    1.3896069421   -0.0482187051
 N    0.0631313178   -0.0565866348   -0.0402597930
 C   -1.0290546306   -0.6786245060   -0.0205136872
 O   -1.0539949112   -2.0268272297   -0.0119224478
 C   -2.3477687612   -2.6275482067    0.0105613634
 C   -2.1397752291   -4.1433815071    0.0169603834
 C   -3.4063168135   -4.8646007752    0.0397857059
 C   -4.4670766747   -5.4335084865    0.0586858489
 C   -5.7410541033   -6.1381303676    0.0814963848
 H    0.5425791149    1.7844302537    0.8215535956
 H    0.5168680167    1.7737137834   -0.9380689835
 H   -1.0189616795    1.7988074274   -0.0357484617
 H   -2.0235264432   -0.2038162587   -0.0088803274
 H   -2.9005569305   -2.3164421533    0.9060328162
 H   -2.9263312579   -2.3274845079   -0.8723077866
 H   -1.5529083608   -4.4179170645   -0.8678124322
 H   -1.5274773897   -4.4070161858    0.8877035954
 H   -5.8562716335   -6.7815519153   -0.7976985906
 H   -5.8297583038   -6.7722746129    0.9704522953
 H   -6.5829387781   -5.4370600847    0.0904380065