23

 C    0.0788845542    1.5279320324   -0.1908194064
 C    0.0034131480    0.0346328079    0.1433904228
 C   -1.4196541174   -0.5197716473    0.0450037963
 C   -1.9456230062   -0.7135799900   -1.4105144431
 C   -1.6995567618   -2.2404312368   -1.2865241275
 C   -1.5765920705   -2.0698093703    0.2510426709
 C   -0.5098863665   -2.8357435033    0.9871472242
 C   -0.1012109693   -4.1915635317    0.5959233236
 O    0.7334244091   -3.0667205335    0.3131682207
 H    1.1064618366    1.8978376353   -0.1199996888
 H   -0.2761475728    1.7311826177   -1.2069010429
 H   -0.5366950206    2.1192049818    0.4967960407
 H    0.6694703799   -0.5312442235   -0.5179240127
 H    0.3853273175   -0.1260263917    1.1595313137
 H   -2.0767789390    0.0783139395    0.6863654855
 H   -3.0060631581   -0.4668588993   -1.5098750009
 H   -1.3974693130   -0.1917768080   -2.1993708574
 H   -2.4831334600   -2.9072550733   -1.6540885619
 H   -0.7443026275   -2.5411543876   -1.7238379705
 H   -2.5337679532   -2.2770037243    0.7445866848
 H   -0.3859735952   -2.5664792658    2.0383835094
 H    0.2831646263   -4.8820888557    1.3453345277
 H   -0.5609337804   -4.6591076026   -0.2736772382