19

 O    0.0811855871   -0.0375313300   -0.6780043457
 C    0.0522184384    1.0562983178   -0.1759109938
 C    1.2660801955    1.9532036797    0.0119207631
 C    1.2937667476    2.9618240330   -1.1179038934
 C    0.9100363573    4.2303677010   -0.9644992800
 C    0.9378618754    5.2272493121   -2.0910289318
 O    1.6159629434    4.7644937211   -3.2402459082
 C    1.2771416513    3.4274238374   -3.5691033495
 C    1.7322989277    2.4604248010   -2.4748159404
 H   -0.9092026694    1.5192828211    0.1435743883
 H    1.1890426946    2.4644653370    0.9772398754
 H    2.1638110526    1.3265230718   -0.0010958084
 H    0.5627503642    4.5992487381   -0.0018879165
 H   -0.0975895071    5.5257317875   -2.3435542538
 H    1.4582546264    6.1405063221   -1.7777347955
 H    0.1889140192    3.3338517520   -3.7198259288
 H    1.7692060783    3.2126981354   -4.5213993957
 H    2.8255111772    2.3537316780   -2.4945464636
 H    1.3219348604    1.4599115837   -2.6601416116