23

 C    0.0781240815    1.5557861229    0.0170274177
 C   -0.0605910601    0.0281530149   -0.0484855386
 C   -1.5371550089   -0.3924448053   -0.0207704225
 C    0.7107745378   -0.5386379093   -1.2515469563
 C    0.7804257698   -2.0613838090   -1.3157211978
 O    0.0608181393   -0.0340971493   -2.4502457441
 C    0.8241694599    0.1229808351   -3.5510869133
 C   -0.0027808788    0.6609136591   -4.6956721549
 O    2.0017210813   -0.1318876707   -3.6029894819
 H    1.1297223590    1.8608280292    0.0445472086
 H   -0.3851842351    2.0252888781   -0.8562430361
 H   -0.4108446763    1.9535653154    0.9116446685
 H    0.4336113158   -0.3945665409    0.8372986366
 H   -2.0591270337   -0.0340008852   -0.9128995115
 H   -1.6553555635   -1.4787828812    0.0264059629
 H   -2.0367180274    0.0318209785    0.8558059670
 H    1.7297426240   -0.1396624482   -1.2446862556
 H   -0.2112300252   -2.5012003450   -1.4515994248
 H    1.4171740923   -2.3708836991   -2.1474166331
 H    1.2109059916   -2.4575348134   -0.3904071715
 H   -0.8272896512   -0.0230740777   -4.9159642524
 H   -0.4442943932    1.6230507456   -4.4208272585
 H    0.6283589709    0.7788211456   -5.5755893287