16

 C    0.0099052428    1.5018683376    0.0242072343
 C   -0.0455243832    0.0044669745   -0.0299643040
 C   -1.1687732694   -0.7164685650   -0.0835949642
 C   -1.1370834132   -2.2161499358   -0.1643127956
 N    0.1931805126   -2.7142668760    0.1710711867
 C    1.3629178964   -2.0043469558    0.1350245974
 O    2.4631564221   -2.5094090996    0.2607875443
 N    1.1972753577   -0.6347353726   -0.0308264907
 H    0.5772423375    1.9032700640   -0.8243814188
 H   -0.9937700290    1.9288137712   -0.0021196268
 H    0.5075961107    1.8453196816    0.9394523413
 H   -2.1324229221   -0.2246830299   -0.0968700672
 H   -1.8636734060   -2.6516178881    0.5360871838
 H   -1.4422773625   -2.5577494535   -1.1697761259
 H    0.3384241256   -3.7099027246    0.2181362537
 H    2.0457980499   -0.1026726179    0.0700712717