15

 C   -0.1334103093    1.3518302392    0.0915195305
 O   -0.0200286420   -0.0672368304    0.0531372014
 C    0.6999586991   -0.6000076971    1.0948531647
 O   -0.0289321194   -0.5161623391    2.3413888479
 C   -0.4231444596   -1.7518571321    2.7493583658
 O   -1.0989149967   -1.9740562490    3.7084067100
 N    0.1228757702   -2.6813490140    1.8684912550
 C    0.8791236648   -2.1005177550    0.8666902404
 N    1.5830799038   -2.5862947224   -0.0629252101
 H    0.8590174107    1.8227738950    0.1156672487
 H   -0.6499770180    1.6459703174   -0.8229800133
 H   -0.7110175459    1.6814447331    0.9618755362
 H    1.6530192883   -0.0779176822    1.2488176656
 H   -0.0183551836   -3.6686705636    2.0061052566
 H    1.5682216877   -3.6072063897   -0.0691946093