18

 O    0.0445964584    1.0667694835    0.7121839642
 C   -0.0806238193   -0.3056606805    0.4139296817
 C   -1.3882967552   -0.5828469451   -0.3300752666
 C   -1.7096871747   -2.0777708317   -0.4830294946
 C   -2.5327092458   -2.3443822617    0.7521751525
 C   -3.0092474620   -1.0209214088    1.3013103049
 O   -2.4850248995   -0.0285528884    0.4225541268
 N   -2.7323918809   -3.5047036894    1.2278812052
 O   -3.5352494669   -3.4321004165    2.3818355652
 H   -0.8254528431    1.3419542240    1.0292474474
 H    0.7725178221   -0.5873188941   -0.2135292515
 H   -0.0371065735   -0.9270815604    1.3260815004
 H   -1.3772469027   -0.0473483551   -1.2835502448
 H   -2.3086035965   -2.2517320844   -1.3836915402
 H   -0.8231040657   -2.7135196846   -0.5400565899
 H   -4.1021204536   -0.9451962537    1.3133820266
 H   -2.6585179529   -0.8864155763    2.3344848843
 H   -3.5955907381   -4.3551965568    2.6497714985