17

 N    0.1546390311    1.3575315113    0.2898593117
 C   -0.0244426141   -0.0582300857   -0.0200309775
 C   -1.4646599350   -0.3748175856   -0.0253503088
 N   -2.5875050308   -0.6442948927   -0.0419041606
 C    0.6304189500   -0.5463771943   -1.3292745379
 C    2.0687430950   -1.0383146967   -1.2345925989
 C    0.9583891952   -2.0234826529   -1.4542267210
 C    0.2296624848    0.1814017323   -2.5022348620
 C   -0.1215505908    0.8216527414   -3.4582765050
 H    1.1500722023    1.5562575797    0.3406541539
 H   -0.2132266874    1.9146991203   -0.4774604576
 H    0.4204460061   -0.6353883729    0.8005745421
 H    2.7253763842   -0.8076808689   -2.0645242364
 H    2.5426351539   -1.0032354593   -0.2586859829
 H    0.6627459706   -2.6636695644   -0.6297054271
 H    0.8513930588   -2.4722672112   -2.4338709218
 H   -0.4392238137    1.3670694396   -4.3125397403