20

 C   -0.8765659511    1.1732543519   -0.0554790040
 C    0.0614032097   -0.0205845679   -0.1319093124
 C    1.4433010660    0.1266614145   -0.8241915021
 C    2.0361844679   -0.8400978465    0.2263154865
 O    3.3341844607   -0.6646241879    0.7086454932
 C    0.8018055781   -0.5248129370    1.1681711177
 C    1.1164541125    0.5614463796    2.2047148903
 C    0.1953730047   -1.6811525212    1.8127669684
 N   -0.2917969474   -2.6100551635    2.3012492837
 H   -0.3844545115    2.0569701928    0.3621844260
 H   -1.2333422286    1.4375275476   -1.0566047479
 H   -1.7542042696    0.9509976531    0.5604661378
 H   -0.4703330062   -0.8721854436   -0.5663270789
 H    1.5265359381   -0.1553376324   -1.8752764611
 H    1.8454288750    1.1395999217   -0.7041877831
 H    1.9787330384   -1.8768192836   -0.1130427462
 H    3.4758780037    0.2707716951    0.8874377686
 H    1.5383457471    1.4527030884    1.7301083995
 H    0.2149282476    0.8661749283    2.7416397695
 H    1.8394655349    0.1865329907    2.9336700344