16

 C   -0.0224778235    1.5351926319    0.0117558128
 C   -0.0080519031    0.0396886137    0.0087702543
 C   -0.0262862214   -0.7815770481   -1.0634448581
 C   -0.0028974718   -2.2593851274   -0.6949677636
 C    0.0329150171   -2.1668525742    0.8050421950
 N    0.0653577393   -3.0025853577    1.8019256844
 O    0.0853131438   -2.1747305184    2.9393565705
 C    0.0630381498   -0.8736937632    2.5597193810
 C    0.0293935436   -0.7994300751    1.2066482211
 H    0.8668399503    1.9370000889    0.5118457641
 H   -0.0520744786    1.9343925926   -1.0050547916
 H   -0.8929488078    1.9199605525    0.5564059611
 H   -0.0548005158   -0.4458580403   -2.0932919149
 H   -0.8863836491   -2.7961337688   -1.0613488714
 H    0.8718991805   -2.7789969209   -1.1043798373
 H    0.0758042370   -0.1606882456    3.3684939825