21

 C   -0.0227545448    1.4964634890   -0.1420901270
 C    0.0396492616    0.0021990831   -0.0891338508
 C   -0.1600184639   -0.8534527649   -1.0931494142
 C   -0.0107109957   -2.2957422943   -0.6857564240
 O    1.0595221961   -2.9681228182   -1.3638767170
 C    2.2342197698   -2.7793353189   -0.5895509838
 C    1.7627853234   -2.8977034009    0.8658850997
 C    0.3705874016   -2.2272361714    0.8324446979
 C    0.3449645899   -0.7213006495    1.2051787724
 H    0.9281314831    1.9415523075    0.1775981295
 H   -0.2483939730    1.8584898552   -1.1485047523
 H   -0.7898027934    1.8840793158    0.5406449706
 H   -0.3911037622   -0.5730370437   -2.1154900280
 H   -0.9097775015   -2.8859439504   -0.8951789037
 H    2.9572917623   -3.5436276615   -0.8868884393
 H    2.6799930564   -1.7895837661   -0.7788112370
 H    1.6679564814   -3.9542374691    1.1342699664
 H    2.4459128424   -2.4285810006    1.5790644324
 H   -0.3382753729   -2.7843143526    1.4472157065
 H    1.2951153414   -0.3793474246    1.6382285269
 H   -0.4196039019   -0.5058496740    1.9635033147