20

 C   -0.0096874893    1.5790319522    0.0519525417
 C   -0.0377080353    0.0505763330   -0.0242285660
 C    0.7637219966   -0.4985746509   -1.2097105671
 O    2.1211766934   -0.0867105256   -1.1865324434
 C    0.6594792560   -2.0436598457   -1.3426600981
 C    1.2799382693   -2.5498551185   -2.6694281918
 O    1.1958746280   -3.9494146778   -2.8113775360
 C    1.3341707498   -2.6925566090   -0.2161141241
 N    1.9182542986   -3.1873235773    0.6513933515
 H    1.0181606362    1.9462173140    0.1076463465
 H   -0.4740967663    2.0263186135   -0.8336570812
 H   -0.5522031830    1.9366740631    0.9314681100
 H    0.3626227227   -0.3816402725    0.9030709101
 H   -1.0726390900   -0.3044975027   -0.1055085544
 H    0.3609308920   -0.0767832811   -2.1392380776
 H    2.5092906516   -0.3835230867   -0.3535832356
 H   -0.3952805051   -2.3417762580   -1.3238287944
 H    0.7056716584   -2.1193709366   -3.4955704711
 H    2.3090535661   -2.1774102527   -2.7416707599
 H    1.8087161804   -4.3535970907   -2.1871420191