19

 C   -0.0772033771    1.3971504338    0.2512788966
 C    1.4526981238    1.5897216144    0.0194654603
 C    1.6052624694    0.0609250801    0.0047501534
 C    2.6116673101   -0.8717014457   -0.6678336863
 O    2.5935274267   -1.7595149377    0.4744223074
 C    1.8624930903   -0.7967271011    1.2662805613
 C    0.4956607028   -1.2741550255    1.7485004502
 O   -0.4025533187   -1.1271275784    0.6498163828
 C    0.0800685166   -0.0966624858   -0.1837464263
 H   -0.3585574021    1.4826852770    1.3036915683
 H   -0.7551326937    2.0130914452   -0.3423282023
 H    1.6686657843    2.0305083268   -0.9583282655
 H    2.0164542943    2.1403409308    0.7767322146
 H    2.2876504236   -1.3719617566   -1.5883636820
 H    3.6079051455   -0.4349570250   -0.8236203565
 H    2.4832918612   -0.3783622822    2.0678418201
 H    0.5014546582   -2.3261376842    2.0475660072
 H    0.1729492239   -0.6656482108    2.6076960957
 H   -0.2741863091   -0.2936926350   -1.1989562192