19

 O   -0.0157185212    1.4090724421   -0.1267817247
 C    0.0259996604    0.0173920966    0.0967253849
 C    0.4998635176   -0.4247708849    1.4963848484
 C   -0.0030260687   -1.8784674661    1.5914296679
 C   -1.3621275556   -1.8753895452    0.8606332432
 O   -1.6672896334   -3.0678784000    0.1834386419
 C   -2.5147123864   -1.1820530334    1.6254631036
 O   -2.3242832618    0.0369951608    0.8784275854
 C   -1.3702592171   -0.5908409916   -0.0079188200
 H    0.8801182728    1.7515233940   -0.0512260479
 H    0.6469174354   -0.4877779149   -0.6651181346
 H    1.5820878812   -0.3387597398    1.6316853288
 H    0.0117844520    0.2127389830    2.2402511337
 H    0.6698904376   -2.5490021915    1.0444057817
 H   -0.0759148681   -2.2443033638    2.6210760229
 H   -1.5392019024   -3.8042210875    0.7910210950
 H   -3.4918324230   -1.6403920329    1.4267810356
 H   -2.3864572754   -1.0298739241    2.7048848380
 H   -1.7538666939   -0.6761270107   -1.0287591337