18

 O    0.0437082499   -0.0496542920   -0.1903629019
 C   -0.0244169574    1.1545460739   -0.1053964058
 C   -1.3372505685    1.9235665696   -0.0928578002
 N   -1.3107166985    3.0473251739   -1.0357072932
 C   -0.2806472465    4.0222886112   -0.6888174362
 C    1.1646329541    3.4700171084   -0.6193716093
 C    1.8995102048    3.8042007901    0.6945769572
 O    1.5495597900    2.5130098590    1.2466632076
 C    1.2364082730    2.0161815840   -0.0823192290
 H   -2.1516564418    1.2365710100   -0.3357314909
 H   -1.5173301104    2.3256456480    0.9128031943
 H   -1.1750185879    2.7020295307   -1.9816103455
 H   -0.3285809333    4.8488559410   -1.4045840604
 H   -0.5562991175    4.4359217191    0.2893850107
 H    1.7092377758    3.6502661036   -1.5488980225
 H    2.9877787846    3.9109965804    0.5936526309
 H    1.5062314660    4.6319911911    1.2948765139
 H    2.0679596136    1.4223590981   -0.4834692899