16

 N   -0.0278698151    1.4037397022    0.2046441091
 C    0.0074137003    0.0085459491    0.0503237995
 C   -1.1598394097   -0.7487641874   -0.0072429448
 N   -1.1513540482   -2.0883156280   -0.0828750864
 C    0.0004577519   -2.7146097825   -0.1142915072
 O    0.0106719601   -4.0788267582   -0.1883578620
 C    1.2528973328   -2.0656650498   -0.0713736828
 N    2.4234114478   -2.8122890854   -0.1694743855
 C    1.2293487994   -0.6804863828    0.0179234049
 H    0.7487198223    1.8813365403   -0.2323215677
 H   -0.9004237753    1.8165611582   -0.0962286255
 H   -2.1347345608   -0.2682599671    0.0158885579
 H   -0.9170842177   -4.3476087113   -0.1902482361
 H    2.3022257240   -3.7837919904    0.0781275406
 H    3.2318574026   -2.4000268922    0.2728790319
 H    2.1647129557   -0.1288092448    0.0651387341