16

 C   -0.0016626149    1.4617512038    0.0418286838
 C    0.0016400108   -0.0263909530   -0.0387013373
 N    0.0288597785   -0.7067249690   -1.1137676632
 C   -0.0050011205   -2.1291814400   -0.7695124922
 C    0.0404595799   -2.1624067485    0.7692363024
 C    1.1968465460   -1.5007096334    1.4372193228
 N   -0.0548525247   -0.7450247299    1.2171354221
 C   -0.7372149041   -3.1481233459    1.4725572762
 N   -1.3459900020   -3.9750979189    2.0036154452
 H    0.8475972902    1.8144808410    0.6373378681
 H    0.0479366875    1.8926895619   -0.9579299112
 H   -0.9090984559    1.8047155446    0.5491025847
 H   -0.9303095638   -2.5835444854   -1.1390832742
 H    0.8306805331   -2.6585817755   -1.2381715065
 H    1.4136224860   -1.7295142198    2.4751186316
 H    2.0533809839   -1.2530798819    0.8149916378