13

 C    0.0511633090    1.3831032320   -0.1287006856
 O    1.3718251955    1.8403149795    0.1936958224
 C    2.0301363217    0.7604167311    0.6877542933
 N    3.2588948807    0.7411741779    1.1009623730
 C    3.6497349426   -0.4885513623    1.5443541246
 C    2.8137428992   -1.5857983624    1.5463197090
 N    1.5236252867   -1.5363882676    1.1050341129
 C    1.1782082831   -0.3577515907    0.6897503973
 O   -0.0385441432   -0.0108095819    0.1970089077
 H   -0.6811063532    1.9420784426    0.4635559680
 H   -0.1278589511    1.5175802207   -1.2007624778
 H    4.6700404438   -0.5657211243    1.9030612208
 H    3.1595856052   -2.5482080546    1.9066108344