17

 O   -0.0117956682    1.5073991322   -0.1978923410
 C    0.0261282355    0.0949540483   -0.0772406425
 C    0.6639128833   -0.5321913630   -1.2435826234
 C    1.2075879698   -1.0408714746   -2.1870425951
 C    0.7334986978   -0.3365672639    1.2245140556
 O    1.9018214645    0.4926830889    1.4934074714
 C    1.4484920074    0.6968217537    2.8433191398
 C    0.1658238204    1.4587718456    2.8904168416
 C    0.1467976835   -0.0316587496    2.6031312714
 H    0.8951364205    1.7994397483   -0.0301601053
 H   -1.0186318040   -0.2352531311   -0.0195573846
 H    1.6795919780   -1.4861695458   -3.0279064056
 H    1.0363687423   -1.3867006992    1.1464193615
 H    2.1901476913    0.6339495351    3.6301224158
 H   -0.1701916390    1.7062020803    3.8932152755
 H   -0.0866686226    2.1777305057    2.1214759893
 H   -0.3770879204   -0.7484631309    3.2200657958