15

 C    0.0311887084    1.6521260084    0.0212855544
 C    0.0135751963    0.1295733296   -0.0049554912
 C    0.7205490320   -0.5117698493    1.1909014608
 O    0.1439426241   -0.1264094943    2.4200896200
 O   -1.3587889526   -0.3297304323    0.0643840693
 C   -1.9507757379   -0.7792786905   -1.0568338225
 O   -3.0805406775   -1.1642974838   -1.0827170299
 H    1.0595412690    2.0167564724   -0.0640114272
 H   -0.5504536739    2.0632930536   -0.8081828621
 H   -0.3865749468    2.0142328229    0.9629720478
 H    0.4668007802   -0.2478003255   -0.9320202319
 H    0.7127381762   -1.6051060010    1.0633459708
 H    1.7649447949   -0.1835127849    1.2131040878
 H   -0.7818028713   -0.3951490549    2.3898247589
 H   -1.2770428109   -0.7551769902   -1.9359053451