17

 C    0.0102024300    1.5519164732    0.1300999183
 O    1.4530000985    1.4652785107   -0.2211209857
 C    1.1226116252    0.1840327614   -0.7688868714
 C   -0.1498919663   -0.0023145659    0.0101944307
 C   -0.2726417185   -0.9566695425   -1.2069686262
 C    0.3784522788    0.0718565556   -2.1573603953
 C    1.3117388838   -0.6774641258   -3.0989707526
 O    1.8673773407   -1.6762719776   -2.2145492869
 C    1.2963634557   -1.3536322446   -0.9879609075
 H   -0.1137643440    1.9425633977    1.1418049206
 H   -0.5236387336    2.1769577893   -0.5906604932
 H   -0.0474290595   -0.4884377625    0.9825249784
 H   -1.0500839833   -1.6800316505   -1.4573052710
 H   -0.1957418269    0.9100346285   -2.5460414583
 H    0.8047031648   -1.1768171926   -3.9328272143
 H    2.1141248063   -0.0444253169   -3.4972979902
 H    1.6088464684   -2.0279042576   -0.1924104455