16

 O   -0.0400762159   -0.1083107488    0.3781326485
 C   -0.0554018628    1.0779957772    0.1096388008
 N    1.0607531501    1.8156795181   -0.1839832807
 C    2.3830423388    1.2565006673   -0.2053496011
 C    3.2823556001    1.5227545314   -1.4367172884
 O    4.3557281507    1.9805860430   -0.5923177932
 C    3.5084320984    1.9806174975    0.5725128461
 C   -1.2854093118    1.8586777293    0.0702292499
 C   -2.3159437491    2.4773073492    0.0453062688
 H    0.9359036156    2.7945507823   -0.3928457629
 H    2.2840740833    0.2018737129    0.0461086542
 H    3.5678951599    0.6569344614   -2.0433820454
 H    2.9044599400    2.3169812650   -2.0971940621
 H    3.2408804938    2.9983214010    0.8927143576
 H    3.9571249083    1.4452315737    1.4158730403
 H   -3.2348612395    3.0112780095    0.0271920476