19

 C   -0.0564968224    1.4996127329    0.4980924961
 C    0.1049742170   -0.0002542458    0.1383016795
 C    1.1237768004   -0.6530611887    1.0812337467
 C   -1.2779599194   -0.6919847655    0.3623645247
 N   -2.2440088350   -0.3539068363   -0.5265052580
 O   -1.4646065316   -1.4252520726    1.3158165096
 C    0.4915210733   -0.0667780552   -1.3542508270
 N    1.6526015238   -0.6911329654   -1.6692791718
 O   -0.2101388221    0.4370439573   -2.2237532045
 H    0.9124376712    2.0075953358    0.4534749360
 H   -0.7379274978    1.9957762862   -0.1935951082
 H   -0.4475677135    1.5969176440    1.5147629862
 H    0.7700025410   -0.5735261452    2.1095596918
 H    1.2423869214   -1.7216482100    0.8789087559
 H    2.0967175827   -0.1551344743    1.0111902983
 H   -1.9771050641    0.1016318885   -1.3901380472
 H   -3.1285083349   -0.8289887118   -0.4485121546
 H    2.2411291489   -1.1295924171   -0.9854185736
 H    1.9056503412   -0.7433588568   -2.6426612496