19

 C   -0.5359856545    1.2572660844   -0.0568160220
 C   -0.1287278279   -0.1803152821   -0.0700884427
 C    0.1322673827   -0.9733008157   -1.1067874798
 C    0.5270026176   -2.3442000448   -0.6456676277
 O    0.4747521713   -2.2789218901    0.7806020917
 C    0.0518234836   -0.9856877521    1.2133165178
 C    1.0595190663   -0.3893830996    2.1992167940
 C   -1.3283709468   -1.1381906900    1.8696746223
 O   -1.8416838756   -0.3125283582    2.5794551021
 H    0.2385569097    1.8815372719    0.4045778817
 H   -0.7108354951    1.6276432645   -1.0698062979
 H   -1.4463822288    1.4045443639    0.5342379360
 H    0.0980306634   -0.6871805009   -2.1511307838
 H   -0.1536855004   -3.1290546638   -1.0094013516
 H    1.5422206274   -2.6242743450   -0.9668411220
 H    1.9972886447   -0.1546139358    1.6891829527
 H    0.6508111620    0.5167098088    2.6523072287
 H    1.2659063209   -1.1100456105    2.9951321770
 H   -1.8336844105   -2.0913788651    1.5965338336