20

 C   -0.4466479544    1.4059526779   -0.0419122064
 C    0.1967877168    0.0352106852   -0.0464984267
 O    1.4793088368    0.0198809723   -0.7111518667
 C    2.0692770480   -0.7716717679    0.3374896596
 C    0.8289765911   -0.5787819591    1.2450237590
 C    1.0586327897    0.3904503934    2.4014582070
 C    0.1373500054   -1.8720383302    1.7162356613
 C    0.9299977558   -2.6180243886    2.6931226288
 N    1.5778155865   -3.1919080712    3.4591433454
 H    0.1936842154    2.1538653190    0.4311750726
 H   -0.6325668731    1.7221985378   -1.0731353486
 H   -1.4088387642    1.3808973600    0.4810366742
 H   -0.4870440688   -0.6823235728   -0.5291386019
 H    2.2492157854   -1.8086423032    0.0217716994
 H    3.0096810419   -0.3422770133    0.6994662313
 H    1.5862574779    1.2865559995    2.0652075243
 H    0.1129594065    0.7044382084    2.8568849204
 H    1.6660931313   -0.0817361189    3.1800757260
 H   -0.8354998958   -1.6366762856    2.1654894021
 H   -0.0582584122   -2.5285364429    0.8609990390