13

 O    0.3845686522    1.2757629712   -0.2705481224
 C    0.2134361132   -0.0376249135   -0.1415866900
 N   -0.0200326145   -0.8066076162   -1.1742228765
 O   -0.1266976261   -2.0780714478   -0.5711330260
 C    0.0531613322   -1.9057376605    0.7364887413
 C    0.0110771164   -3.1062674992    1.6340452332
 C   -1.2666822723   -3.8107159722    1.5930528139
 C   -2.3168500904   -4.3905721626    1.5638444567
 N    0.2701429297   -0.6705913212    1.0774100324
 H    0.5337677412    1.6325648862    0.6136497171
 H    0.8215782468   -3.7879832232    1.3449441440
 H    0.2296455861   -2.7567171979    2.6472672683
 H   -3.2465133444   -4.9033234431    1.5334453179