16

 O   -0.0302279510    0.0320968038    0.0362900698
 C    0.0188066224    1.2225185654    0.0199167511
 O   -1.0978631040    2.0284197510    0.0577510254
 C   -0.6071966139    3.4047964929    0.0097207918
 C    0.5841849022    3.2624225252   -0.9480520268
 C    1.2188552408    2.1870258776   -0.0433666373
 N    1.2440329132    2.7374820396    1.3512307792
 C    1.4036176287    4.1971207124    1.4660042988
 C    0.0410276668    3.6145092734    1.3748685562
 H   -1.4357551541    4.0524412731   -0.2680144085
 H    0.2715976888    2.8679327438   -1.9164438910
 H    1.1721473299    4.1646985169   -1.1054382366
 H    2.1568988708    1.7177002526   -0.3280319385
 H    1.7613166038    4.5018671888    2.4448128797
 H    1.8158237174    4.7768400345    0.6477221494
 H   -0.6005282717    3.5438388389    2.2474671672