16

 O    0.0619368289    1.3540408936   -0.0589620580
 C    0.1444391358   -0.0067968798   -0.0639047811
 C   -0.0154156807   -0.7727548961   -1.2056215496
 N   -0.0838311771   -2.0833653591   -0.7675744665
 C    0.5529441884   -3.3909149082   -1.0204287578
 C    1.9607354098   -3.4308373670   -0.4878861573
 C    0.7848865065   -3.5277129752    0.4779392066
 C    0.1888940174   -2.1406783656    0.5858135795
 C    0.3389119731   -0.8613248763    1.0728368546
 H    0.2096287865    1.6658864377    0.8382873436
 H   -0.2501534317   -0.4658329009   -2.2113588199
 H    0.1352845569   -4.0893786613   -1.7337459007
 H    2.5097928178   -4.3513447675   -0.6732904950
 H    2.5630207955   -2.5277994783   -0.5050064882
 H    0.6087462284   -4.3861403995    1.1112006274
 H    0.5432410745   -0.5469982465    2.0858107224