19

 O    0.2143088067    1.1729410506   -0.3080128497
 C   -0.0711332569   -0.0892813742    0.2601908915
 C   -1.5542651528   -0.4136060385    0.1755641256
 O   -1.8923624291   -0.4217445854   -1.2041292850
 C   -3.2625195207   -0.5771644753   -1.4600305110
 C   -4.1836200985    0.6656748195   -1.2152406732
 C   -4.6866049554    0.4891395279   -2.6579319257
 O   -5.6178194309    0.9231793773   -3.2693614770
 C   -3.5919338262   -0.5423697570   -2.9735492604
 H   -0.1778623953    1.1589854110   -1.1886647712
 H    0.5004636495   -0.8929014751   -0.2306111688
 H    0.2373036507   -0.0494511592    1.3098107050
 H   -1.7709800101   -1.3918609338    0.6340764151
 H   -2.1353756342    0.3550987045    0.7067620234
 H   -3.6482237780   -1.4775734132   -0.9627016718
 H   -4.9373086905    0.6239974376   -0.4258555556
 H   -3.5957140223    1.5839845176   -1.1058076121
 H   -2.7684713332   -0.0959758474   -3.5414752640
 H   -3.9049246328   -1.4665704670   -3.4633408153