15

 C    0.0518979236    1.4729426457   -0.0140757407
 C   -0.0773644078   -0.0108868930    0.0416661783
 C   -1.1780285891   -0.7289399297   -0.2100483546
 C   -1.1620545508   -2.1778348777   -0.1175040205
 N   -2.1948413890   -2.8900014415   -0.3519948440
 N    0.0997314689   -2.6784938497    0.2525996057
 C    1.2409933293   -1.9581864324    0.5148491085
 O    2.2920611591   -2.4410959168    0.8268978155
 O    1.1145137727   -0.5962014573    0.3969497228
 H    0.8206325815    1.7603827921   -0.7392947556
 H   -0.8960774008    1.9325289827   -0.2964100516
 H    0.3647146930    1.8638418394    0.9600182353
 H   -2.1064681198   -0.2527026092   -0.4882421770
 H   -2.0057828719   -3.8873792882   -0.2403408421
 H    0.2190637110   -3.6770916843    0.3458086501