18

 C    0.2087545361    1.5325802221    0.1355003970
 C    0.1043937190    0.0065299160    0.1534315796
 O    0.4541279711   -0.5305694292    1.4214630691
 C   -1.2896821451   -0.4681419270   -0.2459295166
 C   -1.5910872781   -1.9759873405   -0.1212402276
 C   -2.6488254018   -1.5372174316    0.9218468123
 O   -2.2519010563   -0.1557653257    0.8107065285
 C   -4.0498926244   -1.7481443726    0.5432003908
 N   -5.1501952966   -1.9302935682    0.2407701082
 H    1.1957230932    1.8429939802    0.4864929846
 H    0.0558500343    1.9280528943   -0.8738940286
 H   -0.5498932234    1.9747707903    0.7903524855
 H    0.8224155381   -0.4236190139   -0.5565852030
 H   -0.2000729836   -0.1882994330    2.0436456712
 H   -1.6006337466   -0.0168724280   -1.1955955067
 H   -1.9809666884   -2.4678607010   -1.0108883554
 H   -0.7749887352   -2.5508783134    0.3143759415
 H   -2.4973967524   -1.9203592487    1.9368915497