17

 C   -0.0065012081    1.4995853068   -0.1724422704
 C   -0.0478576688    0.0033365417    0.1375280368
 N   -1.3912005720   -0.5483841020    0.0370980301
 C   -1.8930065119   -1.3530655221   -0.9348629710
 C   -3.2163608683   -1.5730726467   -0.6293986172
 C   -3.4299128107   -0.8449033076    0.5678357697
 N   -2.3065860855   -0.2232791403    0.9614427320
 C   -4.6335142534   -0.7431149554    1.3100642736
 C   -5.6723838456   -0.6773822369    1.9140676167
 H    1.0136973465    1.8778017913   -0.0580481969
 H   -0.3364533778    1.6971112571   -1.1966104368
 H   -0.6605822498    2.0425891507    0.5133152976
 H    0.5831802987   -0.5609101104   -0.5546966411
 H    0.3126014653   -0.1873750132    1.1523985625
 H   -1.2767197376   -1.7011328081   -1.7487971932
 H   -3.9305686400   -2.1697842567   -1.1713472556
 H   -6.5834639712   -0.6129028683    2.4550843033