21

 C   -0.0299948694    1.5237732948    0.0457805667
 C    0.0063330032    0.0219588801   -0.0144946262
 C   -0.0366168254   -0.6463314640   -1.1728030479
 C   -0.0437960325   -2.1255410739   -1.2640044863
 C   -0.4170128911   -2.7844439152   -2.5261165563
 O    0.9557962154   -2.6794784342   -2.1632353740
 C   -0.2242085449   -2.8603145567    0.0503755607
 C    0.5532013827   -2.1561323616    1.1674147820
 C    0.0884560013   -0.7014685638    1.3119418506
 H    0.8763293410    1.9211981450    0.5204226909
 H   -0.1200393749    1.9691403095   -0.9483949243
 H   -0.8753666745    1.8718437460    0.6538539700
 H   -0.0616422003   -0.1050976927   -2.1157025024
 H   -0.8375736625   -3.7904472265   -2.4978628383
 H   -0.7264861925   -2.1829171595   -3.3813234134
 H   -1.2929586144   -2.8796028242    0.3041728205
 H    0.1038388337   -3.8963451146   -0.0747702196
 H    0.4330827017   -2.6892140514    2.1160508289
 H    1.6219766279   -2.1723114613    0.9224869836
 H    0.7634263108   -0.1531160296    1.9814473894
 H   -0.8972641352   -0.6660341061    1.8018253754