21

 C   -0.3243967473    1.4659205612    0.0497801256
 C    0.2111990713    0.0393899963   -0.1275112324
 C    0.8739001852   -0.4969384783    1.1221405562
 C    2.2025651449    0.1167119459    1.5895675261
 N    3.0633050180   -0.9501942019    2.1552030284
 C    2.6333756838   -1.5289027343    3.4319117251
 C    2.2654536700   -2.1981717466    2.1576286931
 C    0.9193756174   -1.9377634299    1.5209964954
 N   -0.0383136190   -1.0196298188    2.1533909267
 H    0.4810872207    2.1748312013    0.2709584409
 H   -0.8292161087    1.8125627484   -0.8568905956
 H   -1.0435042883    1.5042011735    0.8739826794
 H   -0.6151259580   -0.6294732967   -0.3895927203
 H    0.9278596697    0.0074552963   -0.9583663722
 H    2.7280357630    0.5427927659    0.7276988255
 H    2.0663219064    0.9266688304    2.3165188634
 H    3.4411421481   -1.9306487175    4.0393380059
 H    1.8650071487   -1.0264254981    4.0158227108
 H    2.7777905172   -3.1077732131    1.8551748080
 H    0.4773804229   -2.7342382395    0.9297505914
 H    0.2457363238   -0.7644387444    3.0941012087