17

 C   -0.2208429719    1.4405648418    0.0063881764
 C    1.2233189298    1.0128385042   -0.0238223750
 C    0.1356566498   -0.0344214860   -0.0004128982
 C   -0.0955939845   -0.9427046221    1.2191625301
 C   -0.8732500538   -2.1724669448    0.6710194659
 C   -0.7148116482   -2.0506381656   -0.8278126108
 C   -0.1753251764   -0.8839725005   -1.1801142159
 H   -0.6122962159    1.8577674534    0.9288258164
 H   -0.6500519717    1.8690905577   -0.8935491612
 H    1.7828243637    1.1528797856   -0.9433458756
 H    1.8134478451    1.1425221335    0.8782508117
 H    0.8685326549   -1.2656350961    1.6266317988
 H   -0.6314077723   -0.4335864409    2.0250284770
 H   -0.4805915942   -3.1178110610    1.0628500552
 H   -1.9353576866   -2.1457003578    0.9516556507
 H   -1.0441423519   -2.8215075029   -1.5154239821
 H    0.0079094343   -0.5511893085   -2.1965519534