17

 C   -0.1084759069    1.3312786165    0.0521583831
 C    0.0262078680   -0.1760713764   -0.0066856698
 O   -0.2696988196   -0.9190840937    0.9045053212
 N    0.6074864093   -0.6696397251   -1.1710781716
 C    0.1967081142   -0.4910304551   -2.5477378031
 C    0.1436004785   -1.8395405166   -1.8836556290
 C    1.1624627480   -2.9299950091   -2.1023442567
 O    1.2725931271   -3.7471948333   -0.9536391106
 H    0.7996485444    1.8187755238   -0.3125946657
 H   -0.9359921761    1.6594491026   -0.5870647381
 H   -0.3148560773    1.6345465155    1.0782936310
 H   -0.7515540178    0.0041210323   -2.7460199076
 H    0.9905401609   -0.2585735630   -3.2536331392
 H   -0.8444345863   -2.1987159373   -1.5976078389
 H    0.8537690215   -3.5851632206   -2.9244816457
 H    2.1255568834   -2.4708963528   -2.3776437812
 H    1.2981128689   -3.1625740575   -0.1858885883