15

 C    0.1032506151    1.0550329695    0.3704792761
 O   -0.1781713879    0.0273247622   -0.5644385696
 C   -1.3768306282   -0.6216083898   -0.3192059166
 C   -1.5171582020   -1.9914459055   -0.8502101900
 C   -1.4295123134   -1.7975037489    0.6693395269
 C   -0.1932486897   -2.2371814426    1.3504245820
 O   -0.1559049702   -2.6835551157    2.4725442014
 H    1.0400002164    1.5207680505    0.0584616299
 H   -0.6904499818    1.8159833402    0.3804483531
 H    0.2178447860    0.6556884855    1.3878100270
 H   -2.2532018851    0.0284327671   -0.3083502078
 H   -2.4666365535   -2.3120791904   -1.2614733349
 H   -0.6399231667   -2.4138629922   -1.3292997202
 H   -2.3346751713   -1.9187666771    1.2540915981
 H    0.7307816424   -2.1299022228    0.7404654146