21

 C    0.1086064558    1.3660602043    0.1534557179
 O    0.2130167941   -0.0346598335    0.0895827580
 C    0.4855515956   -0.5021743566   -1.2160090522
 C    0.5704756208   -2.0042137815   -1.1602166894
 C    1.1784426310   -2.8304068714   -2.2603960538
 C    1.7599809612   -2.2352521962   -3.5240074842
 C    1.8994970867   -2.7192274186   -0.9155576045
 C    3.1214426584   -1.9802158221   -0.8006452449
 C    4.1565654496   -1.3733898670   -0.7032609694
 H    1.0446799728    1.8615538720   -0.1498463916
 H   -0.7023979627    1.7473521017   -0.4886411626
 H   -0.1098909856    1.6314647958    1.1907893435
 H   -0.3210858476   -0.1938561423   -1.9049251351
 H    1.4224235881   -0.0642000333   -1.5909710361
 H   -0.2775250073   -2.4451297582   -0.6439964609
 H    0.6983096908   -3.7932976804   -2.4146769778
 H    2.3485272262   -1.3381413916   -3.3213699634
 H    2.4231853613   -2.9554355806   -4.0142927368
 H    0.9678856894   -1.9740576051   -4.2340687571
 H    1.8484549713   -3.5951889243   -0.2755335307
 H    5.0686859201   -0.8391015811   -0.6060813986