17

 O   -0.0219645017    1.4452562008   -0.0581456841
 C    0.0180314306    0.0341103515   -0.0090040616
 C   -1.3752160225   -0.5687852748    0.0313803994
 O   -2.0229381192   -0.1790284773   -1.1776648475
 C   -3.3178998698   -0.5515229353   -1.3002910057
 C   -4.1090724517   -1.2736072080   -0.4539054798
 O   -5.3560675057   -1.4060868129   -1.0023427302
 C   -5.3401644751   -0.7647233243   -2.1940015296
 C   -4.1220276795   -0.2187018779   -2.4393516389
 H   -0.5959191621    1.6740787193   -0.7980518232
 H    0.5657496318   -0.3873158388   -0.8667204964
 H    0.5582289161   -0.2416636043    0.9024058080
 H   -1.3335813822   -1.6655147777    0.1010632985
 H   -1.9373538445   -0.1784160010    0.8911846941
 H   -3.9601599902   -1.7364091776    0.5046634244
 H   -6.2634409484   -0.7829451293   -2.7493382144
 H   -3.8140335860    0.3464961374   -3.3039128530