20

 C   -0.2123572497    1.4516302167   -0.0692059250
 C    0.0251280935   -0.0288717410    0.0544536522
 O   -1.2007149844   -0.8017504913   -0.0091461077
 C   -0.8935254842   -1.4785546732    1.2343062682
 C    0.4935750307   -0.8242417194    1.3122497942
 N    1.6446239108   -1.4079632463    0.5480334729
 C    1.4558711380   -2.7261121461   -0.1430041682
 C    0.9837270645   -2.0250150671   -1.4500581031
 C    1.2090329935   -0.6885987756   -0.7072520111
 H    0.7234019891    2.0067379668    0.0496507938
 H   -0.6233777248    1.6830724439   -1.0586991286
 H   -0.9262926529    1.7994334794    0.6831447434
 H   -1.5651563355   -1.1499583318    2.0385951364
 H   -0.9580296620   -2.5678526665    1.1475082992
 H    0.7885143663   -0.3892989838    2.2689610989
 H    2.4106452465   -3.2538649447   -0.2290586536
 H    0.7414341538   -3.4051686835    0.3303986037
 H    1.6251444962   -2.1816292311   -2.3192772861
 H   -0.0557461299   -2.2083787213   -1.7251302726
 H    1.9292314406    0.0128563759   -1.1433245371