22

 C   -0.0210152442    1.4304480172   -0.0523473797
 C   -0.0358746224   -0.0876820395   -0.0483608631
 C   -1.3008480315   -0.6754407588    0.5449822154
 C    0.7374010481   -0.7353745454   -1.1374439604
 N    1.3184995964   -0.6103989899    0.2741575653
 C    1.2448614196   -2.1132045743    0.3893596686
 C    0.7411793496   -2.2423952863   -1.0502569212
 C   -0.1904177780   -3.2375650016   -1.6835297371
 C    1.2636664107   -3.1798567034   -2.0947346806
 H    0.9328531886    1.8072322764   -0.4293542288
 H   -0.8286420276    1.8266994421   -0.6776711063
 H   -0.1564982917    1.8172494454    0.9635401546
 H   -2.1755713927   -0.2194087296    0.0692719333
 H   -1.3817885430   -1.7541892943    0.4102258047
 H   -1.3579057133   -0.4537300663    1.6172048957
 H    1.1462215980   -0.1680213617   -1.9707724017
 H    2.2519131592   -2.5107689590    0.5404449075
 H    0.5964993977   -2.4741363194    1.1944899747
 H   -0.5162671772   -4.0818151735   -1.0838618091
 H   -0.9366466744   -2.8727380481   -2.3820281871
 H    1.5012520341   -2.7724009631   -3.0726345550
 H    1.9199768439   -3.9840364168   -1.7764833098