21

 C    0.0391907925    1.5822626662   -0.0636094838
 C    0.0435632326    0.0521365643    0.0370780552
 C    0.7237044819   -0.6411236406   -1.1708847192
 C    1.4533676603   -1.8908234248   -0.6065520106
 C    2.8166726275   -2.0838080254   -1.2412282921
 O    3.2114411603   -3.0975962366   -1.7552003488
 C    1.5550755987   -1.5606006557    0.8697854993
 C    0.8033101445   -0.5164007298    1.2256689207
 C    0.6243023428    0.0198916774    2.6115848756
 H    1.0615965715    1.9747600922   -0.1046796106
 H   -0.4818272913    1.9088776097   -0.9694287341
 H   -0.4657916168    2.0427091866    0.7913904237
 H   -1.0041948783   -0.2788130469    0.1147166631
 H    0.0255263581   -0.8953204002   -1.9717350142
 H    1.4661760101    0.0458111643   -1.5983301320
 H    0.8896072881   -2.8176510950   -0.7704993496
 H    3.4623762798   -1.1737409337   -1.1864129951
 H    2.1449184842   -2.1619687638    1.5539193568
 H    1.2008133135   -0.5535525204    3.3419435563
 H    0.9373347786    1.0686686080    2.6793906100
 H   -0.4313028689   -0.0090007959    2.9115677695