21

 C   -0.1741335738    1.3575999561    0.0655774612
 N    0.0029134982   -0.0786594708   -0.0661074342
 C   -0.0508651602   -0.9139820265    1.1212184862
 C   -1.4265176765   -0.9556042392    1.7685644575
 C   -1.6090254254   -1.5687928452    3.1153586928
 N   -1.8464110626   -0.1463369411    2.9179585571
 C   -0.9250964677    0.7742558933    3.5656644771
 C    0.2421543453   -0.6175114857   -1.2975533772
 O    0.3132327194   -0.0007058503   -2.3391845087
 H    0.5883253442    1.7836900929    0.7288114325
 H   -0.0739352701    1.7933882780   -0.9285357065
 H   -1.1629526569    1.5985431469    0.4706100900
 H    0.2173112671   -1.9313237014    0.8144609898
 H    0.7118337691   -0.5922484235    1.8417342690
 H   -2.2235824115   -1.0884408112    1.0375534943
 H   -2.4774425624   -2.1846140600    3.3341520278
 H   -0.7026590501   -1.8591365322    3.6489629268
 H    0.1126635264    0.4124425197    3.6450301667
 H   -0.9189881309    1.7284426493    3.0303542846
 H   -1.2868252211    0.9604076920    4.5817176230
 H    0.3697185395   -1.7169134312   -1.2422551398