16

 N   -0.0048825980    1.4310561038    0.1552024292
 C   -0.0844390926    0.0489981188    0.0555294516
 C   -1.1277417549   -0.8273731697    0.0346640217
 C   -0.5234170735   -2.1365280880    0.0151102463
 N   -1.2561693757   -3.3225139726   -0.0096749588
 C   -0.7491419903   -4.5927638549   -0.0359188739
 N    0.5029286659   -4.8427612289   -0.0461068972
 C    0.8250455463   -1.9596086696    0.0223154517
 O    1.0948248349   -0.6008556592    0.0478206594
 H    0.8478940626    1.7952614419   -0.2504337027
 H   -0.8128944087    1.9014487687   -0.2280608884
 H   -2.1795978820   -0.5887987145    0.0378959694
 H   -2.2569540396   -3.2305597614    0.0008579764
 H   -1.5484094556   -5.3435455567   -0.0470727632
 H    0.6578646449   -5.8475630614   -0.0662728251
 H    1.6627676563   -2.6265018762    0.0102733535