21

 O   -0.1472000812    1.5298125773    0.0788337490
 C   -0.0031815393    0.1188156509    0.0358710961
 C   -1.3956697585   -0.4899628977   -0.0784577017
 C   -1.3840193070   -2.0116842159   -0.1155019092
 C   -1.0173418597   -2.7919008600    1.1802077298
 C   -2.2056875043   -3.7761962844    0.9187139692
 C   -2.7488506450   -2.7530196415   -0.1341766772
 C   -1.7612688567   -5.0693447311    0.2949491818
 O   -2.0692543614   -6.1682915896    0.6801454071
 H    0.7273477847    1.9202210128    0.1643578964
 H    0.6100136683   -0.1946690912   -0.8255139848
 H    0.4966465124   -0.2583509438    0.9432479938
 H   -1.9987688651   -0.1424609932    0.7701963445
 H   -1.8739480026   -0.0966197293   -0.9842873552
 H   -0.7591880154   -2.3541462807   -0.9491568614
 H   -0.0174574523   -3.2298556365    1.2445068679
 H   -1.1934039091   -2.2004714105    2.0832534144
 H   -2.8538491110   -4.0026693520    1.7665769122
 H   -3.5549340574   -2.1478992215    0.2894872251
 H   -3.0885749622   -3.1585730827   -1.0911653222
 H   -1.0936425372   -4.9445634597   -0.5928108458