22

 C   -0.0947971380    1.4282756788    0.0339846024
 C    0.2053689012   -0.0593325753    0.0918588673
 O    0.4718047226   -0.5065541210   -1.2289767331
 C    0.7212537760   -1.8790052124   -1.3539845487
 C    0.7770240713   -2.2027927054   -2.8547726168
 C   -0.5370250817   -1.8992744759   -3.5769951354
 C    2.0554489169   -2.2799136502   -0.6837299357
 N    2.1409025963   -3.6016697275   -0.3501139812
 O    2.9598594563   -1.4936001851   -0.4929091798
 H    0.7645889499    1.9727907586   -0.3665426365
 H   -0.9577279850    1.6252327197   -0.6088870324
 H   -0.3126023537    1.8108651414    1.0356899267
 H    1.0719992397   -0.2513918599    0.7375838513
 H   -0.6551048067   -0.6132133879    0.5050698254
 H   -0.0963340669   -2.4594193516   -0.8846501955
 H    1.5940708237   -1.6135263272   -3.2858124632
 H    1.0464882160   -3.2581975377   -2.9769198846
 H   -1.3561067288   -2.5131760905   -3.1849415024
 H   -0.8107721033   -0.8500647336   -3.4468967968
 H   -0.4493221357   -2.1040563430   -4.6482171485
 H    1.3809401984   -4.2449958790   -0.4836658938
 H    3.0024726314   -3.9437919751    0.0426735715