16

 O   -0.2257333843    1.3693656729   -0.1036540366
 N    0.0333187874   -0.0211231256    0.0326606068
 C   -1.0611928511   -0.6560479652    0.0020179456
 C   -2.5385075560   -0.2528558551   -0.0327755343
 O   -3.0175319410    0.4164723258   -1.1730435402
 C   -2.8952623173   -1.7403885583    0.0655643729
 C   -2.2640256747   -2.4913617630   -1.0715010243
 C   -1.3945497270   -2.1033391681    0.1133887548
 O   -0.7825627289   -3.0264271904    0.9288191228
 H    0.6583362015    1.7476042634   -0.0546274479
 H   -2.7930582190    0.2820198825    0.8944496845
 H   -2.4864376979    1.2165814457   -1.2628513136
 H   -3.6974809197   -2.1505539591    0.6635296444
 H   -2.4923164726   -3.5523140346   -1.0933361399
 H   -2.1477465612   -2.0183708335   -2.0408099640
 H   -0.0386754882   -3.4103076974    0.4511998991