9

 O    0.1055819993    1.2910077282   -0.1291418102
 C    0.0669875091   -0.0447821159   -0.0573384856
 N   -0.0313791042   -0.7898360658   -1.1437977676
 N   -0.0349732563   -2.0408598625   -0.5990320337
 C    0.0582827737   -1.9766653231    0.7380041549
 N    0.1259235535   -0.7150064772    1.1268893409
 H    0.1778047684    1.6127197856    0.7774022054
 H   -0.1021160418   -2.8439149308   -1.2012233184
 H    0.0735497784   -2.8462166284    1.3774835043