18

 C    0.1900508230    1.5795322434   -0.0552999647
 C    0.0672763550    0.0661204710    0.0206316682
 O    0.7432718506   -0.4974552086   -1.1073190494
 C    1.2458886841   -1.7836712781   -0.7859202187
 C    1.4609490340   -1.7770719062    0.7239236952
 N    2.1899870587   -0.5518116218    1.1612717104
 C    0.7217693106   -0.5852747911    1.2283894803
 C    1.5935239605   -3.0015648061    1.4480433135
 C    1.7278008269   -4.0439265284    2.0338951404
 H    1.2401023602    1.8692686476    0.0284781131
 H   -0.2004731163    1.9408313419   -1.0103337956
 H   -0.3792415329    2.0533218737    0.7507717665
 H   -0.9956428264   -0.2306977230    0.0123271030
 H    0.5320283306   -2.5813212483   -1.0429957221
 H    2.1700086377   -1.9355783352   -1.3512955304
 H    2.5689992092   -0.7247337244    2.0902488982
 H    0.2159728659   -0.5929714467    2.1876802698
 H    1.8412990787   -4.9616587096    2.5560950723