20

 C    0.0151906675    1.6124173726    0.0396743833
 C   -0.0001897510    0.0904353564    0.0240632756
 O    0.5270211764   -0.3732368880    1.2540825074
 C   -1.4092973544   -0.4792549005   -0.1772599585
 N   -1.3766605393   -1.9307041282   -0.0699603609
 C   -0.9205337907   -2.7106810864   -1.2506830506
 C   -2.1179000581   -3.6463184210   -1.0254029045
 O   -2.4645424588   -4.7013852669   -1.4589749051
 C   -2.6693111607   -2.6549823431    0.0105955756
 H    1.0318665574    1.9741936507    0.2134101616
 H   -0.3384571741    2.0183658706   -0.9133376582
 H   -0.6223286554    1.9927309219    0.8442326383
 H    0.6312546837   -0.2598073460   -0.8139239767
 H    0.2164642337   -1.2862386204    1.3350450736
 H   -2.0563265982   -0.0985074830    0.6215969291
 H   -1.8277329587   -0.1405913588   -1.1438600511
 H   -1.0020041123   -2.1690822982   -2.2071310525
 H    0.0795607738   -3.1482510194   -1.1747449893
 H   -2.9262207637   -3.0497418006    0.9988835729
 H   -3.5299971770   -2.0939790618   -0.3865793799