18

 C   -0.0682179220    1.5425384690   -0.0504793049
 C    0.0813427301    0.0409804243    0.0964382027
 C    1.3338554093   -0.7644223826   -0.1797379954
 C    2.5827190351   -0.0129960932    0.2911074004
 C    2.0069965478   -0.0464782464    1.7520002200
 O    1.8164347420    1.1562485224    2.4708860113
 C    0.7351827979   -0.7017294238    1.2315837739
 O    0.0882211950   -1.7159542809    1.9210224457
 H    0.7690156512    2.0853309149    0.3890223798
 H   -0.1540994688    1.8232672333   -1.1065494433
 H   -0.9754964472    1.8871514009    0.4580290083
 H   -0.7966562230   -0.5162207991   -0.2291600003
 H    1.3296963488   -1.5994799343   -0.8690481434
 H    3.5094078162   -0.5817228253    0.1863205513
 H    2.7292903147    0.9856224413   -0.1293952236
 H    2.5584232198   -0.7802459916    2.3546262277
 H    2.6666134117    1.4339714842    2.8263429616
 H   -0.6465222587   -1.3268333031    2.4073841882