21

 O   -0.0894201140    1.3783455863    0.0677416789
 C    0.0462553563   -0.0382611604    0.0164567146
 C    0.6996030799   -0.5445165794   -1.2893514375
 C   -0.0635343614   -1.8373239432   -1.6271549093
 C   -1.5167272865   -1.4802022286   -1.2635458248
 C   -1.3881877645   -0.6638967454    0.0255215179
 O   -1.4492334216   -1.5284330419    1.1581486028
 C   -0.5483848676   -1.0135197869    2.1279644350
 C    0.6798414748   -0.6034189494    1.3116866810
 H    0.7893450970    1.7621457901   -0.0204222743
 H    0.5189557345    0.2057704209   -2.0681616745
 H    1.7819433347   -0.6839637720   -1.1999463893
 H    0.0621753686   -2.1485601667   -2.6675941901
 H    0.2841855849   -2.6614922710   -0.9939750216
 H   -1.9542386477   -0.8522070506   -2.0482320856
 H   -2.1670436788   -2.3467722779   -1.1232721835
 H   -2.1370750699    0.1334404331    0.1166098243
 H   -0.9809185190   -0.1413586762    2.6439846926
 H   -0.3610170464   -1.7981145600    2.8656668519
 H    1.2921577397   -1.4845761417    1.0943973752
 H    1.3081955869    0.1421024309    1.8066615463