18

 O    2.2915841316    2.9408699515    2.1895858595
 C    1.3826866941    2.8742733861    1.3910415340
 N    1.4205016237    2.1845446695    0.2136262496
 C    2.5138529206    1.3168550118   -0.1341566809
 C    2.5620972125    0.0058937231    0.6521729259
 C    1.3764493441   -0.8182997005    0.4384690220
 C    0.3835906514   -1.4683470064    0.2459115725
 C    2.9421550501    1.3335533490   -1.5778695034
 C    3.8090566133    1.9755800808   -0.5213177116
 H    0.4136072406    3.3951521006    1.5288466449
 H    0.5454961552    2.0476426297   -0.2707673435
 H    3.4602346995   -0.5541189181    0.3660292557
 H    2.6676273270    0.2478869139    1.7163097120
 H   -0.4828732473   -2.0613023331    0.0876676799
 H    3.2615595732    0.3949790232   -2.0168048124
 H    2.4027878923    1.9868071147   -2.2546717482
 H    3.8451857210    3.0565865668   -0.4772437735
 H    4.7298471769    1.4811393073   -0.2335899426