18

 C   -0.0687869927    1.4400382961   -0.0136283685
 C    0.0243698409   -0.0641052381   -0.0849386586
 C    0.7661908114   -0.7127805281   -1.1911074413
 N    1.3595170942   -0.6184347748    0.2095262163
 C    1.1761431626   -2.1126005860    0.3440975781
 C    0.6612662727   -2.2156187694   -1.0943538725
 C   -0.2643123917   -3.1395878929   -1.7842842283
 N    1.1924763248   -3.1804222535   -2.0470865386
 H    0.8315997699    1.9012260820   -0.4287165183
 H   -0.9365639886    1.8037334398   -0.5739444833
 H   -0.1680583049    1.7720237826    1.0247390976
 H   -0.8341074022   -0.6004205011    0.3218386858
 H    1.1805075407   -0.1570101709   -2.0290959477
 H    2.1416111333   -2.6047732916    0.4778142335
 H    0.4966827640   -2.3997308315    1.1538948901
 H   -0.6550319474   -4.0127750408   -1.2683773056
 H   -0.9250739499   -2.7281882524   -2.5438575169
 H    1.4013854329   -2.7256292995   -2.9334352416