18

 C   -0.0134851546    1.5530692213    0.0198069548
 O    1.3656949908    1.9704761423    0.0143493317
 C    2.1299487285    0.7686184573   -0.0703531352
 C    1.8971297867    0.0959634655   -1.4247913583
 C    1.6048786043   -1.3446517310   -1.2014352874
 C    1.7997439236   -1.6435175649    0.2774671632
 C    1.3630987984   -0.2704227318    0.7858975405
 C    0.0608273601    0.0247690388    0.0046678944
 N    0.4830724812   -0.3866387553   -1.3711704058
 H   -0.5061653998    1.9401979094    0.9203030122
 H   -0.5302755688    1.9400603625   -0.8655369789
 H    3.1638906786    0.9907552798    0.1942596449
 H    2.2479160863    0.5212187636   -2.3568382491
 H    1.7167809407   -2.0950055228   -1.9746124662
 H    1.1616653054   -2.4581369518    0.6354726045
 H    2.8391073054   -1.8834116328    0.5241631994
 H    1.3572887421   -0.0874263360    1.8585371843
 H   -0.8488268691   -0.4903514639    0.3162254409