22

 C   -1.6064374853   -0.4128240525   -0.5661885761
 C   -0.1384343746   -0.1586947318   -0.1972024284
 C    0.2607335710   -0.9526081074    1.0539799866
 C    0.7823848425   -0.4808485204   -1.3959358167
 O    0.3945452385    0.2337567159   -2.5701756112
 C    2.2538046359   -0.2487836205   -1.1114168871
 C    2.7825849834    1.1456444210   -0.9095194059
 N    2.9861291079   -1.2956369864   -1.0897664024
 O    4.3313701295   -0.9820825615   -0.8316785702
 H   -1.8857155718    0.1200881370   -1.4775141076
 H   -1.7802739342   -1.4814110952   -0.7398786589
 H   -2.2708152908   -0.0945792096    0.2433786480
 H   -0.0239984804    0.9138842186    0.0278108758
 H    0.2011315840   -2.0304145105    0.8648822694
 H    1.2821725025   -0.7321490223    1.3750598834
 H   -0.4131310626   -0.7216743895    1.8849413027
 H    0.6692034296   -1.5389869523   -1.6519080796
 H    0.3440285654    1.1699330048   -2.3481924180
 H    3.2998196625    1.2235440048    0.0517864886
 H    3.5215657941    1.3854564644   -1.6804320467
 H    1.9896048441    1.8962633284   -0.9411065726
 H    4.7495734387   -1.8489931952   -0.8616900732