20

 C    0.4501565078    1.0982499197    0.6928667998
 C   -0.4540603465    0.7167796553   -0.4774640941
 N    0.2788359894   -0.0849977719   -1.4571480554
 C   -0.5097912109   -0.6972057838   -2.5628039426
 C    0.5198056806   -1.8494524641   -2.7099758521
 O   -0.4603724527   -2.9156927570   -2.7060754657
 C   -1.0119266431   -1.9610010101   -1.7428778202
 C   -2.3096603513   -2.3391178334   -1.0997469656
 C    0.4193555335   -1.5480000304   -1.1907545943
 H    0.7786534346    0.2111020532    1.2450544085
 H    1.3416951656    1.6184031229    0.3317211303
 H   -0.0772606008    1.7507587134    1.3953749336
 H   -1.3607488710    0.2168197252   -0.0960328869
 H   -0.7908950775    1.6249129228   -0.9929799465
 H   -1.0211128382   -0.1219923066   -3.3368207062
 H    1.3967717234   -1.9241295108   -3.3494541600
 H   -2.1947053754   -3.2792528180   -0.5506603875
 H   -2.6528972700   -1.5694858314   -0.4052332441
 H   -3.0771884918   -2.4841539708   -1.8668679555
 H    0.9947349742   -1.9717026042   -0.3664459653