19

 C    0.4733866132    1.0365425487   -0.6358329213
 C    0.0015539426   -0.0503005074    0.3306331949
 O    0.0953560825    0.3978503575    1.6961668055
 C   -1.3766965795   -0.5746792207    0.0571653067
 C   -2.3207411098   -0.4103260014   -0.9467663415
 N   -2.2597592063    0.4289762209   -2.0804184416
 C   -3.4546142717   -1.2039774445   -0.6017670980
 C   -3.1791094221   -1.8265602039    0.5942577825
 N   -1.9252785379   -1.4599160644    0.9749210575
 H    1.4219365797    1.4419174768   -0.2751215384
 H    0.6424454294    0.6318829704   -1.6400768423
 H   -0.2538985370    1.8508537640   -0.7087199293
 H    0.7297156783   -0.8737895906    0.3010997770
 H   -0.5948950402    1.0615496182    1.8156193738
 H   -1.3370268305    0.4840297486   -2.4893642338
 H   -2.9095125556    0.1255606798   -2.7945231883
 H   -4.3638651469   -1.2972825747   -1.1769969283
 H   -3.7771959510   -2.4929910855    1.1949702645
 H   -1.4855714871   -1.6614921118    1.8561784203