23

 C   -0.5492985452    0.6049173595   -2.4585223019
 C   -0.0991965867   -0.2472073549   -1.2628423576
 C    0.6143485938    0.6026675916   -0.2002807018
 C   -1.2971113398   -0.9331113579   -0.6370815543
 O   -1.9604863620   -1.9875111784   -1.3676033307
 C   -1.3383857066   -2.3061324086   -0.1109285195
 C   -0.2017789755   -3.3265419323   -0.1969849260
 C   -0.7024159008   -4.7239788496    0.1856536832
 O    0.3754689491   -3.3363418718   -1.4913549666
 H    0.3088055256    1.0872090127   -2.9371813028
 H   -1.0581393335   -0.0085791374   -3.2078518741
 H   -1.2426591548    1.3939632824   -2.1429410362
 H    0.5904260827   -1.0180219588   -1.6158369197
 H   -0.0503040813    1.3761766332    0.2030321961
 H    0.9634451597   -0.0093474634    0.6376794732
 H    1.4838396775    1.1072615173   -0.6324038733
 H   -2.0123403803   -0.2342876495   -0.1926248404
 H   -2.0501134619   -2.5069685277    0.6920848882
 H    0.5928051333   -3.0303055980    0.5010821955
 H    0.1072233962   -5.4492160810    0.0740545693
 H   -1.0538245829   -4.7501304936    1.2230761041
 H   -1.5293272244   -5.0277748771   -0.4654324340
 H   -0.3473242024   -3.1130815165   -2.0955783409