14

 N    0.0303281751    1.3210722730    0.1520797187
 C    0.0213668972   -0.0523860259    0.0398709867
 N   -1.1155103117   -0.6656832493    0.0042381843
 O   -1.0953486295   -2.0667005532   -0.0023832012
 C    0.0661329027   -2.8166726018   -0.0108833950
 N    0.0145211663   -4.0878867916   -0.0207108816
 C    1.3154768122   -2.0862179004   -0.0141338817
 C    1.3070244144   -0.7450206680    0.0128278754
 O    2.3864938523    0.0708768977    0.0025974819
 H    0.8325788674    1.7827729172   -0.2476378020
 H   -0.8570363140    1.7595727617   -0.0475093899
 H   -0.9559812607   -4.4044639222   -0.0209379184
 H    2.2247952953   -2.6750316789   -0.0390277084
 H    3.1927197029   -0.4574755883   -0.0322691286