23

 C   -0.1279605969    1.4595745637    0.1240538122
 C    0.0390513590   -0.0426019611    0.0356311089
 C    0.5479216469   -0.6010539962   -1.2856078382
 C    1.4153775389   -0.6396073064   -0.0438779884
 C    2.7141394249   -0.0251501232    0.3687334487
 O    1.3242068086   -2.0708374340    0.0455193687
 C    0.6097342082   -2.1317947000   -1.2399103217
 C   -0.6845492862   -2.9238466424   -1.1285822826
 C    1.5384076115   -2.7095699475   -2.3021838810
 H    0.6283060055    1.9877787410   -0.4657946150
 H   -1.1084373621    1.7647756403   -0.2575282579
 H   -0.0481375490    1.8102259872    1.1587381499
 H   -0.7052189487   -0.6146986225    0.5860964887
 H    0.6238269860    0.0042446094   -2.1812736054
 H    2.6962156849    1.0608347578    0.2473062333
 H    2.9129655318   -0.2436071173    1.4246106174
 H    3.5454797909   -0.4281182277   -0.2181617598
 H   -1.3620710598   -2.4892339285   -0.3905316056
 H   -1.1986924725   -2.9533561221   -2.0950591174
 H   -0.4700637325   -3.9543736231   -0.8266559042
 H    1.7803966396   -3.7509445816   -2.0677914422
 H    1.0635708485   -2.6799324295   -3.2893748982
 H    2.4708046727   -2.1409258165   -2.3501705001