15

 O   -0.0928788613    1.4758707834   -0.2237090570
 C    0.0779197489    0.1000399548    0.0939378341
 C   -1.2921010068   -0.5416145762    0.0168386794
 C   -2.0116014376   -0.8470603289   -1.3271946245
 C   -1.0610510967   -2.0370917227   -1.5998888157
 C   -1.5192799499   -2.0732889790   -0.1212236672
 O   -2.8959175667   -1.7796465653   -0.5829213519
 H    0.7535027984    1.9180781385   -0.1100182265
 H    0.7928809250   -0.3775177505   -0.5911129152
 H    0.4728174133   -0.0281578781    1.1149902822
 H   -1.9734297616   -0.0894101600    0.7413565761
 H   -2.4827922889   -0.1581947413   -2.0274347232
 H   -1.4881657924   -2.8229319644   -2.2234267611
 H   -0.0124887972   -1.8413489528   -1.8314831739
 H   -1.3987824465   -2.8605625273    0.6242311642