15

 C   -0.0012682862    1.4244919976    0.1672890169
 C    1.3177430906    0.7438385332   -0.0392735717
 C    1.7623017202    0.0568393015    1.2629572802
 C    0.4581609134   -0.7667111965    1.2002746013
 C    0.2406762499   -2.1519729164    1.6094885354
 O   -0.3805678121   -1.0615605084    2.3071087837
 C    0.0097246767   -0.0675504305   -0.0578902353
 H   -0.2658462011    1.8283737035    1.1412557919
 H   -0.3682993244    2.0065339252   -0.6719225950
 H    1.9660609421    0.9727073945   -0.8744982729
 H    2.6555727267   -0.5639662088    1.1573160773
 H    1.8786508879    0.7090725244    2.1340712537
 H   -0.4380027699   -2.7882897687    1.0415246583
 H    1.0159480533   -2.6821853541    2.1624769710
 H   -0.5061761270   -0.5276177865   -0.8916274650