15

 O   -0.0148782114    0.0072773509   -0.0456461101
 C   -0.0080068934    1.2090329991   -0.0029958278
 C   -1.1889423776    2.1927738858    0.0327048644
 N   -0.5121071360    3.5040518676    0.0811249359
 C    0.7146900959    3.3993873662   -0.8333416837
 C    1.4550451619    4.3580065467    0.1143664481
 C    0.7128104748    3.3327227393    0.9879320541
 C    1.1554841263    2.1665595806    0.0338133427
 H   -1.8191282358    2.1075659981   -0.8582810483
 H   -1.8199807518    2.0425617637    0.9144603286
 H    0.6164160607    3.4383904491   -1.9198090080
 H    2.5443722680    4.3103518162    0.1137515455
 H    1.0716071766    5.3789601756    0.1513197647
 H    0.6123258197    3.2921874391    2.0741403620
 H    2.1689918821    1.7691372019    0.0204046220