19

 C    0.1710684721    1.2876444329   -0.1486289970
 O   -0.1984772764   -0.0333291052    0.1834337183
 C    0.5806182604   -0.6052757250    1.2040691400
 C    0.1406276140   -2.0783118730    1.4257359362
 C    1.4427781056   -2.8180526434    1.0754730297
 C    1.7426219426   -2.6486959933   -0.4301676977
 O    2.1771494039   -1.2782762314   -0.4951176875
 C    2.0869089565   -0.8243386698    0.8440250304
 O    2.4368838731   -1.9368058637    1.6397799493
 H    1.1637556303    1.3298406190   -0.6166046463
 H   -0.5683610756    1.6574919597   -0.8629693324
 H    0.1671072095    1.9448071632    0.7354993549
 H    0.5060711380   -0.0058486707    2.1246094366
 H   -0.1406677943   -2.2667276087    2.4634130420
 H   -0.7007902413   -2.3269162958    0.7761205140
 H    1.5608883306   -3.8250166642    1.4718972124
 H    2.5523281240   -3.3019845188   -0.7729143382
 H    0.8588306068   -2.7969840723   -1.0588877750
 H    2.7760704900    0.0040886306    1.0039787603