16

 C   -0.3697690453    1.4034290233   -0.0159191455
 N    0.1126728522    0.0215515561    0.0874284596
 C    0.7827845301   -0.4500485278   -1.0592453374
 C    0.0070809067   -0.9117224559   -2.3021332479
 C    0.9493904612   -1.8459968034   -1.6373860086
 O    2.3031081437   -1.5396457071   -2.0697439389
 C    2.2245148459   -0.2852387968   -1.4588676178
 N    3.1095542164    0.5778321611   -1.2547907141
 H    0.4259521871    2.1375270322   -0.2055960490
 H   -1.0969997416    1.4684082806   -0.8311712199
 H   -0.8807922925    1.6706003678    0.9131595204
 H    0.7068470993   -0.0775975814    0.9036331832
 H   -1.0447497273   -1.0771626764   -2.0899086479
 H    0.2400068804   -0.5215263394   -3.2876490784
 H    0.7623274404   -2.8294197776   -1.2307046402
 H    4.0110053232    0.2876088147   -1.6377614578