18

 C   -0.6004026428    1.3453884700    0.1342706645
 C   -0.0487955502   -0.0510332420   -0.0317748693
 O    0.8450920513   -0.0705696267   -1.0973802394
 C    1.3600005139   -1.3677510405   -1.3868888984
 C    1.3679530185   -2.2895127848   -0.1472348854
 N    2.3881815109   -3.3113592725   -0.2952490239
 C    1.4641024823   -1.4612878734    1.1414045505
 O    2.1858885378   -1.7310914845    2.0617605222
 O    0.6373640572   -0.3907078332    1.1945726438
 H    0.2250671002    2.0486486150    0.2658017974
 H   -1.1716936696    1.6244544928   -0.7538713512
 H   -1.2506023304    1.3883243691    1.0104816211
 H   -0.8569003060   -0.7863324829   -0.1789479438
 H    0.7877335914   -1.8364916082   -2.1972901635
 H    2.3857099982   -1.2229023374   -1.7385842353
 H    0.3944156906   -2.7960225948   -0.0941210986
 H    3.3001406938   -2.8851969143   -0.1453312761
 H    2.2928776130   -3.9860470615    0.4584615157