17

 C    0.0248006149    1.5035480196   -0.1654918875
 C   -0.0091424256    0.0112791963   -0.0821582433
 C   -1.1291872917   -0.7338813223   -0.1173902920
 C   -1.0516718525   -2.1755879269   -0.0291646570
 C   -2.3016454148   -3.0093504725   -0.0683140341
 N    0.0577705465   -2.8237297930    0.0853394545
 O    1.2323142959   -2.0677014364    0.1237229122
 C    1.2684491086   -0.6889729848    0.0471142113
 N    2.3797393059   -0.0722955700    0.0890449330
 H    0.6328892027    1.8217071813   -1.0181255097
 H   -0.9812799265    1.9184531976   -0.2598244470
 H    0.5109193247    1.9216235462    0.7215818295
 H   -2.1069038070   -0.2719723187   -0.2120502142
 H   -2.8489284785   -2.8397563357   -1.0023400011
 H   -2.0506745994   -4.0677278799    0.0099910480
 H   -2.9713845595   -2.7387262385    0.7556382941
 H    3.1537309557   -0.7320659120    0.1808447201