25

 C    0.0159336827    1.6021689538    0.0347343083
 C    0.0256746783    0.0641546539    0.0471989097
 C    0.5959655800   -0.4752211991   -1.2931542399
 C   -0.1520668787   -1.6573325322   -1.9339649866
 C   -0.3316554986   -2.9022551690   -1.0340984155
 C    0.9522127213   -3.3397879652   -0.3865247599
 C    1.3898684726   -2.8851035607    0.7884286415
 C    0.6511732301   -1.9158940640    1.6811374738
 C    0.7844828602   -0.4222511461    1.3029031693
 H    1.0336265833    1.9988299136   -0.0664991757
 H   -0.5717792508    1.9861010976   -0.8057158744
 H   -0.4089961453    2.0109690277    0.9577589269
 H   -1.0198412032   -0.2656940958    0.1390891851
 H    0.5937801278    0.3381728130   -2.0285868347
 H    1.6482300817   -0.7453303391   -1.1523822040
 H   -1.1465780450   -1.3260905455   -2.2605459043
 H    0.3872886973   -1.9466066694   -2.8451489150
 H   -1.0775499746   -2.6760352418   -0.2638725783
 H   -0.7517322116   -3.7134930502   -1.6396711905
 H    1.5815131756   -4.0227968903   -0.9542715532
 H    2.3629262439   -3.2169138497    1.1455382056
 H   -0.4160057535   -2.1698021809    1.7165949209
 H    1.0207004302   -2.0347340370    2.7059864771
 H    1.8480982629   -0.1695117912    1.1929495578
 H    0.4219591733    0.1618962477    2.1586979460