25

 C   -0.0285597078    1.6474283937   -0.1421058614
 C    0.0037155339    0.1342694057    0.0982364525
 C   -1.3869590269   -0.5024124015    0.0409059071
 C   -1.9543126816   -0.6727708662   -1.4020080588
 C   -1.5567668427   -2.1713939361   -1.3585334612
 C   -1.4428971478   -2.0619848810    0.1889960961
 C   -0.3349025470   -2.8108364322    0.9189394687
 C   -0.5362373610   -4.3213752911    0.8960259799
 O    0.5483303910   -4.9202728216    1.5911692486
 H    0.9773424946    2.0773631615   -0.1062465598
 H   -0.4580364610    1.8898646174   -1.1200456975
 H   -0.6348249328    2.1530970728    0.6178878823
 H    0.6632479664   -0.3378300111   -0.6419180610
 H    0.4556792599   -0.0646685027    1.0779859538
 H   -2.0441127042    0.0350911310    0.7341318602
 H   -3.0383132192   -0.5344232713   -1.4407599714
 H   -1.5031634811   -0.0591495735   -2.1867817027
 H   -2.2662645823   -2.8956691231   -1.7669926905
 H   -0.5812987094   -2.3508774156   -1.8226311661
 H   -2.4082644415   -2.3300418708    0.6371282722
 H    0.6417368633   -2.5895302787    0.4732553155
 H   -0.2822341388   -2.4875039216    1.9663443105
 H   -1.5000795614   -4.5747694243    1.3683756634
 H   -0.5834421746   -4.6757038474   -0.1464856043
 H    0.4332629822   -5.8744185723    1.5618257038