19

 C   -0.0146409706    1.6957482476    0.3274041458
 C   -0.0282660994    0.2136214712    0.0137208529
 C   -1.3286657260   -0.2765926636   -0.5541726040
 C   -1.5572786274   -0.4073446626   -1.9991734066
 O   -1.3294738480   -1.5617318543   -1.1832126792
 C    1.2475083921   -0.4768326078   -0.4567894711
 O    2.4395898598    0.2405363500   -0.5379347004
 C    0.6961770731   -0.7605573174    0.9205401380
 O    1.4140276866   -0.1993665395    1.9937140679
 H    0.9554369731    2.0172865649    0.7057452331
 H   -0.2328963142    2.2768955809   -0.5747470124
 H   -0.7682333219    1.9452214846    1.0824577119
 H   -2.2010194516   -0.1005705853    0.0801044668
 H   -2.5646698323   -0.3165288944   -2.4017320316
 H   -0.7510795497   -0.1608877570   -2.6879838661
 H    1.1603284852   -1.2409859850   -1.2217883930
 H    2.6948505998    0.4383800109    0.3739763053
 H    0.2227269162   -1.7181341006    1.1266342753
 H    2.0043622751   -0.8793637827    2.3365262576