17

 C   -0.0341404532   -1.1694971255   -0.1443134000
 C    0.0576564977    0.0145680067    0.0315424924
 C    0.1368794233    1.4503641697    0.2614116547
 O    1.3450084034    1.9608115526   -0.2765324922
 C    1.4641536484    3.3454001664   -0.1273841471
 C    1.8399584360    3.9626216475    1.2805195636
 C    3.0617982939    4.5838563510    0.5930341111
 O    3.8467083198    3.4957884545    0.1061247111
 C    2.7515462610    3.9388504143   -0.6976258946
 H   -0.1070832539   -2.2169329721   -0.3036757555
 H   -0.7304598883    1.9496122613   -0.2041070024
 H    0.0769815891    1.6556542575    1.3427123793
 H    0.5837257368    3.8643155206   -0.5390148327
 H    1.1004806716    4.6774833076    1.6473453540
 H    2.0940379501    3.2415503326    2.0602864527
 H    3.5669825992    5.5197526516    0.7982870980
 H    2.9676610449    4.2282206636   -1.7192126123