23

 C   -1.0892033275    1.1754597244    0.1280295285
 C   -0.1981769320   -0.0525081906    0.0033307133
 C    1.1014842413    0.0413765940   -0.8208516602
 O    1.8441834471   -0.6638782672    0.1950128669
 C    0.7523670137   -0.5613817783    1.1354245360
 C    1.1207730890    0.3201715537    2.3395413755
 C   -0.0343085193    0.3673371260    3.3511630559
 C    2.3932108527   -0.2436356672    2.9884384884
 O    1.3885000340    1.6309160423    1.8265992176
 H   -0.5376930431    2.0279193462    0.5253770338
 H   -1.4879678423    1.4420127797   -0.8578697181
 H   -1.9493485542    0.9833431347    0.7784600058
 H   -0.7981113592   -0.8987761393   -0.3459551669
 H    1.1227742296   -0.4826794624   -1.7832908262
 H    1.4742374475    1.0651150588   -0.9512781104
 H    0.4857653946   -1.5523031798    1.5282108037
 H   -0.2834753895   -0.6338154552    3.7178997840
 H    0.2503240526    0.9753240304    4.2172966856
 H   -0.9299178424    0.8091393968    2.9092896189
 H    3.1950855890   -0.2870543170    2.2492754845
 H    2.7075905597    0.3945611185    3.8233532665
 H    2.2271171664   -1.2493859855    3.3875877799
 H    1.8042483424    2.1428506770    2.5276595468