19

 C    0.0000227858    1.5618730778    0.0240002930
 C   -0.2093823579    0.0637380094    0.2193280349
 N    0.8819172298   -0.5041221533    1.0025588817
 C    0.9199119633   -1.8587963871    1.2545183047
 N    1.4784550190   -2.3170385485    2.3578618871
 O    1.4142017852   -3.7162928649    2.2478006870
 C    0.8051644822   -4.0443555105    1.0989816366
 C    0.6407878748   -5.4961362807    0.8162571199
 C    0.4599446617   -2.9214636670    0.4153867709
 H    0.9541237385    1.7587513172   -0.4730796945
 H   -0.8050364498    1.9853355239   -0.5827430971
 H    0.0024188343    2.0878205480    0.9855253279
 H   -1.1921422038   -0.1203195770    0.6837037394
 H   -0.2234376869   -0.4330204518   -0.7571754705
 H    1.1247438896    0.0372472866    1.8225108253
 H    0.0489906461   -5.9827556434    1.5985334644
 H    0.1375349144   -5.6407019995   -0.1415096580
 H    1.6125599918   -5.9992500071    0.7791731934
 H   -0.0345208979   -2.8603306220   -0.5388798161