13

 C   -0.0044746156    1.5399971831    0.0924310611
 C    0.0152548407    0.0548673350   -0.0060655618
 C    0.0011404008   -0.8021787262   -1.0949835813
 N    0.0318395978   -2.0994839730   -0.6349984212
 N    0.0636095093   -2.0890757364    0.6580657473
 N    0.0539015480   -0.7928845047    1.0469767776
 C   -0.0378198176   -0.4595107649   -2.4651289691
 C   -0.0711826729   -0.1465853026   -3.6269201326
 H    0.8875303499    1.9246673149    0.5989819221
 H   -0.0353218891    1.9672346900   -0.9117092472
 H   -0.8818116210    1.8983016949    0.6421036166
 H    0.0749663785   -0.5757694780    2.0311400640
 H   -0.1005121889    0.1159600180   -4.6553529157