16

 O   -0.2541289440    1.4185029120    0.0550068109
 N    0.0096071678    0.0378685911   -0.0000427786
 C   -1.0671357001   -0.6243822430   -0.0897863994
 C   -2.5566571797   -0.3065131484   -0.0236425393
 C   -2.8185905553   -1.8243235533    0.0278908435
 C   -2.2603612482   -2.5088240558   -1.1547270268
 C   -1.2625428810   -2.0987858212   -0.0739698275
 C   -0.4969086669   -3.1065633269    0.6816816794
 O   -0.7784981779   -4.2828653485    0.7181338196
 H    0.6307560495    1.7917392842    0.1279503245
 H   -2.8094222582    0.2244987540    0.8977636410
 H   -2.9935625588    0.2286116494   -0.8719123302
 H   -3.4712769824   -2.3224076120    0.7324335863
 H   -2.3990648820   -3.5842343268   -1.1937274447
 H   -2.2151183253   -2.0049562976   -2.1161066709
 H    0.3655416226   -2.6960585872    1.2472549020