19

 C    0.6580386091    1.1335679106    0.3452868403
 O   -0.0783932691    0.0791323695   -0.2264869570
 C    0.6690765935   -0.6724403184   -1.1540347811
 C   -0.2415083446   -1.7815539198   -1.6918337947
 C    0.4318569042   -2.6267474711   -2.6694883510
 C    1.0135525673   -3.3087525722   -3.4717895347
 C    1.7048924122   -4.1470462971   -4.4536101083
 C    2.8775282946   -4.8394396705   -3.9144442128
 C    3.8412825914   -5.4117807422   -3.4844857709
 H    1.5396498121    0.7660505027    0.8940055242
 H    1.0038111104    1.8507456638   -0.4160543144
 H   -0.0021112522    1.6522216281    1.0446341726
 H    1.0213805158   -0.0375905579   -1.9833414487
 H    1.5601305447   -1.1131945304   -0.6784214574
 H   -0.5951594388   -2.3823742330   -0.8453923297
 H   -1.1305662234   -1.3170837569   -2.1351741463
 H    1.0038096723   -4.8893553665   -4.8600194284
 H    2.0122446415   -3.5335532037   -5.3119792457
 H    4.6921578391   -5.9166322350   -3.0992540059