22

 C   -0.1818713194    1.4046015135    0.1155524591
 O   -0.0225866620    0.0056319805    0.1837081018
 C   -1.2296538297   -0.7454812411    0.0581725526
 C   -1.7348420069   -0.7977478330   -1.3835027414
 C   -0.9046176830   -2.1404149049    0.5921474990
 N   -0.3980088259   -2.0846739902    1.9470433987
 C   -0.9717269822   -2.7629474529    2.9825385425
 C   -0.3321340660   -2.5226475164    4.3423913134
 O   -1.9185680879   -3.5175074729    2.8400750926
 H    0.7925638664    1.8502194214    0.3315645940
 H   -0.5047940283    1.7453541462   -0.8782025129
 H   -0.9102634877    1.7666095716    0.8577327674
 H   -1.9983914714   -0.2923774286    0.7059462194
 H   -1.9724675095    0.1991949433   -1.7639167451
 H   -0.9778228378   -1.2429247781   -2.0368597855
 H   -2.6459389724   -1.4011889261   -1.4448475314
 H   -1.7981479465   -2.7674223423    0.6099875740
 H   -0.1675159227   -2.6092107343   -0.0739022059
 H    0.3366878152   -1.4189037091    2.1209806917
 H    0.0528096404   -3.4729641098    4.7222469105
 H    0.4813915495   -1.7927286548    4.3242832563
 H   -1.1038433523   -2.1831096521    5.0380013193