24

 C    0.0229464685    1.5225048529    0.1491959877
 C   -0.0898830023   -0.0008360785   -0.0138842930
 C   -1.5567588381   -0.4555229030   -0.0098795022
 C    0.6858884373   -0.5227745915   -1.2426199329
 C    0.2006621226    0.0655104880   -2.5723451292
 C    2.2457030410   -0.4971589562   -1.1630176301
 N    2.3557739214   -1.9722988780   -1.4542222989
 C    1.6965948035   -2.6425946274   -0.3203320723
 C    0.8390410391   -2.0493641038   -1.3643155949
 H    1.0660899939    1.8552882925    0.1174402299
 H   -0.5224965378    2.0562564450   -0.6360794656
 H   -0.3969512362    1.8386375978    1.1095913627
 H    0.3854121144   -0.4501330066    0.8678454883
 H   -2.1268294412    0.0015000929   -0.8255108027
 H   -1.6361185438   -1.5430105993   -0.1106933781
 H   -2.0455993317   -0.1716417402    0.9277998510
 H    0.3425765118    1.1499094293   -2.6077837802
 H    0.7615802871   -0.3699141963   -3.4052894684
 H   -0.8601847724   -0.1419010622   -2.7461501509
 H    2.7246328536    0.0842152686   -1.9540449135
 H    2.6833596579   -0.2141606272   -0.1986712082
 H    1.8217689162   -3.7214168695   -0.3364695377
 H    1.7659924754   -2.1980007230    0.6700384625
 H    0.2699404899   -2.6665333944   -2.0548118933