17

 C   -0.0722687684    1.6045742535   -0.0411098243
 C    0.0118950853    0.0745822647   -0.0589397463
 C   -1.2797227197   -0.5301220294    0.2290612904
 C   -2.3474654724   -1.0297410994    0.4663012826
 C    0.7156816460   -0.6366903507   -1.2494782288
 C    2.1445269588   -0.2408295946   -1.3402431020
 C    1.7531661060   -1.2982173286   -0.3131452029
 C    1.1084617967   -0.6233412820    0.8553044223
 O    1.2446487423   -0.6767266511    2.0406395753
 H    0.8889862492    2.0637622316   -0.2852862843
 H   -0.8181848086    1.9582465538   -0.7587549898
 H   -0.3688451708    1.9441004363    0.9548634590
 H   -3.2896257029   -1.4687633199    0.6841051052
 H    0.1788962787   -1.1166227989   -2.0562064636
 H    2.6952650138   -0.6412800279   -2.1851002242
 H    2.4857499672    0.7377782194   -1.0191266533
 H    2.1914868789   -2.2878104269   -0.3257583653