20

 C   -0.0464212186    1.5603107877    0.1142657616
 C    0.0536253476    0.0633686172   -0.0247636562
 C    0.6225168436   -0.7924853542   -1.1619356774
 C    2.1012651023   -0.8655855523   -1.4915178132
 O    2.3965449442   -2.0939990429   -2.1352984727
 N    0.1664527957   -1.8870550866   -0.1948687467
 C    0.5630475093   -0.9943121375    1.0166856780
 C   -0.8111077488   -1.1897355916    1.6618115771
 C   -1.0666484892   -1.0178755361    0.1636455727
 H    0.9452028787    2.0257373919    0.1056471407
 H   -0.6249969327    1.9919862560   -0.7098453789
 H   -0.5386183991    1.8405945162    1.0520688686
 H    0.0326052022   -0.8157613885   -2.0879664171
 H    2.3824951225   -0.0667317585   -2.1868919823
 H    2.7094568140   -0.7347215631   -0.5815575109
 H    1.9497695977   -2.7783626642   -1.6212789364
 H    1.5514126570   -1.0734811791    1.4709913145
 H   -1.0123914822   -2.1819061118    2.0738179781
 H   -1.1681734747   -0.3968060452    2.3232606692
 H   -1.9895002795   -1.1201428074   -0.4114177886