20

 C   -0.0177123912    1.5669376161    0.0480973972
 C    0.1162032432    0.0583455940    0.0807381671
 C    1.3697662515   -0.7184271949   -0.1958573656
 C    2.6120895820    0.0004239664    0.3609589860
 C    1.9390167434   -0.0543888335    1.7266828986
 N    2.2935518348    0.1717144557    2.9226474176
 O    3.5810599150    0.7508168127    2.9631149861
 C    0.7190682482   -0.7496121890    1.2216311361
 C   -0.0263734905   -1.8235611176    1.9619693802
 H    0.8490156185    2.0704624202    0.4828087220
 H   -0.1354017181    1.9253661623   -0.9806234814
 H   -0.8987319427    1.8860990280    0.6149513776
 H   -0.7621899278   -0.4528257431   -0.3121363125
 H    1.4019816167   -1.5245167851   -0.9188334942
 H    3.5153394424   -0.6165783174    0.3523773854
 H    2.8585300026    0.9829732063   -0.0511525863
 H    3.7257079716    0.8486964801    3.9100111516
 H   -0.6199268836   -1.3979888468    2.7786643862
 H   -0.7111374533   -2.3566714979    1.2948303274
 H    0.6630210872   -2.5517842963    2.4015775707