17

 C   -0.4198816545    1.7331639366    0.7302113414
 N   -0.7542146055    0.3312170901    0.5852185197
 C    0.2165921377   -0.4991485479    0.5569327292
 N    1.5559087134   -0.2582939902    0.6664154646
 N   -0.1478261607   -1.8599410840    0.4476877102
 C    0.6467622568   -2.9598104345    0.2578418321
 C   -0.1212277473   -4.2666513885    0.1677490150
 O    1.8656610494   -2.9137349965    0.1775814966
 H    0.1623999307    2.1244464227   -0.1219287953
 H   -1.3400342484    2.3206341317    0.7835846484
 H    0.1604448409    1.9407065971    1.6438681564
 H    1.8671848009    0.6805691341    0.4872062523
 H    2.1731296221   -1.0295104805    0.4390413111
 H   -1.1505976586   -1.9732865733    0.4600059712
 H   -0.5915422760   -4.4985952040    1.1290920118
 H   -0.9122747844   -4.2120288880   -0.5867049916
 H    0.5754696733   -5.0630514049   -0.0905395231