17

 C   -0.0156826707    1.5339720661    0.0070062912
 C    0.1102984484    0.0330020593   -0.0098433051
 N   -0.7829560740   -0.8286351354    0.8144225058
 C    0.6884832960   -0.7845155733    1.0740475500
 C    1.4436730670   -1.9412718313    0.4198848233
 O    2.0984779873   -2.7720102680    1.0144855353
 C    1.2211217835   -1.8046947796   -1.0187747837
 C    0.4780217954   -0.6985497815   -1.2826551533
 N    0.0858721413   -0.2038306203   -2.4881096391
 H    0.8802151324    2.0096792069   -0.4042359879
 H   -0.8771669512    1.8808903604   -0.5770193234
 H   -0.1512069885    1.8944519494    1.0310821028
 H   -1.2361766086   -0.2379546341    1.5145475351
 H    1.0493602308   -0.3638819940    2.0056674762
 H    1.5650356175   -2.5333256101   -1.7409703604
 H    0.1701267580   -0.7983643366   -3.2975845834
 H   -0.6919057146    0.4350377824   -2.5132030834