14

 O    0.0021874259   -0.0082696454    0.0006041542
 C    0.0481769296    1.2061254144    0.0084041987
 N    1.1907922070    1.9304846321   -0.0018392369
 C    2.5109233486    1.2955416572   -0.0215513973
 C    3.4295201641    2.4859844442   -0.0206332769
 C    2.7523028933    3.6301147343   -0.0036332763
 C    1.2653165800    3.3932163469    0.0096391714
 H   -0.8567349247    1.8475675187    0.0247458964
 H    2.6481046363    0.6420318729    0.8507826074
 H    2.6297770096    0.6579060182   -0.9082333751
 H    4.5068628734    2.3815042794   -0.0327986009
 H    3.1728170459    4.6274192587    0.0006132160
 H    0.7681539115    3.8366746924   -0.8658449664
 H    0.7861198594    3.8217937260    0.9023573758