15

 N   -0.0358398439    1.4945184249    0.0051640913
 C    1.2767003551    0.8120111843   -0.0016398758
 C    0.0363563295    0.0168831022    0.0064474408
 C    0.0796597092   -0.6746315981   -1.4022193239
 O    1.4980316065   -0.9136847306   -1.5135192853
 C    1.8739607760    0.4755843216   -1.4139124481
 C    0.9889515855    1.1041715372   -2.4848851112
 C   -0.1319489169    0.3856545290   -2.4775617199
 H   -0.2327430288    1.8113086576    0.9543970963
 H    1.9396285222    0.8901680826    0.8515118600
 H   -0.3035104752   -0.5478092834    0.8661352235
 H   -0.4752586287   -1.6082279889   -1.4772964215
 H    2.9532350644    0.5895660871   -1.4996334313
 H    1.2069339449    2.0132169436   -3.0267796551
 H   -1.0539626298    0.5639399509   -3.0120102398