21

 C    0.0272812253    1.4650221319    0.1212672474
 C   -0.0183999372   -0.0210356728   -0.0503520917
 C    0.6272750588   -0.9211923236   -1.1378751277
 C    0.0794176238   -1.8137921606   -0.0050566113
 O    0.6544052112   -0.8700088058    0.9783533794
 C   -1.2416008252   -0.9938104155   -0.0034420579
 C   -2.1310849487   -0.9963388142    1.2262934214
 C   -3.0122054267   -2.2376827583    1.3148264647
 O   -3.8503696040   -2.0947317654    2.4515603862
 H    1.0634980964    1.8139758194    0.1613801112
 H   -0.4726207846    1.9576478078   -0.7187779770
 H   -0.4754453836    1.7631376919    1.0463365230
 H    0.1486194119   -0.9701988500   -2.1198098738
 H    1.7152242738   -0.8650340140   -1.1917637378
 H    0.2402008857   -2.8772375064    0.1739403554
 H   -1.8172344899   -1.0478491139   -0.9352608025
 H   -1.5121715461   -0.9272657329    2.1245833857
 H   -2.7875380785   -0.1170192881    1.2110871443
 H   -3.6084988877   -2.3413771046    0.3923645129
 H   -2.3817950685   -3.1382211755    1.3954539219
 H   -4.3876346363   -2.8881420894    2.5311365364