18

 C   -0.0568576531    1.5878728614    0.0561590629
 C    0.0208517667    0.0914394314    0.0030346965
 C   -0.8705244725   -0.8520545808    0.7987865851
 C    0.6195666277   -0.9425609964    0.9300302275
 O    1.1774981329   -1.7074950594   -0.1467580596
 C    0.6886895297   -0.7285792862   -1.0811037599
 C    0.2699317992   -1.0948862006   -2.4640312200
 C    1.5326799716   -0.2720197200   -2.2220567830
 H    0.9042087587    2.0465391051   -0.1999609252
 H   -0.8113651748    1.9755241624   -0.6393485041
 H   -0.3348369639    1.9287215494    1.0583402012
 H   -1.3867590429   -0.3835882346    1.6321337223
 H   -1.4126857189   -1.6572158641    0.3107144680
 H    1.1913227299   -0.8711917925    1.8479094713
 H    0.4015577643   -2.1298161522   -2.7603170003
 H   -0.5965872021   -0.6038767918   -2.8950632625
 H    1.5233860225    0.7797338526   -2.4897969254
 H    2.4875389449   -0.7683125537   -2.3568910450