19

 C   -0.0422774682    1.5215997912    0.0349653345
 C    0.0303459052   -0.0029153453    0.0414410280
 C    0.9549863918   -0.6077190214   -1.0671872778
 C    1.9684388136   -1.3225492911   -0.1344512418
 C    1.0510198639   -2.0495014388    0.8879178043
 C    0.8056137342   -0.5744615579    1.2532631288
 O    2.1959684155   -0.2904055770    0.8934262320
 C    3.1473841077   -1.9157282702   -0.7077314152
 C    4.1130399900   -2.4280451253   -1.2074025172
 H    0.9599159776    1.9452717076    0.1488071298
 H   -0.4660720241    1.8940946458   -0.9032610240
 H   -0.6677122013    1.8934654145    0.8541817962
 H   -0.9779729955   -0.4282142917   -0.0053098441
 H    0.4475239444   -1.3022135541   -1.7407793878
 H    1.4548003625    0.1590773185   -1.6626238501
 H    0.2254630115   -2.6576652686    0.5099791273
 H    1.6339682192   -2.5757995729    1.6430177445
 H    0.5344836146   -0.2420566667    2.2551644067
 H    4.9710435174   -2.8772250165   -1.6433282540