17

 N    0.0306501337    1.2114558367    0.4919237801
 C    0.0665098546   -0.0260829276   -0.0778071066
 O    1.0380553072   -0.4896344025   -0.6405843827
 C   -1.2645860572   -0.7795078138   -0.0041970754
 C   -1.1938770135   -2.3362283538    0.0009649963
 C   -2.0415638133   -2.3727256432    1.3149015928
 C   -1.9707069959   -0.8610769651    1.3378016844
 N   -2.2615878082    0.0739786548    2.1410119672
 O   -2.8581337307   -0.4141154149    3.3147781670
 H    0.9031252499    1.7116291507    0.5591387263
 H   -0.7048512364    1.4331193740    1.1482316853
 H   -1.9130517325   -0.3757742857   -0.7906575248
 H   -1.6445260634   -2.8257291653   -0.8624818993
 H   -0.1701048616   -2.6929084248    0.1159592192
 H   -3.0594497360   -2.7566973174    1.1976155854
 H   -1.5908222149   -2.8673536658    2.1795288125
 H   -3.0221487518    0.3920236837    3.8160850822