18

 C    0.0694371014    1.5419252021    0.0139177319
 C    0.0321892418    0.0186508622   -0.0348234617
 C    0.8326272585   -0.6022526090   -1.1686838633
 C    1.3010970722   -1.9898100375   -0.7486695550
 C    1.2018834688   -1.9147141676    0.8032906988
 C    2.1341356483   -0.7569608914    0.8408440380
 N    0.7013650860   -0.5708618202    1.1429214815
 C    2.2496848934   -0.8016517433   -0.7187096586
 O    3.3403362099   -0.4554734100   -1.4815967993
 H    1.1024989450    1.9041217073    0.0214108111
 H   -0.4331514209    1.9694710698   -0.8592958377
 H   -0.4302990591    1.9104609546    0.9139076738
 H   -1.0057405144   -0.3345943665   -0.0408044981
 H    0.6388017437   -0.4059138148   -2.2161579854
 H    1.2666274191   -2.8688486606   -1.3758627313
 H    1.0484818588   -2.7362600643    1.4912211537
 H    2.8911264676   -0.4495807726    1.5524563826
 H    4.0466446798   -1.0878407680   -1.3086766208