19

 C   -0.1514140914    1.3866406129   -0.0148493877
 O   -0.0027467956   -0.0131185737   -0.0096729534
 C    0.6181220187   -0.5017076638   -1.1796536337
 C    0.7004259123   -2.0228674187   -1.0635206638
 C   -0.6936147041   -2.6757720913   -0.9810398865
 C    1.5001323469   -2.6018426709   -2.2208292106
 O    1.8480911909   -1.9500150313   -3.1831437769
 C    1.8333322870   -4.0155158131   -2.1125318695
 C    2.1183760491   -5.1805583646   -2.0089154862
 H    0.8207216528    1.9000877048   -0.0813127276
 H   -0.7760086699    1.7280422757   -0.8553506946
 H   -0.6361334154    1.6679027187    0.9232302911
 H    0.0439940148   -0.2197819017   -2.0766269850
 H    1.6247231297   -0.0716436790   -1.2968158572
 H    1.2419698164   -2.2700165444   -0.1400616781
 H   -0.6185190675   -3.7560878587   -0.8348998561
 H   -1.2424724517   -2.2414030352   -0.1437631866
 H   -1.2622624826   -2.4910576367   -1.8987577728
 H    2.3777568898   -6.2088217792   -1.9338196447