17

 C   -0.0326577745    1.6244986466    0.0287576023
 C    0.0513679764    0.0960097301   -0.0215294930
 C    0.8138370700   -0.5398944537   -1.1685340393
 C    2.3246378370   -0.4198653185   -1.1793357215
 O    2.9191725746    0.5571465057   -0.3840379604
 C    1.6691995529   -1.6105876214   -0.5282968262
 O    1.5514583487   -1.5256449892    0.8762633551
 C    0.7140270781   -0.4932548641    1.2296400297
 O    0.5636040647   -0.1669560691    2.3680767235
 H    0.9639240929    2.0659992954   -0.0137094212
 H   -0.6216595982    2.0038930076   -0.8109724363
 H   -0.5143032590    1.9339563576    0.9599944673
 H   -0.9693978593   -0.3115265747   -0.0275115858
 H    0.3053650462   -0.7133356416   -2.1089339996
 H    2.8087045885   -0.5969870050   -2.1393645011
 H    3.5754689602    0.1348009923    0.1817545005
 H    1.7863337009   -2.6275152080   -0.8804428341