20

 O    0.2395284182    0.9472328353   -1.4845516641
 C    0.1958932338    1.6646653906   -0.5097304658
 N    1.2349161421    1.9002661843    0.3403859750
 C    2.4912991904    1.2157189979    0.2413704283
 C    3.5090545277    1.5376811050   -0.8258176770
 C    3.3713159888    2.8268359205   -1.6222957828
 C    3.2408162848    3.9663468516   -0.5796536451
 C    3.8360895233    3.4100580096    0.7400116747
 C    3.7875670005    1.8913060139    0.6219113552
 H   -0.7130135515    2.2249630090   -0.2070098185
 H    1.0439482482    2.4390423987    1.1714839728
 H    2.4302237131    0.1589799639    0.4933720204
 H    3.9858842174    0.6902317243   -1.3050136129
 H    4.2755795754    2.9577417569   -2.2271954086
 H    2.5228433782    2.7992156733   -2.3124184191
 H    3.7533988726    4.8770974228   -0.9014808205
 H    2.1902118742    4.2269062182   -0.4393505208
 H    4.8847438532    3.7088033366    0.8490399734
 H    3.3124142439    3.7957019847    1.6232145602
 H    4.4791308557    1.3144956127    1.2267163351