21

 C    0.2486141455    1.6083008006    0.0963490899
 C    0.1691263177    0.0901004432    0.0560639032
 C    0.7074434059   -0.5663284988   -1.2209435683
 C    1.1571853102   -1.9450936394   -0.7152380745
 C    2.1681889891   -2.6684896981   -1.6145928911
 C    2.5034350832   -4.0528260808   -1.1042685849
 O    3.6138741709   -4.4567163162   -0.8759398659
 C    1.6941974012   -1.5850138072    0.6820598745
 O    0.9578825333   -0.4521799678    1.1258197196
 H    1.2786214839    1.9429800623   -0.0621813444
 H   -0.3868816970    2.0490535868   -0.6789322738
 H   -0.0871207460    1.9818163686    1.0676599980
 H   -0.8783916370   -0.2189637526    0.2080660352
 H   -0.0391759751   -0.6194404382   -2.0177100644
 H    1.5696193884   -0.0031129146   -1.5999717636
 H    0.2687624484   -2.5803704181   -0.5986523749
 H    1.7303798980   -2.7904410531   -2.6160484654
 H    3.0957921400   -2.0963586019   -1.7155656771
 H    1.6126483957   -4.7068035757   -0.9446735458
 H    1.5759005701   -2.3994982271    1.4068609485
 H    2.7662319437   -1.3381645420    0.6308625752