21

 C    0.0219768585    1.2983603817   -0.3522974968
 O    0.0109030238    0.0040527353    0.2067123971
 C   -1.2444728417   -0.6236425131    0.1377211006
 C   -1.7216225106   -1.2686443434   -1.1989528065
 C   -0.5589761508   -2.2201543377   -1.5864063584
 C   -0.9336317401   -3.0068936794   -0.3318058634
 C   -2.3299976296   -2.4265374111   -0.3136117213
 C   -1.3414052717   -2.0040044195    0.7590096471
 C   -1.3189623398   -2.3406173499    2.2201242614
 H    1.0235976544    1.7101918073   -0.2064743048
 H   -0.2002833345    1.2867974219   -1.4299787728
 H   -0.7083502739    1.9595086408    0.1409447693
 H   -2.0272833972    0.0374530090    0.5444926244
 H   -2.2528551215   -0.6851306265   -1.9478459868
 H   -0.7899915390   -2.7850313193   -2.4938440339
 H    0.4424045759   -1.7836519876   -1.6535938294
 H   -0.6322518400   -4.0093352645   -0.0539113057
 H   -3.3113535073   -2.8714873392   -0.2419957457
 H   -1.5827160449   -3.3901723616    2.3888653026
 H   -0.3237652513   -2.1747894816    2.6471305912
 H   -2.0308524287   -1.7245871715    2.7814826516