18

 O    0.0730196940    1.4262704963   -0.0878510827
 C   -0.0094680430    0.0180344570    0.0716802701
 C   -1.4548933115   -0.4975392756   -0.0604542300
 C   -2.0481150491   -0.0471118370   -1.4081026694
 O   -3.2875231216   -0.6508081150   -1.7309468671
 C   -1.5016705050   -2.0421724520    0.0813107315
 O   -0.6287015067   -2.5492590798    1.0819170997
 C   -2.8748448094   -2.5107464603    0.3512312702
 N   -3.9250469391   -2.8675734993    0.6769285116
 H   -0.2820956504    1.8392150102    0.7056583166
 H    0.6066521451   -0.4104418296   -0.7274870916
 H    0.4253274440   -0.3097767759    1.0220259022
 H   -2.0500211492   -0.0640780088    0.7588360637
 H   -2.1008693017    1.0478922039   -1.4255782382
 H   -1.3635158606   -0.3465587259   -2.2110148199
 H   -3.9478176868   -0.3856494305   -1.0820127719
 H   -1.1578852932   -2.4919930653   -0.8568517473
 H   -1.0096510858   -2.3557259023    1.9462257726