23

 C   -0.4953665021    1.5289632344    0.0146550102
 C    0.0122582787    0.1043153456   -0.0011664051
 C   -1.0410459580   -1.0375693222    0.1252762271
 C   -0.2616433127   -1.6451026733    1.3298894625
 C    0.8300983780   -0.5542875129    1.1829243921
 C    1.9444076672   -0.8821082546    0.1824905088
 C    3.4197596890   -0.7660987586    0.4314756034
 C    2.8004589872   -2.1153516805    0.1463358459
 C    1.1743601292   -0.2363040120   -0.9820511132
 H    0.3280551542    2.2469686625    0.1025988421
 H   -1.0401769275    1.7618200214   -0.9092800940
 H   -1.1802147684    1.7007820027    0.8531169493
 H   -2.0407344599   -0.6789648413    0.3865461671
 H   -1.1329909097   -1.6794332251   -0.7558526492
 H   -0.8127766223   -1.5786391072    2.2715183244
 H    0.0872585766   -2.6747402274    1.2117153831
 H    1.1232050795   -0.0078261300    2.0829072615
 H    4.0335797385   -0.3099482391   -0.3396246355
 H    3.7536279891   -0.5624484606    1.4444348165
 H    2.7177921831   -2.8223303319    0.9664793489
 H    2.9956960645   -2.5749617910   -0.8177090978
 H    0.9070732586   -0.8965725069   -1.8143028931
 H    1.6681229671    0.6512763980   -1.3924359252