20

 C    0.1242539080    1.4418344173   -0.1773629073
 C   -0.0500684190   -0.0644812296    0.0132355070
 O    0.7337912206   -0.5509581865    1.0980114577
 C   -1.5117473407   -0.4694271940    0.1889152150
 C   -2.4132582753   -0.4201496393   -1.0857152760
 N   -2.6040334305   -1.8641496607   -0.9472499966
 C   -1.7783986317   -2.0024466859    0.2529674086
 C   -3.3777764322   -2.7661224006   -1.5862217051
 O   -3.4709331467   -3.9368641955   -1.2765306118
 H    1.1827683328    1.6884006096   -0.2933633460
 H   -0.4130694392    1.8001206614   -1.0615377006
 H   -0.2627239264    1.9890390919    0.6916258788
 H    0.3502153503   -0.5877143576   -0.8652572617
 H    0.4809232882   -0.0611643864    1.8888195928
 H   -1.9459960046    0.0763874353    1.0326853701
 H   -3.3317190665    0.1695308622   -0.9915589826
 H   -1.8952181976   -0.1214206169   -2.0058495224
 H   -0.8922473444   -2.6296650793    0.1165535171
 H   -2.3328668745   -2.3612375180    1.1253574868
 H   -3.9244371408   -2.3109741475   -2.4391390439