14

 O   -0.1652223886    1.4191204710   -0.3738089481
 C   -0.0310603351    0.0727386855    0.0337978309
 C   -1.4098009359   -0.6090838880   -0.0219055430
 O   -2.4949739618    0.1875955296    0.3287818289
 C   -1.4845138121   -1.1139572007   -1.4649273778
 O   -2.4923949537   -1.3213791177   -2.0912262391
 N   -0.1772635932   -1.2818161112   -1.8945287376
 C    0.7617521142   -0.6712216203   -1.0647945310
 O    1.9514583911   -0.6510954235   -1.2437386724
 H    0.7229626297    1.7891136357   -0.4420764416
 H    0.4653351613   -0.0200681211    1.0059945845
 H   -1.3542756253   -1.5114810776    0.6132900517
 H   -3.1804505175    0.0271233909   -0.3345962402
 H    0.0638439069   -1.6731742327   -2.7953533251