16

 C   -0.0655433610    1.4322399925    0.0191272922
 N    0.0142964715   -0.0144978978   -0.0243217845
 C    0.2561032364   -0.8289470294   -1.0779080052
 N    0.2448314001   -2.0874468049   -0.6935316833
 C   -0.0159048520   -1.9926713959    0.6451238172
 N   -0.1623653378   -0.7456352168    1.0883339963
 C   -0.1286445879   -3.1811746304    1.5418974507
 C    0.0651883813   -4.5275943079    0.8768722698
 O   -0.3607583908   -3.0549805589    2.7226170855
 H    0.1065639378    1.8232601527   -0.9848937317
 H   -1.0538951596    1.7401422573    0.3672467119
 H    0.6918064989    1.8265451451    0.7001429005
 H    0.4289568816   -0.4584050001   -2.0774648608
 H    1.0506764000   -4.5800744912    0.4034512236
 H   -0.0388887256   -5.3138676830    1.6248840928
 H   -0.6670949930   -4.6651405813    0.0750519051