21

 C    0.0298872786    1.5307955513   -0.1518074755
 C   -0.0008555791    0.0173579698    0.0148306732
 C    1.3093552743   -0.7613120927   -0.0362770714
 C    0.5671372441   -0.6511413761    1.2682598625
 C    1.1171152512    0.1325215604    2.4400066208
 C    2.0432637740   -0.7164456662    3.3067146981
 O    2.5058753672    0.0998433986    4.3715836795
 C   -1.1576037860   -0.6136227547   -0.5677157980
 C   -2.1329680637   -1.1221831522   -1.0559593696
 H    0.9450225136    1.9618632224    0.2599988622
 H   -0.0181237709    1.7938686333   -1.2128383423
 H   -0.8242072989    1.9980840513    0.3482842326
 H    1.3187884145   -1.7097888815   -0.5600037427
 H    2.2119557357   -0.1691374302   -0.1544948877
 H    0.0211638701   -1.5453598603    1.5580066904
 H    1.6800934067    1.0083777472    2.1027051552
 H    0.3002360709    0.5057465581    3.0694834042
 H    1.4957641163   -1.5952967938    3.6850195660
 H    2.8791486705   -1.0925271419    2.6953077734
 H    3.0854925973   -0.4293100468    4.9270018205
 H   -2.9915197065   -1.5751266563   -1.4856137212