13

 O   -0.9104362429    1.0808027198   -0.3153687967
 C    0.1824729012    0.8028179210    0.1192588564
 C    1.3297371338    1.6748666120    0.0454585334
 C    2.3072183026    2.3814164908   -0.0019921215
 C    3.4741240609    3.2116021242   -0.0464744869
 C    3.8507126695    3.9053234493   -1.3141692493
 O    3.2789470031    4.6279285817   -0.2503692160
 C    4.6073464655    2.9130133570    0.9056306374
 O    4.6963769751    1.9179110366    1.5676515646
 H    0.3863383556   -0.1656039841    0.6174073410
 H    4.9046913597    4.0979418230   -1.5134683078
 H    3.2166916207    3.7421255322   -2.1828872468
 H    5.3606017553    3.7301327764    0.9254127624