15

 N   -0.0066668198   -1.1574360965    0.0482663020
 C   -0.0019105525   -0.0045329546   -0.0271060019
 C    0.0502749870    1.4541835909   -0.1210308889
 C    1.4679572815    1.9705033329   -0.0821354357
 N    2.4985001077    1.7207610377   -1.1365365232
 C    3.2255178304    2.5727319371   -0.1369743728
 C    1.9610135606    3.4359868461    0.1370339426
 O    2.0340416737    3.3225343271    1.5847654794
 C    2.4780944079    2.0155136711    1.1194520883
 H   -0.4379461379    1.7717372086   -1.0490631873
 H   -0.5049925670    1.8919279753    0.7167360080
 H    2.8288227447    0.7535485027   -1.0895034189
 H    4.2617671663    2.8884964186   -0.2460825004
 H    1.6256627948    4.3686131170   -0.3135340859
 H    2.7576359526    1.2553585860    1.8496499648