13

 N   -0.1936308285    1.3515031672   -0.1821049841
 C   -0.0541882617    0.1284654498    0.0704891654
 C   -1.1778869266   -0.8579216833   -0.0999976082
 N   -1.1410575957   -1.8616178114    0.9490979530
 C    0.0047950930   -2.3680914243    1.4760614041
 O    0.0620626679   -3.2951333765    2.2477915848
 C    1.2979737039   -1.6450645121    1.0348953809
 O    2.3832468499   -2.0874985385    1.2268250079
 O    1.1668250647   -0.4054157790    0.4381637458
 H    0.6883420219    1.8536054975   -0.0629147841
 H   -2.1163629950   -0.3055442405   -0.0583068942
 H   -1.0997734811   -1.3128305422   -1.0994403197
 H   -1.9858065426   -2.3659537867    1.1780720483