14

 C    0.0647546956    1.3290097706    0.0088984456
 N   -0.1254888332   -0.1024345562    0.0023026897
 N   -0.0279617234   -0.8116167090   -1.1603936009
 C    0.0949437953   -2.0317359276   -0.7005962118
 O    0.1316722543   -3.2921340345   -1.2027612105
 C    0.3557719523   -4.1048753615   -0.0220507985
 O    0.1459800147   -3.3048605906    1.1699257787
 C    0.1032264996   -2.0391500520    0.6817949526
 N   -0.0145338295   -0.8240822582    1.1560870006
 H    1.1273169335    1.6000886338    0.0041926900
 H   -0.4153645573    1.7395709939   -0.8801218629
 H   -0.4049965450    1.7299605663    0.9077895030
 H   -0.3556940123   -4.9328310939   -0.0221939059
 H    1.3926172953   -4.4615575512   -0.0302233697