16

 C    0.0204617483    1.4321695793    0.0916094410
 C    0.0025676116   -0.0442724316   -0.0630764089
 N   -0.0740451222   -0.7447093062   -1.1570394223
 C   -0.0506084309   -2.0535995272   -0.7046129196
 C    0.0384261986   -2.0716105333    0.6303416005
 C    0.0691682253   -3.4462245093    1.1908609714
 O   -0.0143035198   -4.2450355097   -0.0053913120
 C   -0.0916895945   -3.4536994474   -1.2169064586
 O    0.0758863867   -0.7966259706    1.0925328958
 H    0.9403629560    1.7674688528    0.5818790661
 H   -0.0435796861    1.8890278558   -0.8961039491
 H   -0.8221680994    1.7763764146    0.7002973627
 H    0.9946999853   -3.6892307142    1.7327557929
 H   -0.7786339369   -3.6807267512    1.8508384821
 H   -1.0188287207   -3.7045452385   -1.7496886022
 H    0.7536184688   -3.7130978734   -1.8684528300