20

 C    0.6333264068    0.1059066272    1.1561827072
 O   -0.0607454660    0.0188688907   -0.0752636634
 C   -1.2285675013   -0.7606570560   -0.0419913252
 C   -1.4326726526   -1.6086339504   -1.2613004617
 C   -1.0668743392   -2.2534193030    0.0620914611
 C   -2.4213517195   -0.0622751641    0.6198124201
 C   -2.7401448303    1.2694611817   -0.0579675038
 O   -3.5618210267   -0.9131220768    0.6759434903
 H    1.5735157779    0.6236516686    0.9508072934
 H    0.0794156111    0.6790988840    1.9126068953
 H    0.8542661036   -0.8880783394    1.5679362785
 H   -2.4386695317   -1.7559994627   -1.6390771075
 H   -0.6637390797   -1.5476412479   -2.0222892842
 H   -0.0589678842   -2.6399912689    0.1630895941
 H   -1.8380171511   -2.8068672278    0.5837107951
 H   -2.1682431974    0.1232279586    1.6711662381
 H   -3.0401043649    1.1053373796   -1.1007293182
 H   -3.5555806414    1.7781948470    0.4634191340
 H   -1.8608428472    1.9175844018   -0.0697698990
 H   -3.9999563760   -0.8706483521   -0.1805269640