20

 C    0.1665983447    1.6158341723    0.0757111577
 C    0.1112773875    0.0975737974    0.0322809834
 C    1.0622703505   -0.6743095855   -0.9318147785
 C    1.3697268542   -1.6957267453    0.2057701985
 C    2.8137744926   -1.8175912522    0.6749203415
 C    3.0075052217   -0.5945668891    1.5523652384
 N    4.1160376852   -0.1402748472    1.9490849583
 O    1.7904157395   -0.0492678300    1.8715680959
 C    0.7054031222   -0.7159641987    1.2136582652
 H    1.1817652151    1.9646821018    0.2839029015
 H   -0.1505190105    2.0406970417   -0.8826616019
 H   -0.4908089689    2.0176703079    0.8542357846
 H   -0.9205329755   -0.2383272761   -0.1217590586
 H    0.6150949743   -1.0778333710   -1.8425255061
 H    1.9438117866   -0.0888523288   -1.2119421221
 H    0.8584043078   -2.6508803647    0.0857715087
 H    2.9709000498   -2.7164727672    1.2814914341
 H    3.5506695414   -1.8326392623   -0.1304865303
 H    3.9751567297    0.6814466112    2.5394736307
 H    0.0187551121   -1.0848007341    1.9802042390