18

 C    0.3904611265    1.3422747500   -0.2047471849
 C   -0.1956745199   -0.0323559061    0.1282088244
 O   -0.0509917142   -0.8998427857   -1.0302950712
 C    1.0239164659   -1.6965770374   -1.1922660175
 O    1.2725333056   -2.2132256041   -2.2508477520
 N    1.7908729602   -1.9060395298   -0.0574435568
 C    1.3848656174   -1.5414462054    1.2329647280
 C    2.1163167774   -2.2117534443    2.3549001952
 C    0.3991586065   -0.6519516571    1.3584710533
 H    1.4752555088    1.2778970437   -0.3310982550
 H   -0.0518351329    1.7316866615   -1.1260212883
 H    0.1824834021    2.0440787611    0.6091555885
 H   -1.2813147626    0.0615415271    0.2375291728
 H    2.5071767243   -2.6039191141   -0.1798397137
 H    1.9881887049   -3.3003186710    2.3168261998
 H    3.1925552267   -2.0079560419    2.2970391879
 H    1.7531204895   -1.8546219671    3.3197423066
 H    0.0366109939   -0.3459733093    2.3307572329