14

 C    0.3019198844    1.4185747053    0.0214942999
 N   -0.0183331558   -0.0061399604    0.0124460928
 C   -0.3743989413   -0.6641074870   -1.1163419036
 N   -0.6730917469   -1.9139080322   -1.2200568786
 C   -0.6326858213   -2.6823738404   -0.0738321540
 O   -0.8769026201   -3.8440188411    0.0080328492
 O   -0.2625608951   -2.0253426879    1.1342496386
 C    0.0478217829   -0.7088561197    1.2212267696
 N    0.3771265565   -0.1158294663    2.2861712928
 H    1.3225984039    1.5703734225    0.3775067262
 H    0.1996505237    1.8019073006   -0.9948992379
 H   -0.3761048848    1.9502336806    0.6917188082
 H   -0.4016283891   -0.0451542848   -2.0114318671
 H    0.3765518428   -0.7657724791    3.0696500939