15

 O   -0.4195268295    0.0940231083   -0.5955988796
 C    0.2065955141    0.6271429360    0.2911599423
 C    1.1235079207    1.7749246810    0.0675814260
 C    1.4213279400    2.1367619259   -1.3466758161
 O    2.0976558399    3.0910703628   -1.6605686659
 C    1.2334778054    2.9888778356    1.0263210850
 C    1.0366693368    2.5540471316    2.4728918645
 O    2.0716643119    1.5326293654    2.3200563496
 C    2.3353042298    2.0067887468    1.0133161807
 H    0.1483216376    0.2595513763    1.3338214213
 H    0.9862219954    1.4486897431   -2.0941470576
 H    1.1781440477    3.9818340160    0.6042139190
 H    1.3681240747    3.3160524977    3.1846280040
 H    0.0745904559    2.1396522948    2.7856114704
 H    3.3477232995    2.0143648288    0.6304133964