21

 C   -0.0700290424    1.5331285669    0.0118193345
 C   -0.0170153198    0.0181255909    0.0101570110
 C   -1.2367924121   -0.6548502913   -0.5901995930
 C    1.3275464726   -0.6502436524   -0.1996165719
 C    0.6679868730   -0.6936118159    1.1572240552
 N    1.2644379911    0.0789525634    2.2117598890
 C    0.6543393219   -0.0339950465    3.5328216678
 C    1.9728057381   -0.6664957179    3.2475921852
 H    0.7961376817    1.9574199127    0.5225901391
 H   -0.0977275415    1.9200591499   -1.0136335942
 H   -0.9704449032    1.8929885036    0.5244750992
 H   -1.3650225133   -0.3684114523   -1.6409583224
 H   -1.1564574552   -1.7461538665   -0.5527963077
 H   -2.1500073719   -0.3676348672   -0.0551981379
 H    1.3750019530   -1.5646774949   -0.7818928487
 H    2.1968789304   -0.0077701034   -0.2892852028
 H    0.2298290390   -1.6506586996    1.4599000501
 H    0.5932723563    0.8855885240    4.1079665690
 H   -0.2017838034   -0.6979171175    3.6423819022
 H    1.9965525017   -1.7519497961    3.1664556006
 H    2.8927841140   -0.2166249300    3.6102948157