22

 C    0.3165862336    0.9068891772   -0.0713222400
 O    0.6775427694   -0.3597801408    0.4466531896
 C    1.0200871617   -1.3040710539   -0.5233936335
 C   -0.1714478564   -1.8734332850   -1.2997786785
 O   -1.3030629576   -1.4913899313   -1.1217231894
 C    0.1603408738   -2.9166074049   -2.3721953952
 N    1.1721672148   -3.8735426427   -1.9482024666
 C    0.6375038170   -4.8243256897   -0.9810954541
 C    1.8002807516   -4.5543290695   -3.0712729995
 H    0.1524782469    1.5627441032    0.7868912684
 H    1.1267485129    1.3295010978   -0.6873298042
 H   -0.6011296644    0.8586411547   -0.6669541530
 H    1.7433303887   -0.9055897779   -1.2590887241
 H    1.5318753827   -2.1295074911   -0.0187979408
 H   -0.7896476287   -3.3804764923   -2.6918403775
 H    0.5524484701   -2.3592108009   -3.2339642885
 H   -0.1543447983   -5.4682827717   -1.4072816373
 H    1.4414006875   -5.4689541482   -0.6134398697
 H    0.2092622632   -4.2945074903   -0.1243917825
 H    2.2525409320   -3.8211673314   -3.7460875378
 H    2.5937148688   -5.2118844691   -2.7026461077
 H    1.0937217807   -5.1714360724   -3.6572939383