21

 C    0.3137850267    1.4506062514   -0.1675320444
 C   -0.0526942432   -0.0362275949    0.0149578353
 C   -1.5697438473   -0.1771768390    0.2002882072
 C    0.4770585215   -0.9055333340   -1.1638752346
 C    1.8353751747   -1.4873933230   -0.7049035729
 C    1.7565470328   -1.3863487077    0.7942478868
 C    0.7386631322   -0.6131633133    1.1999342068
 C    0.4233977823   -0.2791799324    2.5394677468
 C    0.1143552967    0.0340290281    3.6622472783
 H    1.3837793164    1.5746297697   -0.3633992794
 H   -0.2395810536    1.8835994372   -1.0082125956
 H    0.0692464881    2.0255686994    0.7313168130
 H   -2.1005084761    0.1842521473   -0.6874712513
 H   -1.8521345150   -1.2223678993    0.3623734631
 H   -1.9171641722    0.4023165637    1.0612483279
 H   -0.2230597385   -1.7273094533   -1.3460955335
 H    0.5516187772   -0.3327090958   -2.0925391174
 H    1.9925323031   -2.5144221784   -1.0536805200
 H    2.6879890019   -0.9061637858   -1.0850561110
 H    2.4707800935   -1.8557975177    1.4610508134
 H   -0.1437708814    0.2987396176    4.6574308312