18

 C    0.0707421039    1.4296401327   -0.0335021185
 N    0.1943955840   -0.0177204419   -0.0717259271
 C    0.6004735349   -0.6416070624    0.9398611558
 O    0.9946672228   -0.1010965638    2.1407164340
 C    1.2193984930   -1.1835797801    3.0425260130
 O    1.4703609905   -2.3235256149    2.2624095065
 C    0.7466510013   -2.1190065375    1.0699868744
 C   -0.3605348016   -3.0626019118    0.6611688452
 C    0.9564018601   -3.0338046830   -0.0858189922
 H    0.8087751068    1.8741734668   -0.7116655925
 H   -0.9174707637    1.7128533895   -0.4117080806
 H    0.2075743321    1.8657812545    0.9626451272
 H    2.0963263247   -0.9644313471    3.6565802184
 H    0.3244409966   -1.3104136111    3.6726713946
 H   -0.5444283533   -3.9049195218    1.3184206072
 H   -1.2323867139   -2.6277716731    0.1861547043
 H    0.9821466718   -2.5718975458   -1.0661451470
 H    1.6403704902   -3.8604673692    0.0694108673