15

 C   -0.0127109777   -1.1619790245   -0.0041685685
 C    0.0218760313    0.0381953290    0.0024095179
 C    0.0154000366    1.4935964033    0.0109115899
 O    1.3677841500    1.9590069064   -0.0026035931
 C    1.5108018949    3.3018553840    0.0034382079
 C    2.7106049382    3.9710736514   -0.0070735871
 N    2.3491680967    5.3073936685    0.0049744299
 C    0.9965004810    5.3713327068    0.0215549090
 N    0.4548355131    4.1676430608    0.0210980113
 H   -0.0375925122   -2.2234578474   -0.0100807714
 H   -0.5252875796    1.8845392103   -0.8601994181
 H   -0.5041984345    1.8743507016    0.8992007014
 H    3.7328762763    3.6393006126   -0.0212377372
 H    2.9832123358    6.0880144870    0.0018740317
 H    0.4561685102    6.3052533802    0.0334246964