21

 C   -0.0747331977    1.5585814777    0.0535126378
 C   -0.0428665309    0.0316371328   -0.0809672761
 C   -1.4269326196   -0.6078252932    0.0040230327
 C   -1.4189529975   -2.1380713064    0.0768657942
 C   -1.3841519138   -2.1200557035    1.6079445637
 C   -2.0274791610   -0.6950251058    1.4384585103
 O   -3.3403213893   -1.2836352897    1.2229159688
 C   -2.6527168698   -2.5072824697    0.9252770941
 C   -3.4318867248   -3.7747932001    0.8466257309
 H    0.9303961234    1.9835435830   -0.0284287575
 H   -0.6926264912    2.0111362123   -0.7297354000
 H   -0.4875744338    1.8703259075    1.0188262860
 H    0.4145362230   -0.2372249473   -1.0417599722
 H    0.6050599959   -0.3993596613    0.6934076543
 H   -2.1084620764   -0.1546544812   -0.7272373878
 H   -0.9421528136   -2.8436448833   -0.5934985378
 H   -0.7519702522   -2.5959104179    2.3447949498
 H   -2.0316168002    0.1370769685    2.1401025014
 H   -4.1535211258   -3.7358662095    0.0236103269
 H   -2.7615148202   -4.6216020454    0.6715520064
 H   -3.9806304846   -3.9541032176    1.7765175243