20

 C   -0.1674515523    1.4918466072    0.1993791908
 C    0.1267658171    0.0329271032    0.0360206286
 C    0.5702403379   -0.6839406348   -1.2493360765
 C    1.3623019321   -1.7095201943   -0.3657143849
 C    0.8807109891   -0.9481830390    0.8753842191
 C    1.6172294684   -0.7827553965    2.1810272586
 C    1.6098806855   -1.9904426737    3.0051736097
 C    1.6003059842   -2.9921967713    3.6685023998
 N   -0.6030737841   -1.0048676108    0.8173344020
 H    0.6107655891    2.1070553427   -0.2652642794
 H   -1.1229955263    1.7543595989   -0.2704963806
 H   -0.2315645594    1.7716707500    1.2569775425
 H   -0.2420353005   -1.0882687740   -1.8582241614
 H    1.2281882005   -0.0737450586   -1.8732804163
 H    1.0462888105   -2.7533128505   -0.4210202062
 H    2.4428838397   -1.6441878378   -0.5159990941
 H    2.6564711576   -0.4921857365    1.9755789691
 H    1.1756577409    0.0491044301    2.7469412513
 H    1.5891063527   -3.8762004146    4.2563895970
 H   -0.9496767326   -0.5491276897    1.6632047710