15

 C    0.0427941233    1.4592180174    0.0107527115
 C    1.2842738079    0.6505913687    0.0592802507
 C    1.9326009507    0.3386435313    1.4214876141
 N    0.8383026881   -0.3775591609    2.0454505622
 N    0.6237221138   -0.9270004127    3.2637252514
 C   -0.5993845200   -1.4217495476    3.0983924302
 N   -1.1749970552   -1.2289956538    1.8682561673
 C   -0.2257496202   -0.5671878542    1.2457284793
 N   -0.0512484601   -0.0242393349   -0.0446720391
 H   -0.2994787420    1.9444685082    0.9210144250
 H   -0.2337128918    1.9569594700   -0.9127961153
 H    1.9116928003    0.5786646593   -0.8214812998
 H    2.8167781564   -0.2971458026    1.3095450884
 H    2.2122744865    1.2307141295    1.9897615109
 H   -1.1009912076   -1.9493286175    3.8960526732