19

 C    0.0330337791    1.3707163938   -0.2865554375
 C    1.4774433994    1.5674493145    0.2045918758
 C    1.3299175578    0.1423023556    0.7736463604
 O   -0.0112870591    0.0277269933    0.2405005526
 C    2.1978175809   -1.0686504386    0.4871102417
 C    3.1935433138   -1.2000393262    1.6492086498
 C    2.9385312879   -0.0337715251    2.6060294208
 C    1.4373433241   -0.2374788067    2.2717413572
 C    1.7837398571   -1.7091768779    1.7964148384
 H   -0.7203547773    2.0177137228    0.1793306445
 H   -0.1120294372    1.3855808571   -1.3733238649
 H    2.2293611460    1.6728077814   -0.5798005823
 H    1.6268976856    2.3510821012    0.9508305484
 H    2.3677514500   -1.5488015930   -0.4681634598
 H    4.0989218411   -1.7817381647    1.5285833978
 H    3.1675420466   -0.3092048139    3.6393697684
 H    3.3783023549    0.9460273057    2.3824280113
 H    0.6444559318    0.0595170762    2.9548986894
 H    1.3745986976   -2.6826562854    2.0182816579