18

 C    0.1432029294    1.5007094389    0.2115827378
 C   -0.0786781538    0.0369135516   -0.0307961689
 C    0.2024170348   -0.6225130434   -1.4475951916
 C   -1.1711758633   -1.4249107155   -1.4030427784
 C   -1.0790138457   -2.9293367494   -1.0002168196
 N   -0.2899178530   -2.9043403399    0.2757199801
 C   -0.4782167636   -1.7238886993    0.6921500001
 O    0.4485982878   -0.7944013032    1.1172320496
 C   -1.3943606028   -0.7583861346   -0.0362049199
 H    1.2130040754    1.7338239259    0.2072098685
 H   -0.3386588149    2.0905150057   -0.5741314734
 H   -0.2700846406    1.7980233710    1.1790992870
 H    0.1923927246    0.1411520196   -2.2286297088
 H    1.1213328624   -1.2053097069   -1.5261920371
 H   -1.8510010539   -1.2075115880   -2.2285245449
 H   -2.0737683762   -3.3855099119   -0.8962507243
 H   -0.5119653224   -3.5299896320   -1.7182582608
 H   -2.3367619041   -0.4379062785    0.4042705046