17

 N   -0.1762022572   -1.0407735081   -0.6294997189
 C   -0.1233021775    0.0489545418   -0.2462662629
 C   -0.0052548049    1.4362947946    0.1967988200
 O    0.0667783305    1.5723535138    1.6217514744
 C    1.2771483145    2.3656540974    1.5433084275
 C    1.3924554583    2.1472811325    0.0248361395
 C    2.5646425623    1.4114669661   -0.6629234742
 C    2.3996673065    2.4388961790   -1.8112917577
 N    1.5709882991    3.2598371319   -0.8961294570
 H   -0.8346704967    2.0196815977   -0.2291133502
 H    1.1029239344    3.4103955031    1.8269291672
 H    2.0796950520    1.9432398209    2.1576072701
 H    3.5009325222    1.5243573057   -0.1128557462
 H    2.4064299101    0.3602693157   -0.9035620262
 H    3.3014648174    2.9441007260   -2.1690705078
 H    1.8583668900    2.0273628963   -2.6723956561
 H    0.7363374489    3.6954158556   -1.2736462214