15

 C    0.0897890696    1.5636248999   -0.0260811917
 N    1.2985321491    0.7160189576    0.0116340013
 C   -0.0094941750    0.0898329895    0.0218484647
 C   -0.5095083069   -0.8675051591    1.1518964019
 N   -1.0390437025   -1.6770797522    0.0250502386
 N   -1.7204995047   -2.7465568916   -0.4028109673
 N   -1.7238521198   -2.6280299467   -1.7129758980
 C   -1.0635565241   -1.4951931749   -2.1131289632
 C   -0.6191919431   -0.8722472945   -0.9665260861
 H   -0.0816759873    2.1502841221    0.8719831848
 H   -0.1855072764    2.0561401383   -0.9547739744
 H    1.7284016979    0.6421241626   -0.9068376626
 H    0.2794609769   -1.3658302607    1.7168006549
 H   -1.2876957767   -0.4806172567    1.8120738951
 H   -0.9731640370   -1.2425743837   -3.1556788078