15

 O    0.0782373202   -0.0597756956   -0.0740210092
 C   -0.0012554714    1.1192328057    0.1102551628
 O   -1.1966221761    1.6975113513    0.4110977812
 C   -1.3178231493    3.0860247823    0.8097729712
 C   -0.1104741318    3.5988116519    1.5611385409
 C    1.0432523629    3.1365431414    1.1161562204
 C    2.4774026587    2.8247949373    1.4564584832
 O    2.4394739011    1.7035337884    0.5218826788
 C    1.1452951067    2.1147913684    0.0288685336
 H   -1.5279406053    3.6830954999   -0.0876177231
 H   -2.2118816491    3.1105543448    1.4370752693
 H   -0.2455205828    4.2278581397    2.4333028161
 H    3.2183559103    3.5743772388    1.1500775972
 H    2.6829283196    2.5066689986    2.4843009462
 H    1.2081054063    2.4987403172   -1.0013272287