19

 C   -0.1196429755    1.5700002325    0.0676206289
 C    0.0209062921    0.0563415290   -0.0118414897
 C    0.7421461930   -0.5262643340   -1.2708921271
 C    0.4121441873   -1.9822259378   -1.6885225161
 O    1.5290360906   -2.5182868267   -0.9145218923
 C    1.7833246179   -1.2391579008   -0.3812786777
 C    3.0821803272   -0.6164009289    0.0831923299
 O    2.3253605835    0.2020751209    1.0197273811
 C    1.1220978304   -0.6005795769    0.8718738802
 H    0.8576203836    2.0523374544   -0.0181448122
 H   -0.7654903451    1.9449738196   -0.7333349588
 H   -0.5579787129    1.8738570624    1.0240388540
 H   -0.9496188485   -0.4256852480    0.1579669662
 H    1.0137594387    0.1572891830   -2.0760489077
 H   -0.5489863390   -2.3733421661   -1.3341684909
 H    0.5317029187   -2.2119982101   -2.7518430074
 H    3.7538871438   -1.3094646071    0.6082963185
 H    3.6551506363   -0.0158465205   -0.6319934467
 H    0.8512992378   -1.1136401248    1.7990898376