21

 C   -0.2069656201    1.4558263697    0.0110675592
 C    0.0256876736   -0.0497544528   -0.0673178327
 C    1.2924766623   -0.4700759140   -0.8749379047
 C    2.0600342147   -0.6512595426    0.4657234464
 C    0.7059288727   -0.6489628620    1.1945192791
 O    0.5902012013    0.0303665209    2.4584673879
 C   -0.1483299585   -1.0616764568    3.0441856671
 C    0.1155507132   -1.9466671432    1.8207922640
 O   -1.0544201067   -2.5026383177    1.2742211836
 H    0.7090780053    1.9922194448    0.2801973229
 H   -0.5522209039    1.8412901960   -0.9541174029
 H   -0.9590438375    1.6975584338    0.7674780938
 H   -0.9009553968   -0.5597392560   -0.3460179567
 H    1.1585029545   -1.4109252625   -1.4160860399
 H    1.6905287522    0.2726025860   -1.5704592262
 H    2.6931114871   -1.5351327913    0.5898934527
 H    2.6434626365    0.2342110896    0.7320136068
 H    0.2751784718   -1.3822650380    4.0016878022
 H   -1.2129166201   -0.8284636023    3.1696633467
 H    0.8842759190   -2.7120327120    1.9910052018
 H   -0.8079347405   -3.0993666495    0.5607651189