19

 C   -0.0294638433    1.5226901901   -0.0278910320
 C   -0.0208038259   -0.0159676557    0.0398268418
 C    0.7097073960   -0.5234489439    1.2970218209
 C   -1.4132836586   -0.5596285314   -0.0246495353
 N   -1.9421922482   -1.3272771833   -0.9300624481
 C   -3.2314349856   -1.4925692387   -0.4638275346
 C   -4.2557372143   -2.3103707624   -1.1705905187
 N   -3.4843419455   -0.8688824518    0.6565557523
 O   -2.2662235529   -0.2392944027    0.9590942455
 H    0.9965964848    1.9018971766   -0.0254173767
 H   -0.5226252546    1.8777697443   -0.9372562309
 H   -0.5537752850    1.9478188573    0.8328867107
 H    0.4824963136   -0.4090510824   -0.8485507094
 H    0.2123698588   -0.1713193080    2.2054627321
 H    0.7394099678   -1.6163993785    1.3260308837
 H    1.7391349342   -0.1535365774    1.3049649495
 H   -3.9100331397   -3.3431768966   -1.2749584912
 H   -5.1970000390   -2.3002056517   -0.6192339841
 H   -4.4240451426   -1.9186273040   -2.1782545855