21

 C   -0.4957646283    1.8017427041    0.2162217213
 C   -0.0219308291    0.3586010750    0.0858109436
 C   -1.2058830497   -0.5867936851   -0.2336407037
 C   -1.8434236075   -0.3154499480   -1.5172919910
 C   -2.3484586734   -0.0839837713   -2.5837506373
 C    1.2006288322    0.1020761277   -0.8515184295
 C    1.7994096278   -0.8326134921    0.2322152916
 O    3.1827908159   -0.8264451649    0.4772916572
 C    0.8295638856   -0.2038971210    1.2686583417
 H    0.3426434548    2.4705274143    0.4359762703
 H   -0.9720495452    2.1457369874   -0.7074742399
 H   -1.2261915131    1.9044734174    1.0279268507
 H   -0.8615962947   -1.6285503139   -0.2218326720
 H   -1.9498226709   -0.5052738083    0.5703631945
 H   -2.8042716993    0.1136731130   -3.5221290261
 H    1.0046070058   -0.3098354140   -1.8442921734
 H    1.8084854702    1.0070980230   -0.9640031724
 H    1.5509044605   -1.8796339537    0.0378334339
 H    3.4528081833    0.0845429689    0.6348622467
 H    1.3208810501    0.6054186886    1.8202935913
 H    0.3395410051   -0.8666590969    1.9879387227