19

 C    0.1290869407    1.5452195529    0.0171813091
 C   -0.0490092672    0.0323287329   -0.0641586984
 C   -1.4752547842   -0.4303584595    0.1852189182
 O   -2.3702188951    0.3444512457    0.4524990968
 C   -1.7038293936   -1.9104066088    0.0915429131
 C   -2.8865246072   -2.5098244190    0.7940124313
 C   -2.8971209822   -2.4764569938   -0.7123124858
 C   -3.8568321139   -1.5944975759   -1.4306985294
 O   -4.3272467782   -1.8853664226   -2.5046241966
 H    1.1719844807    1.8208869071   -0.1610165184
 H   -0.4947649018    2.0512915875   -0.7238123065
 H   -0.1665028433    1.9198111431    1.0002740049
 H    0.2583797702   -0.3577409829   -1.0450006843
 H    0.5972925386   -0.4863120548    0.6588079064
 H   -0.8059575132   -2.5139080713    0.0114283558
 H   -2.7698020714   -3.4710663085    1.2797913640
 H   -3.5308086289   -1.7981954646    1.3001449129
 H   -2.6904699768   -3.4002197119   -1.2422794705
 H   -4.1272665829   -0.6585368654   -0.9062611126