14

 C    0.0398745410    1.4394013921    0.0709583677
 C    1.5291268024    1.8627963874   -0.1202117522
 N    2.1632568664    0.5747239688    0.0560900003
 N    3.4482828510    0.1208618978    0.0997215672
 C    3.2467214670   -1.1876883444    0.0439615922
 N    1.9416397398   -1.6095976217   -0.0734846643
 C    1.3116670184   -0.4541117415   -0.0814663313
 N    0.0203951216   -0.0001169785   -0.2896052092
 H   -0.2565848910    1.5928496043    1.1167341117
 H   -0.6344189484    2.0109148139   -0.5697087955
 H    1.7192555644    2.2617441003   -1.1237635857
 H    1.8548968487    2.5962689564    0.6199155776
 H    4.0724502287   -1.8823613741    0.0921414188
 H   -0.7205657599   -0.5530790708    0.1173400429