20

 C   -0.1748129541    1.5430950249    0.0031092175
 N    0.0145406329    0.1036541981   -0.1322469775
 C    0.4095634973   -0.6822424374   -1.2807917488
 C    1.2462421551   -0.1714079755   -2.4464286765
 C    1.7296142329    1.2584464361   -2.5087062912
 C    2.6158556700    0.1964138448   -1.9153884657
 C    2.6213513066   -0.0410519942   -0.4033602802
 O    2.9684823021    1.1596224090    0.2859056752
 C    1.2480002003   -0.6416164672   -0.0289329306
 H   -0.8128835990    1.9066522345   -0.8077234049
 H   -0.7064099087    1.7269817844    0.9447960146
 H    0.7522492183    2.1215006171    0.0251860416
 H   -0.2562855808   -1.5125669436   -1.5094030867
 H    1.1353042064   -0.7144927327   -3.3783601331
 H    2.0212623144    1.6215359860   -3.4891190167
 H    1.2931091810    2.0169334982   -1.8797938981
 H    3.5199703551   -0.0610123787   -2.4555028043
 H    3.3743319637   -0.8162950032   -0.1893001475
 H    2.9474328906    0.9732261016    1.2303914001
 H    1.2574102858   -1.4357846119    0.7187544428