22

 C    0.0927394263    1.4793977669    0.0441728911
 C   -0.0666791809   -0.0195269131   -0.0085367990
 C   -0.9720185841   -0.7342227683    0.9267396257
 N    0.4984415506   -0.8188663812    1.1005359934
 C    1.1221564545   -2.0218853540    0.5033499355
 C    1.0073179584   -3.2555863362    1.3993547064
 O   -0.3226439153   -3.7213062890    1.5837742952
 C    0.5500804891   -2.1803660517   -0.9239007883
 C    0.2080606016   -0.7344335850   -1.3316850456
 H    1.0938925975    1.7785212803   -0.2867299529
 H   -0.6368240575    1.9716698854   -0.6091396534
 H   -0.0531005330    1.8515576029    1.0614665602
 H   -1.4750350250   -0.1758937748    1.7122290067
 H   -1.5183968830   -1.6012562389    0.5695096370
 H    2.1941577075   -1.7877755503    0.4365962970
 H    1.5552903341   -4.0828563552    0.9343161032
 H    1.4863438500   -3.0428264110    2.3654023095
 H   -0.7586249262   -3.1117690417    2.1863574895
 H    1.2669150281   -2.6506460804   -1.6018353791
 H   -0.3392174287   -2.8157971025   -0.9043758105
 H   -0.6352177067   -0.6718377765   -2.0269171250
 H    1.0653301128   -0.2564681660   -1.8213089065