15

 N   -0.0702656289    1.2664001647    0.1876890776
 C   -0.0029465381    0.0193453449   -0.0091938103
 O    1.1954379318   -0.6349289096   -0.1653831652
 C    1.1336478262   -1.8476411793   -0.9130529695
 O    0.2864784534   -2.7852005311   -0.3271459000
 C   -1.0395138390   -2.3222711547   -0.2639191594
 C   -1.4952360010   -1.8320936896    1.0703551985
 C   -1.2189471936   -0.8367484032   -0.0544656391
 H    0.8674094675    1.6732359695    0.1712742890
 H    0.8210209976   -1.6155292688   -1.9425142163
 H    2.1420468024   -2.2624317800   -0.9016963596
 H   -1.7220785515   -2.8607386484   -0.9158558917
 H   -2.5308914753   -1.9695958163    1.3578044998
 H   -0.7734001159   -1.8938956365    1.8760227442
 H   -2.0816943754   -0.3473902616   -0.4874357882