17

 O   -0.2518503662    1.5505513401    0.5088700335
 C   -0.0607840617    0.1940749588    0.1195910004
 C    0.7297307609   -0.5830272971    1.1751959587
 C   -0.3069684934   -0.9431138528    2.2486079107
 O   -0.0682231312   -1.3299904684    3.3602149695
 C   -1.7047461280   -0.7354277629    1.6486466614
 C   -1.4638828811   -0.4747378063    0.1505971351
 C   -2.5309382457    0.3813395663   -0.5019544657
 O   -3.0615000053    0.1145480081   -1.5492224359
 H    0.6090982359    1.9771049133    0.5605864887
 H    0.3821536953    0.1334638724   -0.8819425606
 H    1.1235790319   -1.5190769468    0.7578188431
 H    1.5737582645   -0.0325218106    1.5993773327
 H   -2.3532691239   -1.5875086421    1.8623709274
 H   -2.1464809141    0.1431353777    2.1353274826
 H   -1.4089056292   -1.4135673657   -0.4082666615
 H   -2.8003644987    1.2943204762    0.0697772600