21

 O   -0.0177131711    1.4379329909   -0.0299772878
 C    0.0542417811    0.0266642397    0.0907561802
 C    0.5508659375   -0.4778118812    1.4634227425
 C    0.0348702698   -1.9250853878    1.5215539475
 C   -1.3428970518   -1.8793008041    0.8282533891
 O   -1.6517785776   -3.0570158368    0.1116961916
 C   -2.5072146449   -1.2834703867    1.6783119134
 C   -2.4485362873    0.0255767309    0.8406160603
 C   -1.3392821775   -0.5926921487   -0.0583564457
 H    0.8704618408    1.7918773256    0.0780535856
 H    0.7066613774   -0.3887016830   -0.6949161630
 H    1.6370487691   -0.4028329340    1.5786847610
 H    0.0948967487    0.1350470377    2.2499530228
 H    0.6824174043   -2.5825200597    0.9300881010
 H   -0.0104056320   -2.3276068124    2.5395224070
 H   -1.7143559320   -3.7815749764    0.7440500646
 H   -3.4318469996   -1.8498600426    1.5441217710
 H   -2.3079808109   -1.1795407694    2.7494484256
 H   -3.3710445842    0.2699948505    0.3114385034
 H   -2.1245966944    0.9132345331    1.3857858833
 H   -1.6301102052   -0.7511438357   -1.0970108133