14

 C   -0.0596677778    1.5227313718    0.0165582544
 C    1.4339830458    1.9042361035   -0.0443373152
 N    2.1897501179    1.4907321419    1.1450085637
 C    2.3049714486    0.6768831229   -0.0941203085
 C    1.3546781349   -0.4540166998   -0.0493772886
 N    1.3630092366   -1.7494210117   -0.0746184465
 O    0.0257587418   -2.0984477221    0.0225976398
 N   -0.7957836000   -0.9851284619    0.1049679473
 C    0.0184991460    0.0215146122    0.0540029090
 H   -0.5442173286    1.9465703401    0.9002990177
 H   -0.5976199602    1.8760209138   -0.8689864027
 H    1.7225886580    2.8125184670   -0.5618648752
 H    3.0238742937    2.0660274376    1.2399656507
 H    3.2420402232    0.6319784947   -0.6338157759