18

 N   -0.0803391950    1.4600909971    0.1167791675
 C    0.0830179473    0.0137006194   -0.0523850783
 C    0.8842836237   -0.3503079289   -1.2410962056
 N    1.5360788286   -0.5754961894   -2.1692755378
 C    0.7138668659   -0.5801793536    1.2095246187
 N   -0.1266513166   -0.5000742490    2.4177386498
 C    0.3902796071   -1.8101858813    2.8814835589
 C    0.7466736073   -2.1281042388    1.4056984286
 O   -0.2440849861   -2.8372123102    0.7007795623
 H    0.8286608577    1.9143124125    0.0832561902
 H   -0.6182597544    1.8432674101   -0.6548432052
 H   -0.9112076831   -0.4271807964   -0.1684464972
 H    1.7247818711   -0.1588803904    1.3359048326
 H    0.0178385150    0.3017291972    3.0198662501
 H    1.2827390643   -1.7555878357    3.5209982344
 H   -0.3520802590   -2.4605136969    3.3569636984
 H    1.6932061211   -2.6285101481    1.2033671350
 H   -1.1028543150   -2.5216673675    1.0054245375