18

 C    0.0816629231    1.5422828887    0.0263237469
 C    0.0602200622    0.0908461910    0.0236865274
 C    0.0419295659   -1.1197354132    0.0233117273
 C    0.0227157041   -2.4785340698    0.0216571080
 C    0.0007361867   -3.6903225140    0.0262589587
 C    0.0011820770   -5.1222069600   -0.0188488516
 N   -0.4698683342   -5.8570149603    1.1864982886
 C   -1.2605395243   -5.9379578185   -0.0433690860
 C   -2.6306402856   -5.3110294538   -0.0190460082
 H    1.1088886703    1.9242245347    0.0152139919
 H   -0.4345308097    1.9497482196   -0.8504793309
 H   -0.4119548735    1.9433857599    0.9188755012
 H    0.8474294961   -5.5509011641   -0.5531384210
 H    0.0980505789   -6.6920770236    1.3064150221
 H   -1.1859147449   -6.8599634572   -0.6195993564
 H   -2.6146378869   -4.3753654508    0.5437613713
 H   -2.9778136193   -5.1000594355   -1.0358552264
 H   -3.3509808559   -5.9861526132    0.4546701670