23

 C   -0.2441059718    1.4845807131    0.0449402190
 C   -0.0410821666   -0.0300271212    0.0339022491
 C    1.1701842415   -0.4912868736   -0.8378183507
 C    2.0109612046   -0.7070397669    0.4528379369
 C    0.7058512083   -0.6099770718    1.2577873236
 C    0.6295569096   -0.3386823019    2.7272164013
 C   -0.8217490595   -0.1721753246    3.2011218932
 C   -1.1672707876   -1.5773503143    2.6087102410
 C    0.2905733623   -1.7319571761    2.1618288798
 H    0.6836934698    2.0067058959    0.3044119084
 H   -0.5599419075    1.8389502827   -0.9428195630
 H   -1.0074202060    1.7882450181    0.7677170918
 H   -0.9869679044   -0.5283018692   -0.2035386337
 H    0.9741191356   -1.4266661108   -1.3674681434
 H    1.5507789778    0.2415753900   -1.5543107999
 H    2.5710546896   -1.6432447972    0.5296630618
 H    2.6996671175    0.1206246907    0.6512663307
 H    1.5064589943   -0.0234860445    3.2828463141
 H   -0.9073815788   -0.1596003405    4.2901682676
 H   -1.3712012580    0.6867002901    2.8045393112
 H   -1.4576085538   -2.2919318002    3.3820566655
 H   -1.9194053800   -1.6079639288    1.8128941166
 H    0.8680294130   -2.6490659390    2.2119162391