19

 C    0.1317500138    1.6230728816   -0.1499046354
 C    0.1221759457    0.0931615236   -0.1352251288
 C    0.5041782285   -0.4940906454    1.2352399992
 C    0.5684823457   -1.9873219770    1.2428960063
 C   -0.1351927211   -2.8950908264    1.9751706326
 N   -1.0587562377   -2.8261415797    3.0090186726
 O    0.2720527793   -4.1491862588    1.6257521982
 C    1.2245895211   -3.9360120186    0.6717834774
 N    1.4455518770   -2.6961718849    0.4128117444
 H    1.1235869848    2.0145838840    0.1025231733
 H   -0.1384949275    2.0135793017   -1.1359105482
 H   -0.5788441776    2.0348637998    0.5763396502
 H   -0.8698887059   -0.2789085241   -0.4203355770
 H    0.8214062120   -0.2960996542   -0.8830244583
 H    1.4775687117   -0.0832792527    1.5369018809
 H   -0.2126583044   -0.1523300529    1.9942605846
 H   -1.4435492545   -1.8968487353    3.1124500841
 H   -1.8054985015   -3.5048290623    2.9155268798
 H    1.6767902706   -4.8145792382    0.2411702442