18

 N    0.4366121900    0.4525543940    1.5115803349
 C    0.0261752079   -0.0559892057    0.4325263272
 O   -0.8448213088   -1.0831943720    0.4590813594
 C   -1.1501266408   -1.7029478067   -0.7937975155
 C   -2.4574162320   -2.4453980270   -0.6181792073
 C   -2.9161353290   -3.5900163212   -1.5664075661
 C   -1.8720793307   -4.5554204486   -0.9534253708
 C   -2.5762410893   -3.7739472760    0.1812499616
 O   -3.8664067549   -4.0123471315   -0.5132283735
 H    1.0645987027    1.2285988259    1.3132139939
 H    0.2983778449    0.2616311079   -0.5845114824
 H   -1.2590389726   -0.9383969392   -1.5759773845
 H   -0.3245427057   -2.3628413816   -1.0837114478
 H   -3.2702355531   -1.7563742270   -0.3786327885
 H   -3.2935311668   -3.5295133555   -2.5878450669
 H   -2.1453958436   -5.6089905734   -1.0118559364
 H   -0.8094296319   -4.3889037980   -1.1398203600
 H   -2.5463417964   -3.9296817445    1.2587218227