25

 C   -0.1540765148    1.5973571228   -0.4607889228
 C   -0.0332406123    0.1940102910    0.1465525692
 C   -1.3542173294   -0.5493051168    0.1400003525
 C   -1.8004843382   -1.3612811456   -1.0559896224
 C   -1.4947254597   -2.0519843138    0.2562546747
 C   -0.2600562966   -2.9293860215    0.3582403341
 C   -2.7024098822   -2.5317436971    1.0627738945
 C   -3.2358179105   -3.8994656807    0.6282760929
 O   -2.4429504073   -2.5049079865    2.4665575716
 H    0.8056900216    2.1232176122   -0.4405076765
 H   -0.4909284582    1.5475029642   -1.5016138550
 H   -0.8789254268    2.2049636522    0.0920750022
 H    0.7250303136   -0.3702734697   -0.4075327013
 H    0.3361273364    0.2740150085    1.1774544117
 H   -2.1469781343    0.0046975444    0.6402405448
 H   -2.8334082008   -1.2930858517   -1.3842220704
 H   -1.0904774850   -1.4916841803   -1.8678023401
 H    0.5722411185   -2.5286761621   -0.2240786154
 H    0.0832647246   -3.0116803860    1.3966464896
 H   -0.4539569210   -3.9410576866   -0.0145678043
 H   -3.5026259034   -1.7942980611    0.9245474283
 H   -2.4972645962   -4.6908810427    0.8011745779
 H   -4.1337743777   -4.1485331073    1.2003064492
 H   -3.4859667592   -3.9048891321   -0.4371228025
 H   -1.8723830011   -3.2522407439    2.6735940475