19

 N   -0.6584515663    0.7033916596   -1.1892598825
 C   -0.4474557992   -0.1612314458   -0.1581336069
 C    0.9578124839   -0.6723973051   -0.0563265748
 O    1.8242692862   -0.3960724664   -0.8519200095
 N   -1.2563555686   -0.5784630162    0.7502248171
 C   -2.6262520930   -0.0962906923    0.6808004168
 C   -3.4808603094   -0.8558568828   -0.3725465495
 C   -4.4180300470    0.0646331875   -1.1412615999
 O   -3.6090176351    0.9362459679   -1.9371012590
 H    0.1115030610    0.7937907724   -1.8350928800
 H   -1.5922176455    0.9021921669   -1.5247259470
 H    1.1179372298   -1.3299724030    0.8184902798
 H   -3.0788798769   -0.2192869863    1.6694505396
 H   -2.6513710992    0.9791384181    0.4456896574
 H   -2.8224033994   -1.3494864961   -1.0948655618
 H   -4.0655180384   -1.6465247418    0.1074416335
 H   -5.0890886505   -0.5218227872   -1.7852588839
 H   -5.0415029653    0.6459933687   -0.4459513621
 H   -4.1504997571    1.6592027918   -2.2649459474