21

 C   -0.3989208068    1.4034212286   -0.1498590624
 C   -0.0389390862   -0.0617866908   -0.0682449598
 C    1.3717691894   -0.6003517330   -0.3030737770
 C    2.5519266272    0.3685353517   -0.2191654309
 C    2.7133515399    0.5805489637    1.3011444084
 O    1.4294458811    0.3145314092    1.8792029227
 C    0.7621597825   -0.6397146399    1.0717787200
 C    0.3735050695   -1.8686655131    1.8461429161
 O   -0.4829097902   -1.5558750111    2.9318736520
 H   -0.4123200309    1.7564491496   -1.1869384798
 H   -1.3947037808    1.5716722825    0.2727602921
 H    0.3012008359    2.0202827603    0.4174071180
 H   -0.8135991455   -0.7301802300   -0.4389624840
 H    1.4830431631   -1.5032105161   -0.8932388445
 H    3.4535003418   -0.0618091702   -0.6628257767
 H    2.3496905476    1.3118692057   -0.7359372887
 H    3.4605916670   -0.1140768828    1.7130932563
 H    2.9991665996    1.5987241917    1.5803608911
 H   -0.1726951899   -2.5637594469    1.2001549576
 H    1.2846375074   -2.3819760678    2.1968036260
 H   -0.0453273317   -0.8475158813    3.4184302534