20

 C    0.0511219374    1.5392420550    0.0020009416
 C   -0.0378806460    0.0387493282   -0.0018414904
 C   -0.0025229731   -0.6833589047   -1.1276212479
 C   -0.0461234823   -2.1656172182   -1.1554176030
 C    0.9807465109   -2.9598120102   -0.3549470681
 C   -0.4406943154   -2.8714726202    0.1249023204
 C   -0.8576932734   -2.0024401783    1.2955668161
 C   -0.1333883133   -0.6430154024    1.3470837274
 H    0.9149576943    1.8869601195    0.5848865729
 H    0.1451327103    1.9423272688   -1.0103414203
 H   -0.8353438573    1.9894598627    0.4684583100
 H    0.0794559477   -0.1755668239   -2.0861836804
 H   -0.3655742699   -2.6085225857   -2.0933393134
 H    1.3226257778   -3.9055440482   -0.7621431717
 H    1.7489277517   -2.3917055190    0.1582874006
 H   -1.0336530898   -3.7742086638    0.0067672026
 H   -1.9367260614   -1.8197788853    1.2101976132
 H   -0.7070058965   -2.5336789496    2.2428509044
 H    0.8773893216   -0.7747135289    1.7595946966
 H   -0.6490699534    0.0124762042    2.0597944794