19

 O   -0.3064247469    0.7637446632    1.5894687021
 C    0.0271083467    0.1968578719    0.3240085512
 C    1.2092766921   -0.7782339503    0.3733355764
 C    0.9416259373   -2.0372478108    1.2229232928
 C   -0.4884133120   -2.5372578140    1.1377990357
 O   -1.4623102955   -1.7571776298    1.8593124710
 C   -1.5327750180   -1.7863961202    0.4171651469
 C   -1.2196882688   -0.4764336021   -0.2830026202
 O   -2.3293470488    0.3987520719   -0.2335197821
 H   -0.6505842284    0.0343194121    2.1287308381
 H    0.2917791110    1.0499808019   -0.3093994250
 H    1.4282756140   -1.0789727714   -0.6593181044
 H    2.0957158574   -0.2561016234    0.7454221096
 H    1.6190341599   -2.8401526457    0.9139669775
 H    1.1621656288   -1.8443237227    2.2795503425
 H   -0.6298669646   -3.6096498042    1.2694248337
 H   -2.4051349170   -2.3169703569    0.0372286863
 H   -1.0320334390   -0.6978301998   -1.3422386204
 H   -2.2153617681    0.9011582703    0.5862180783