20

 C   -0.0155081275    1.5061340790   -0.1255057338
 C   -0.0373319215    0.0005788449    0.1739050895
 C   -1.4044466482   -0.5891278148    0.0432868693
 O   -2.4028128821   -0.1600883945    1.0258023245
 C   -2.8391644251   -1.4792690123    1.1592761054
 N   -3.6564149408   -1.9782501517    1.9685821097
 C   -1.9512355126   -2.0071452978    0.0862434135
 C   -2.1059102708   -1.1171489509   -1.1627812387
 C   -3.4285212562   -0.6159867812   -1.6959125374
 H    0.9916180269    1.9121469819    0.0046050183
 H   -0.3339047488    1.7089749730   -1.1528941151
 H   -0.6889938900    2.0431309185    0.5483817391
 H    0.6316499338   -0.5325691868   -0.5116500140
 H    0.3323306493   -0.1843785087    1.1894416246
 H   -4.0361013372   -1.2637686655    2.5923283848
 H   -1.4620178360   -2.9704487270    0.0737444991
 H   -1.4005175104   -1.4343210802   -1.9304423099
 H   -4.0623992308   -0.2399692402   -0.8905013044
 H   -3.2701248251    0.2000752076   -2.4089431005
 H   -3.9675123971   -1.4157236332   -2.2130943239