19

 O   -0.1819683187    1.4276093901    0.0590686031
 C   -0.0972699575    0.0255805727   -0.0264487407
 C   -1.4867077176   -0.6052177384   -0.2180659315
 C   -1.1334608560   -2.0436400179   -0.6885029458
 C   -0.6121994242   -1.2903219069   -1.9456203752
 C   -1.7799606345   -0.2919536585   -1.7120594799
 C    0.6038685778   -0.5357183836   -1.3447251760
 C    1.1743941833    0.5059882452   -2.1784533641
 C    1.6433889417    1.4080226403   -2.8240636606
 H    0.4909830133    1.8110424320   -0.5177790662
 H    0.4103169868   -0.3712105633    0.8637038672
 H   -2.2100160825   -0.4085767192    0.5727113038
 H   -0.4166161471   -2.6256493294   -0.0993992137
 H   -2.0203140904   -2.6448112726   -0.8987749861
 H   -0.4471092130   -1.7869360862   -2.9015971707
 H   -2.7392969009   -0.6948167745   -2.0433269347
 H   -1.6585547989    0.7393348003   -2.0478608534
 H    1.3953491522   -1.2437112259   -1.0755397354
 H    2.0643311359    2.1783464856   -3.4221823201