16

 O    0.0041714479   -0.0522952564    0.0400264712
 C    0.0378931647    1.1540833050    0.0108767824
 N   -1.1233528816    1.9309667821   -0.0085255733
 C   -1.1145162372    3.3278210522   -0.0422293208
 O   -2.1320617750    3.9771829879   -0.0585483075
 C    0.2956669691    3.8890687327   -0.0550111364
 C    1.1373428891    3.1026273091   -1.1066704913
 C    1.2941586551    2.0056591424   -0.0089651712
 C    1.1361381039    3.1543370516    1.0343295616
 H   -2.0175966349    1.4571491732    0.0024038892
 H    0.2569939059    4.9763136910   -0.0812934494
 H    0.6652860151    2.8292344808   -2.0527704104
 H    2.0888551619    3.6023497955   -1.2996833774
 H    2.1724455362    1.3632855878    0.0070445548
 H    2.0874436021    3.6628257915    1.2040622306
 H    0.6630111979    2.9269225135    1.9919933580