13

 N    0.0892933895    1.4079176261    0.1576454172
 C   -0.0170978869    0.0283292237    0.0399695777
 C   -1.1646882502   -0.6922906611    0.0085457284
 C   -1.1449367386   -2.1518429182   -0.0241050237
 O   -2.1503145856   -2.8333488245   -0.0435240768
 N    0.1440103090   -2.7690717785   -0.0486726907
 C    1.1832342836   -2.0262209493   -0.0216647499
 N    1.1836125781   -0.6517953644    0.0127031987
 H    0.7757168686    1.8334928789   -0.4533152303
 H   -0.8012954636    1.8789619584    0.0778425672
 H   -2.1275942986   -0.1968976090   -0.0008311065
 H    2.1788638786   -2.4693362060   -0.0292225542
 H    2.0451992162   -0.1531405761    0.1704204029