23

 C    0.1579306407    1.6188106590   -0.1562690608
 C    0.0713683917    0.0951408526   -0.0765652897
 C    0.7265231076   -0.6359642804   -1.2829956292
 C    1.1888115708   -1.9684295424   -0.7237804707
 O    2.3954171154   -1.8569039819    0.0457874473
 C    1.1405513635   -1.9485509911    0.7482438726
 C    0.9669274695   -3.1620159988    1.6209980573
 C    0.6487406073   -0.5714139230    1.2209343616
 C    1.7593052526    0.2059868773    1.9400119852
 H    1.1967481055    1.9640455974   -0.1623136683
 H   -0.3154421986    1.9817444677   -1.0750293867
 H   -0.3508087643    2.0979541921    0.6871649074
 H   -0.9922647602   -0.1753943571   -0.0982612457
 H    0.0173089575   -0.7605579917   -2.1075760182
 H    1.5894072643   -0.0849613960   -1.6749274052
 H    1.0977573074   -2.8851492492   -1.3036169458
 H    1.3754079859   -4.0494904788    1.1308990793
 H    1.4880974576   -3.0329077750    2.5764028833
 H   -0.0920802847   -3.3363383623    1.8399580066
 H   -0.1729101326   -0.7195563548    1.9321986868
 H    2.6213088601    0.3545247288    1.2856753581
 H    1.4058517085    1.1819744013    2.2841145938
 H    2.1051304145   -0.3478451841    2.8195283410