19

 C    0.0246935320    1.6617962491    0.0528679469
 C   -0.0007521069    0.1396068429   -0.0027683027
 C    0.6875525197   -0.5198632755    1.1894804681
 C    0.8635470612   -2.0277568580    1.0215883753
 C    1.1965973824   -2.8089993753    2.2753146857
 O    0.7485042421   -2.5595558073   -0.0595726628
 O   -1.3778498168   -0.2862419462    0.0011055481
 C   -1.8256775903   -1.0428890095   -1.0231373734
 O   -2.9535180771   -1.4313653052   -1.0810880070
 H    1.0555044793    2.0290564637    0.0419477361
 H   -0.5007012164    2.0833124036   -0.8081316413
 H   -0.4640532913    2.0250876344    0.9618650346
 H    0.4746589874   -0.2172909962   -0.9235675786
 H    1.6882603367   -0.0883022399    1.3304347412
 H    0.1327031391   -0.3071586212    2.1107689333
 H    2.0074980905   -2.3303960690    2.8349159330
 H    0.3205200840   -2.8230460552    2.9347875768
 H    1.4685769242   -3.8330146855    2.0175631703
 H   -1.0474152097   -1.2504824196   -1.7783014336