22

 C   -0.0877797345    1.5968711955    0.0158583512
 C    0.0413815687    0.0757733876   -0.0418171866
 C    0.9250291843   -0.4557234873   -1.1833333274
 C    1.2483920434   -1.8979092050   -0.7695958925
 C    2.3675696765   -2.5790794705   -1.5512619126
 C    1.5503974000   -1.7383218846    0.7512726920
 C    0.6581240441   -0.5500407962    1.2393294270
 C    1.3568674197   -2.9724447360    1.5045980851
 N    1.1928118320   -3.9560708026    2.0903618549
 H    0.8933042619    2.0688570668    0.1453651690
 H   -0.5304136982    1.9930285054   -0.9040510254
 H   -0.7215125193    1.9120938333    0.8514763866
 H   -0.9612205389   -0.3502490072   -0.1764863013
 H    0.4381167226   -0.3982481392   -2.1616398593
 H    1.8544659239    0.1287425614   -1.2474025848
 H    0.3325165995   -2.4950068578   -0.8657550625
 H    3.2982811547   -2.0031077928   -1.4870489347
 H    2.5655604890   -3.5845413049   -1.1664055259
 H    2.1057768043   -2.6726582006   -2.6098356066
 H    2.6061239866   -1.4601158825    0.8559985569
 H    1.2756550091    0.1787627856    1.7728549217
 H   -0.1114108696   -0.8858718283    1.9375496651