20

 C    0.0403629987    1.2887806662   -0.3876181644
 N    0.0199563183   -0.1206588541   -0.0717078172
 C   -1.2074146727   -0.8434156771    0.1752037916
 C   -2.0215217465   -1.2257039738   -1.0935993769
 C   -1.2928938555   -2.5987867837   -1.1215603395
 C   -0.7304206924   -2.3258351017    0.3071935795
 C    0.7846739910   -2.2784438974    0.4760247980
 C    1.1756701533   -0.8513212510    0.0757667941
 O    2.3007763389   -0.4219560059   -0.0752655966
 H    1.0835168439    1.5806954351   -0.5213836531
 H   -0.5150405385    1.4997603105   -1.3091673817
 H   -0.4019023920    1.8826742140    0.4227431561
 H   -1.7739447603   -0.3897760844    0.9975497823
 H   -3.0887911251   -1.3180176009   -0.8754298569
 H   -1.8987101044   -0.5761999938   -1.9635526120
 H   -1.9271528610   -3.4811007709   -1.2281393016
 H   -0.5034536610   -2.6519751695   -1.8761601977
 H   -1.2441202492   -2.8926601864    1.0840304345
 H    1.1072759536   -2.4439359006    1.5098012865
 H    1.3213770109   -2.9980120843   -0.1481646450