17

 N   -0.0772463963   -1.0819587653   -0.5139134792
 C   -0.0568465674    0.0339302986   -0.2153009172
 C   -0.0022052383    1.4436575934    0.1801396560
 C    1.4106641506    1.9931950404    0.1527873651
 C    2.4861319828    1.3724281401    1.0360805483
 O    3.5598158515    2.3064295094    1.0260762859
 C    3.0030918262    3.6143254890    0.9158945045
 C    1.7530723879    3.4375558156    0.0722870780
 N    1.8779453767    2.5722877369   -1.1077888356
 H   -0.6270471262    2.0257896423   -0.5033699617
 H   -0.4312064324    1.5369076922    1.1850849328
 H    2.0905672830    1.2175893951    2.0537652777
 H    2.8708928917    0.4172481751    0.6658218963
 H    2.7360994912    4.0282073241    1.9017215544
 H    3.7643790101    4.2578275310    0.4634842259
 H    1.0166410929    4.2331506633    0.0183427690
 H    2.8552487159    2.3320715287   -1.2693771502