17

 C    0.0498892275    1.4276683794   -0.5401307564
 C    0.0240549509    0.0075192807   -0.2172598183
 C    0.0219999816   -1.1617554317    0.0716156966
 C   -0.0070699267   -2.5906461641    0.3840707123
 C   -1.3787377689   -3.1971112267    0.2725241008
 C   -1.9881598405   -4.2464798209    0.9116955371
 N   -3.2561268611   -4.4549381698    0.4167146484
 C   -3.4170856706   -3.5401319106   -0.5107926224
 N   -2.3083916229   -2.7573683410   -0.6434924061
 H    0.7993884752    1.9540159821    0.0608605256
 H    0.2950341456    1.5949402361   -1.5947018783
 H   -0.9195253991    1.8990328196   -0.3447662049
 H    0.6952239522   -3.1135377864   -0.2822820176
 H    0.3673442005   -2.7622707121    1.4002198425
 H   -1.5833069493   -4.8632701909    1.7003568055
 H   -4.3025079703   -3.3917798473   -1.1107357437
 H   -2.1899190441   -1.9515168962   -1.2360663309