20

 C   -0.0621901173    1.4525317517   -0.1591103655
 C    1.4830916507    1.5592811175    0.0724024154
 C    2.0507478318    2.5303655558    1.1336895515
 C    2.3477142524    1.8221418138    2.4938314280
 C    1.1847243883    0.9231188923    2.8511665381
 C    0.8189918282    0.0449692366    1.9224172199
 C   -0.4971282969   -0.4862654006    1.3912303609
 N   -0.0543657385   -0.0502232814    0.0089795134
 C    1.3744418772    0.0848465720    0.5154835141
 H   -0.6638900363    1.9760141741    0.5934471391
 H   -0.4117410032    1.7439890708   -1.1527628682
 H    2.0093888436    1.6717661542   -0.8784854387
 H    2.9689607165    3.0036833496    0.7687833243
 H    1.3334848918    3.3410796230    1.3067533996
 H    3.2726968211    1.2410554028    2.3904712302
 H    2.5362698658    2.5683024781    3.2704219939
 H    0.5912527045    1.1180658807    3.7400188217
 H   -0.6155885834   -1.5751411133    1.3980868131
 H   -1.4183099146   -0.0230243230    1.7617039547
 H    2.1080516982   -0.6579883644    0.1910701345