13

 N    0.2040800869    1.4051001009    0.2875933272
 C    0.1250284717    0.1282459303    0.1946232199
 C    1.2616061881   -0.8007358612    0.3304395516
 N    1.2494963291   -2.0799796075    0.2487187288
 O    0.0056918720   -2.6849204849   -0.0008828270
 C   -1.0843997042   -1.9259251145   -0.1393607503
 C   -1.1216230971   -0.5771011956   -0.0617118988
 C   -2.4201204365    0.1165770103   -0.2397620383
 O   -3.4609088548   -0.4649019195   -0.4533526042
 H    1.1644616640    1.7026223334    0.4697565115
 H    2.2525859160   -0.3925981162    0.5247055282
 H   -1.9698946022   -2.5237790116   -0.3274661487
 H   -2.3647081629    1.2169094361   -0.1617953299