14

 N    0.0568192836    1.3655957579    0.1516320347
 C   -0.0394054033   -0.0203558182    0.0567816295
 C   -1.1805148739   -0.8022339368    0.0354976309
 N   -0.6865050368   -2.1088955888    0.0108791203
 C   -0.9975713936   -3.4622274618   -0.0284454466
 C    0.1863845737   -4.1127539894   -0.0414480271
 O    1.2388735236   -3.2151480097   -0.0144203713
 C    0.6687423385   -1.9937276053    0.0170119193
 N    1.1252115891   -0.7719608845    0.0415388354
 H    0.9625332109    1.6896370645   -0.1606506586
 H   -0.6866109182    1.8623008229   -0.3192118604
 H   -2.2295485272   -0.5702352424    0.0539154079
 H   -2.0025303830   -3.8458700609   -0.0405507331
 H    0.4494095065   -5.1544327172   -0.0671018107