14

 O   -0.0006557436   -0.0161864955   -0.1937956748
 C   -0.0128500461    1.1560510553    0.0427685983
 C   -1.0569308105    2.2953344245    0.0512515738
 C   -0.8023853724    2.9968851604    1.3933133543
 C    0.7665295923    3.0178382274    1.3702803431
 C    1.0002118488    2.3228295585    0.0210385255
 N   -0.0505516838    3.0155804314   -0.8318145469
 H   -2.0760424875    2.1808245879   -0.3126324600
 H   -1.2275879378    4.0023749634    1.3980241407
 H   -1.2132309064    2.4364369890    2.2364366474
 H    1.1646905741    4.0343230456    1.3629194808
 H    1.2167614196    2.4688753011    2.2007535710
 H    2.0108957176    2.2354522389   -0.3726567809
 H   -0.0583227843    2.5813341922   -1.7557704422