21

 C   -0.2727015088    1.4333009633    0.2530012984
 C    0.0754035789   -0.0348130955   -0.0185097732
 C    0.7471347869   -0.2129721098   -1.3899947384
 O   -0.0685676348    0.2368360645   -2.4634119994
 C    0.9699711738   -0.5856313382    1.0878144611
 O    0.3935762025   -0.4300487286    2.4113916116
 C    0.4040155451   -1.8498300263    2.6500431170
 C    1.0564425527   -2.1223090377    1.2776031862
 O    0.2942562125   -2.8469006896    0.3380293090
 H    0.6347856095    2.0482426458    0.2950981506
 H   -0.9019970463    1.8239020091   -0.5499085189
 H   -0.7958239842    1.5379382578    1.2060877039
 H   -0.8490351203   -0.6275933056   -0.0218780167
 H    1.6572444607    0.3975882984   -1.4398607310
 H    1.0380847732   -1.2627761715   -1.5290439057
 H   -0.8372832301   -0.3413794188   -2.5015103289
 H    1.9544534997   -0.0963925503    1.0478734660
 H    0.9961495772   -2.1156046329    3.5346710032
 H   -0.6072675612   -2.2655227823    2.7456278835
 H    2.0823109540   -2.5050272895    1.3339443319
 H    0.4124508190   -3.7863518823    0.5077485896