16

 N   -0.0308675420   -1.1630294415   -0.1282818145
 C   -0.0156091973   -0.0093567235   -0.1951817183
 C    0.0204873408    1.4485886067   -0.2714149279
 C    1.3154047408    2.0265672964    0.3316784725
 C    1.3624043986    3.5255240248    0.2582444142
 N    0.3615035902    4.2190734543   -0.2811987008
 N    0.7423085370    5.5066871024   -0.1760069744
 C    1.9526593387    5.6538501260    0.4127663982
 C    2.3933337426    4.3843199587    0.7124470334
 H   -0.0776288984    1.7568474541   -1.3166858274
 H   -0.8513550537    1.8578238075    0.2478685702
 H    1.4054762452    1.7012806116    1.3745605059
 H    2.1796062995    1.6003139803   -0.1908040247
 H    0.1312573854    6.2253681127   -0.5243192086
 H    2.3939980586    6.6255885300    0.5682470573
 H    3.3216222841    4.1132898595    1.1887455852