25

 C   -0.4703739474    1.4401909184    0.4336304495
 C   -0.0823874719   -0.0234570136    0.1910632772
 C    0.9182746124   -0.5707244469    1.2152580794
 C    2.2589969884    0.1559298042    1.1748354008
 O    0.3489465921   -0.5101062178    2.5576875039
 C    0.4040893749   -1.9453600326    2.7235850740
 C   -0.9612265777   -2.5423289529    3.0166008095
 C    1.0449864142   -2.1260079175    1.3196901905
 C    0.3841344313   -3.0366170835    0.2920161119
 H    0.3655208255    2.1239153112    0.2587572448
 H   -1.2837579662    1.7389045759   -0.2344695224
 H   -0.8089481095    1.5733775597    1.4650172430
 H   -0.9898822715   -0.6341766834    0.2291763867
 H    0.3350964203   -0.1449791893   -0.8169439400
 H    2.1400052469    1.2203325868    1.3949569127
 H    2.9412675633   -0.2644289490    1.9191911762
 H    2.7240881872    0.0593793151    0.1869563372
 H    1.0899206331   -2.2067095319    3.5419452094
 H   -1.6847891686   -2.3071372335    2.2314564550
 H   -0.8967519106   -3.6313770451    3.1182687141
 H   -1.3437496054   -2.1362805960    3.9584674566
 H    2.0967139482   -2.4149352363    1.4062908627
 H   -0.6819893342   -2.8362727825    0.1622439961
 H    0.8631810112   -2.9290468657   -0.6870662652
 H    0.4871723640   -4.0855365439    0.5906295664