15

 O   -0.1850604457    0.2941267139    0.6033749523
 C    0.0323143674    1.3910159101    0.1397031923
 N    1.2578388831    1.8268680923   -0.2762661124
 C    2.4379819179    0.9835689025   -0.1876142570
 C    2.9813066709    0.6991454183   -1.5264448156
 N    3.4160852514    0.4781630808   -2.5733434978
 C    3.4725043140    1.6221654117    0.7312165448
 C    4.9093296818    1.6618534191    0.4439398093
 O    4.0779300989    2.8122811528    0.2394425154
 H   -0.7457277998    2.1649926745    0.0072824905
 H    1.3695818825    2.7631216774   -0.6344862459
 H    2.0908106531    0.0418869535    0.2539135916
 H    3.1341777877    1.6738076126    1.7661262961
 H    5.6089867994    1.7366528247    1.2738692587
 H    5.2932734675    1.2024010658   -0.4634544724