16

 O    0.0803538901   -0.1349625618    0.4694390300
 C   -0.0074601968    1.0389383975    0.2212265266
 C    1.2297396534    1.9096884720   -0.0761447778
 C    2.4701796006    1.1544419418   -0.1903863604
 N    3.4629196369    0.5738177876   -0.2888997553
 C   -1.3243350741    1.7812033559    0.1440503409
 C   -1.9816916643    1.7977240273   -1.2724288539
 O   -3.1250095445    1.0791027841   -0.7961667402
 C   -2.5861953712    0.9928581996    0.5416006916
 H    1.0573433235    2.4833137510   -0.9953902225
 H    1.3232989390    2.6531210389    0.7262162734
 H   -1.2309964865    2.7757397976    0.5865771527
 H   -2.2386458043    2.7939637226   -1.6515629059
 H   -1.4365700969    1.2457182971   -2.0492805303
 H   -2.3857945752   -0.0400881110    0.8413276357
 H   -3.2345071896    1.4814268498    1.2768376754