20

 C   -0.0484691951    1.5428973669   -0.0130391356
 C   -0.0168668253    0.0218362834    0.0038626357
 C    1.3251671223   -0.6832042893   -0.1849524188
 C    0.6686842706   -0.7046141605    1.1623385268
 N    1.2524523043    0.0849663463    2.2073343874
 C    0.6257904714   -0.0110609494    3.5232647039
 C    1.9436291763   -0.6533164379    3.2632552544
 C   -1.1779546778   -0.6227635988   -0.5508799220
 C   -2.1575859939   -1.1477594965   -1.0126399699
 H    0.8262075856    1.9455976732    0.5001041829
 H   -0.0634185965    1.9130062887   -1.0427434327
 H   -0.9446872946    1.9161647454    0.4920279393
 H    1.3463656754   -1.5959227413   -0.7681162370
 H    2.1903212218   -0.0386375223   -0.2943497692
 H    0.1980692489   -1.6433393975    1.4651552234
 H    0.5645222369    0.9165299580    4.0848146125
 H   -0.2372427101   -0.6660747637    3.6276710596
 H    1.9641171068   -1.7392375756    3.1929011023
 H    2.8611612262   -0.2021013914    3.6296270534
 H   -3.0201067032   -1.6118806080   -1.4218543564