17

 C    0.0219060260    1.4457742729    0.1920680122
 O    1.4265864123    1.5674272989   -0.2007311397
 C    1.3543966300    0.2693550380   -0.7506344065
 C    2.3986692194   -0.8130681908   -0.9958713140
 C    1.3829729789   -1.4050089552   -2.0335395703
 O    0.2122801240   -2.0175882690   -1.4342843577
 C   -0.4770112385   -0.7380857276   -1.3263071528
 C    0.0379435018   -0.0916314608   -0.0290811490
 C    0.6535968866   -0.0446930810   -2.1360574093
 H   -0.1312454952    1.7787852078    1.2214241642
 H   -0.6296654588    2.0171634736   -0.4803517277
 H    3.2725093334   -0.4340028599   -1.5385252972
 H    2.7178325057   -1.4318844925   -0.1536553051
 H    1.7740353256   -1.9970174459   -2.8614753146
 H   -1.5368127982   -0.8170780971   -1.5757147744
 H    0.0174635302   -0.6943832607    0.8796721214
 H    0.5865207469    0.6051269794   -3.0029948695