22

 C    0.1617029573    1.5344306467    0.0185697618
 C    0.0188067909    0.0096895873    0.0101840543
 C   -1.4373995234   -0.4839944830    0.0468383702
 C   -1.5694276170   -2.0263653581   -0.0976863562
 C   -2.6955594012   -2.4309654028    0.8592854475
 C   -3.8351029936   -3.2975557767    0.4427650220
 N   -2.8251650696   -3.7986460439    1.3922981866
 C   -2.8516934739   -1.2738404745    1.7807268862
 C   -2.1763675525   -0.2114671051    1.3442265899
 H    1.2135400120    1.8316927119   -0.0358498374
 H   -0.3554667968    1.9846567549   -0.8362700057
 H   -0.2572517010    1.9764238733    0.9283751518
 H    0.4988034406   -0.3915344214   -0.8920412907
 H    0.5596685548   -0.4202940569    0.8633155162
 H   -1.9740200412    0.0111013689   -0.7778452874
 H   -1.7456883041   -2.3434688006   -1.1293709805
 H   -0.6342750029   -2.4956030533    0.2355080246
 H   -4.8247295637   -3.1460018320    0.8666297816
 H   -3.8342397436   -3.6768876277   -0.5766056785
 H   -2.1742183634   -4.4143241194    0.9091435923
 H   -3.4698964235   -1.3278946964    2.6691799260
 H   -2.1661011544    0.7596514888    1.8263125854