13

 N    0.2053773974    1.3913738862    0.3209152456
 C    0.1299315734    0.1224483598    0.2316761499
 N    1.2568663760   -0.7257042399    0.4136944547
 C    1.1146952705   -1.9782574998    0.3117138446
 O   -0.0388298481   -2.6620165846    0.0352138090
 C   -1.1447028399   -1.9026344867   -0.1476144950
 C   -1.1339135610   -0.5606757901   -0.0674006303
 C   -2.4035207945    0.1826122539   -0.2847588055
 O   -3.4562047649   -0.3616332143   -0.5324481833
 H    1.1676908919    1.6601422973    0.5340467179
 H    1.9378210552   -2.6742019000    0.4402118523
 H   -2.0310077332   -2.4854998841   -0.3633914257
 H   -2.3079671226    1.2793263123   -0.2014258341