20

 C   -0.0312863812    1.5363124959    0.0186170080
 C    0.0048387449    0.0013151553   -0.0307022930
 C   -1.4224393733   -0.5664569902   -0.0229708237
 C    0.8528031598   -0.5352349474   -1.2093113426
 C    1.9859656074   -1.2975808046   -0.5610904123
 N    2.9400992132   -1.8657079773   -1.3415852652
 C    1.9152150506   -1.2774044101    0.7944077054
 C    0.7556761725   -0.5199330982    1.2286391406
 O    0.3802071520   -0.2978839226    2.3639380135
 H    0.9787535872    1.9589210163   -0.0171917417
 H   -0.6021221330    1.9456826716   -0.8223053418
 H   -0.4984990134    1.8639829861    0.9513062478
 H   -2.0074239446   -0.1777600709   -0.8640013796
 H   -1.4156347089   -1.6600209060   -0.0890509610
 H   -1.9235614003   -0.2908242776    0.9089137329
 H    0.2776160661   -1.1966846570   -1.8702892716
 H    1.2495046496    0.2689367472   -1.8412608014
 H    2.7634805356   -1.9882739391   -2.3242556918
 H    3.6052176208   -2.5001481629   -0.9313878656
 H    2.6071016350   -1.7489492085    1.4804144633