12

 O    0.0071350101   -0.0408459863   -0.0030368771
 C    0.0089110720    1.1602537701    0.0074862013
 C    1.2467861131    1.9960600212    0.0014175817
 C    1.2105376447    3.3504331188    0.0136109481
 C    2.4776074372    4.0127448250    0.0055663139
 N    3.6194880893    3.3990683664   -0.0123788423
 C    3.6511407653    2.0115789890   -0.0248852772
 O    4.6274760456    1.3327039750   -0.0416234993
 O    2.3940789170    1.3254008915   -0.0170660672
 H   -0.9218715664    1.7651102153    0.0229664866
 H    0.2740808844    3.8910206490    0.0285076685
 H    2.5117598077    5.1021793649    0.0145920130