18

 C    0.0258615057    1.5007445084    0.0046015919
 C   -0.0031706205    0.0067562831   -0.0008194343
 C   -1.0836048486   -0.7789637063    0.1067490963
 C   -0.7418346710   -2.2168860743    0.0576416924
 C   -1.4949104473   -3.3081403309    0.7425121572
 N   -1.5146428068   -3.2249127315   -0.7166104099
 C    0.7691219698   -2.2662526276   -0.0697951159
 O    1.4460946328   -3.2594113147   -0.0947735372
 C    1.2622674563   -0.8127187164   -0.1275204395
 H    0.6369421045    1.8827299901    0.8323287510
 H    0.4759355852    1.8901371146   -0.9176036968
 H   -0.9785856438    1.9222985908    0.0992833641
 H   -2.1025761710   -0.4205091945    0.2141845317
 H   -0.9267688083   -4.1464506378    1.1363579211
 H   -2.3807716373   -3.0299301761    1.3084259617
 H   -2.3824524796   -2.7920777727   -1.0294007390
 H    1.8051684215   -0.6283497737   -1.0641002480
 H    1.9810045482   -0.6276814106    0.6813084031