15

 C    0.4034557264    1.4042277024    0.3195928994
 O    1.2212201116    0.2893936182   -0.0553152043
 C   -0.1876390555    0.0890935435    0.0490561230
 C   -0.6434460793   -0.8132367809    1.1681735581
 C    0.0479613089   -2.1979679663    1.2462170125
 C    0.6328288465   -1.6665184437    2.5686860977
 O   -0.1025217457   -0.4273305096    2.4477119786
 H    0.5100360178    1.7189556116    1.3540158011
 H    0.3226205487    2.1950671103   -0.4244202916
 H   -0.6950482290   -0.0743033484   -0.9043538144
 H   -1.7420828658   -0.8357464124    1.1877678805
 H   -0.6299526024   -3.0464167556    1.3445232314
 H    0.7739657024   -2.3918562776    0.4563155137
 H    0.3522350644   -2.2149260625    3.4752141151
 H    1.7146337311   -1.4946048591    2.5680295992