20

 O   -0.0152388218    1.4777066951    0.1147677170
 C    0.1360581818    0.0866085489   -0.1215190833
 C   -1.2203965701   -0.5908178960   -0.0395889828
 C   -1.5002165691   -2.1091895323   -0.0060835108
 C   -0.6110543277   -2.5665862535    1.1645795515
 C   -1.3132273335   -1.6443481573    2.1896159517
 C   -2.7259086364   -2.2634751777    2.2431669664
 C   -2.7828251973   -1.6856163747    0.8313336775
 N   -1.9124331789   -0.5136119643    1.2973853602
 H   -0.6033847741    1.5580335307    0.8761378937
 H    0.5610940139   -0.0234493331   -1.1259624993
 H    0.8519791317   -0.3527964821    0.5884109493
 H   -1.8870148349   -0.0863888682   -0.7499158425
 H   -1.5440649972   -2.7245657572   -0.9056236795
 H   -0.7306685108   -3.6229070997    1.4192544616
 H    0.4511902954   -2.3717735988    1.0112011058
 H   -0.7750206558   -1.3258461916    3.0805848513
 H   -2.8134969057   -3.3403813212    2.4028695480
 H   -3.3997515733   -1.7147942699    2.9040786098
 H   -3.7022428262   -1.4576814671    0.2907475642