17

 O    0.0207835102    1.4168543632    0.0430099435
 C    0.0606155046    0.0033407220    0.1095497530
 C   -1.3462763833   -0.5561942124    0.0497403797
 C   -2.3182654628   -0.3915478640    1.2649994293
 C   -2.7606516864   -1.8803066636    1.1125759128
 C   -1.8434128918   -2.0216624677   -0.1155582004
 O   -2.5312728029   -1.6431499629   -1.3598736708
 C   -2.0700099266   -0.3550485365   -1.2721686733
 O   -2.2137122238    0.5365048950   -2.0529241606
 H   -0.4427367836    1.6513913126   -0.7715465361
 H    0.6736698641   -0.4282522126   -0.6980391809
 H    0.5406781799   -0.2524522835    1.0602222286
 H   -1.7749481438   -0.1915720001    2.1907170879
 H   -3.0929656882    0.3678395287    1.1497480773
 H   -2.4484739149   -2.5100065464    1.9488203312
 H   -3.8155061613   -2.0660901301    0.9039100410
 H   -1.2215624894   -2.9014764616   -0.2725762025