18

 O    0.0063863610   -0.0207857028    0.0001954571
 C    0.0048940699    1.1882608384   -0.0424443255
 N   -1.1084663135    2.0041832593   -0.0827680583
 C   -0.7296449547    3.4048331300    0.1773863252
 C    0.6265845049    3.4404094078   -0.5582630208
 C    1.2229321045    2.1336969047   -0.0093929089
 C    1.6323550093    2.3427910517    1.4700057761
 C    0.6056685466    3.1458631183    2.2381222221
 C   -0.4842951700    3.6528669153    1.6603566690
 H   -1.9907820808    1.6243246478    0.2289143502
 H   -1.4743240255    4.0864075156   -0.2378230820
 H    0.4795637868    3.3890754786   -1.6404828316
 H    1.2105986251    4.3298708056   -0.3130326336
 H    2.0495034258    1.7182406190   -0.5867351764
 H    1.7915703300    1.3720491242    1.9554035947
 H    2.6010735594    2.8608192811    1.5087553139
 H    0.7936414769    3.2987221769    3.2979436821
 H   -1.2132948057    4.2227279884    2.2285181368