18

 C    0.1068886108    1.5703290244   -0.0920820734
 C   -0.0848085677    0.0679228838    0.1150161419
 N    0.6273709200   -0.4280090492    1.2793831199
 N    1.9923243996   -0.5428897647    1.2911829533
 C    2.2263614990   -0.9876004971    2.5089346534
 N    1.1252378658   -1.1704197092    3.2966421270
 C    0.1532954361   -0.8042153810    2.4853500659
 O   -1.1564783727   -0.7754421471    2.7301952731
 C   -1.5381018522   -1.2200967169    4.0370871017
 H    1.1684524040    1.8051289864   -0.2009427458
 H   -0.4171550556    1.8942777452   -0.9961948759
 H   -0.2882812616    2.1352529048    0.7572485163
 H   -1.1388110235   -0.1793095294    0.2623555643
 H    0.2763151715   -0.4894570671   -0.7542908912
 H    3.2289307374   -1.1953977314    2.8524995447
 H   -1.0754837055   -0.5953287573    4.8056749874
 H   -2.6239307166   -1.1301969539    4.0727570005
 H   -1.2337229888   -2.2583456801    4.1944130470