15

 O    0.2218296489    1.2992575467   -0.2802752337
 C    0.0070401953   -0.0785823784   -0.2630414368
 C   -1.4212169758   -0.4203735295    0.1169107399
 O   -2.2169787743    0.4564623169    0.3737055938
 C   -1.8009843871   -1.8868638914    0.1103245694
 C   -3.2717877124   -2.2499091228    0.3381796973
 O   -3.3652537667   -2.7704167397   -1.0356716118
 C   -2.0672749128   -2.4625854198   -1.3036869445
 O   -1.4514701130   -2.6120065032   -2.3068372708
 H   -0.6248847810    1.7009248260   -0.0325949633
 H    0.2082867371   -0.5381593273   -1.2457977891
 H    0.6802090536   -0.5805447651    0.4531878292
 H   -1.0648584368   -2.4838722028    0.6542453053
 H   -3.4717595869   -3.0413040401    1.0606481116
 H   -3.9354022581   -1.3968625794    0.4752821334