18

 O   -0.0199473878    1.4169442019   -0.0200021017
 C    0.0067818027    0.0068255914   -0.0940473421
 C    0.8084251219   -0.6730193770    1.0526912713
 C    0.0977399305   -1.9965388384    1.3122938311
 C    0.7477937564   -3.3110676746    1.2422035833
 O    0.3905181346   -2.7279369950    2.4999420588
 C   -1.3297192883   -1.8033592331    0.8880221487
 N   -1.9008984086   -0.5211635265    1.3733582272
 C   -1.3794732012   -0.6239821907   -0.0068850630
 H   -0.5298225005    1.6308843107    0.7717117434
 H    0.4539096130   -0.2296565801   -1.0654549603
 H    1.8665443214   -0.7935422971    0.8134542661
 H    0.7352481071   -0.0525944840    1.9503931817
 H    0.1739766362   -4.1927752529    0.9562228556
 H    1.8164171955   -3.3698268145    1.0380715333
 H   -1.9842488939   -2.6601619474    0.7694800494
 H   -2.9152664147   -0.5909888047    1.3574317278
 H   -2.0654449644   -0.5487544279   -0.8437739705