16

 N   -0.1770038690    1.2134265850   -0.6148002947
 C   -0.1001046111    0.0500571220   -0.0926026123
 N   -1.1946683470   -0.6685615144    0.3173860046
 C   -2.4985090422   -0.0778538411    0.3509440393
 C   -3.3551213099   -0.1448584051   -0.8848960444
 C   -3.6841620525   -1.0004897855    0.3146735094
 C    1.2121566800   -0.6801937105    0.0998304520
 O    2.2714655185   -0.2069898283   -0.2153910440
 H    0.7685002031    1.5077059740   -0.8689765786
 H   -1.0230878181   -1.4263286341    0.9609897621
 H   -2.5716313961    0.8306127659    0.9447435364
 H   -3.9840578670    0.7089129883   -1.1071245374
 H   -2.9292892547   -0.6369500929   -1.7507082337
 H   -3.4878698366   -2.0648616953    0.2379322197
 H   -4.5444034254   -0.7452423754    0.9225734348
 H    1.1437253479   -1.6954146527    0.5545280769