18

 C   -0.2731919688    1.4300900706   -0.0320710673
 N   -0.0690569540   -0.0189006377   -0.0106572169
 C    0.1359026871   -0.6589428024    1.1957507460
 O    0.0674760353   -0.1217065167    2.2769477059
 C    0.0257348580   -0.6772481407   -1.2328866121
 N    0.1252805591   -0.0508073723   -2.3421028942
 C    0.2214926346   -1.0729093116   -3.3898989992
 C   -0.0949001716   -2.4279983983   -2.6963373559
 N    0.0504523474   -2.0775979319   -1.2702470987
 H    0.5764612198    1.9236214850   -0.5087925157
 H   -1.1725610550    1.6690094167   -0.6025950249
 H   -0.3744485302    1.7558351663    1.0015360381
 H    0.3895596295   -1.7235928882    1.0709813380
 H   -0.4642419573   -0.8523291910   -4.2136481787
 H    1.2364166479   -1.0693539900   -3.8070327025
 H   -1.1150815547   -2.7672966796   -2.9149508581
 H    0.5977091760   -3.2257020591   -2.9762261543
 H   -0.5885432532   -2.5471648492   -0.6433012594