20

 C   -0.0235298137    1.5570934095   -0.0145804437
 C   -0.0129763836    0.0561596067    0.0063581659
 C    0.7140861916   -0.8836009499   -1.0389772717
 C    1.7236139727   -1.2773714523    0.0600962155
 C    0.6499389240   -0.8667929244    1.0893136499
 N   -0.5872235808   -1.7674929574    1.1063981407
 C   -0.4526559967   -2.8709511008    0.0918324125
 C   -0.5462050385   -1.8420834907   -1.0451976398
 C   -1.2158336905   -0.9081314153    0.0107735716
 H    0.9944619897    1.9639359826   -0.0050113260
 H   -0.5226282420    1.9383833268   -0.9133010185
 H   -0.5516364194    1.9618452980    0.8566553901
 H    1.0668872011   -0.5403061043   -2.0118910607
 H    2.1411948606   -2.2881394804    0.0808091232
 H    2.5499661510   -0.5593619997    0.0944355120
 H    0.9466146018   -0.5526378737    2.0921032750
 H    0.4291162360   -3.5115795596    0.1863958659
 H   -1.3472173916   -3.5001876882    0.1496017628
 H   -0.9653074275   -2.1032016217   -2.0190187003
 H   -2.2781741943   -0.6654727153    0.0836292857