19

 C    0.0926903649    1.5551178242   -0.0368336192
 C    0.0105926703    0.0365592722    0.0574563361
 O    0.6527652729   -0.5385150227   -1.1002345526
 C    1.2787940757   -1.7367402800   -0.6846880425
 C    2.6813237293   -2.0839516853   -1.2253505095
 C    3.3383522771   -2.6673300706    0.0184206137
 C    2.6706068931   -2.3658733618    1.1485309930
 C    1.5087891437   -1.5644008624    0.7987982955
 C    0.7470853461   -0.5670264742    1.2447185605
 H    1.1363032108    1.8816690811   -0.0162711347
 H   -0.3618206479    1.8979010584   -0.9707347528
 H   -0.4409350552    2.0221910816    0.7972723602
 H   -1.0535978239   -0.2633420822    0.0581633115
 H    0.6113855623   -2.5983332401   -0.8688655743
 H    2.6731777415   -2.7715352121   -2.0759795289
 H    3.2014401470   -1.1699882756   -1.5436022989
 H    4.2765954961   -3.2101163818   -0.0196727097
 H    2.9872191710   -2.6124118742    2.1542561235
 H    0.6858394553   -0.1578473445    2.2447926490