17

 C   -0.2850473141    1.5086434438   -0.1045597512
 C    0.0230454205    0.0333640094    0.0157949364
 O    1.1320733701   -0.4336417590   -0.8214023145
 C    1.6814516024   -1.1559192006    0.2695408899
 C    2.1750942708   -0.2224955911    1.3675144093
 C    2.7826616980    1.0570876700    1.1488648556
 C    3.3361429073    2.1147822768    0.9970571768
 C    0.6919709263   -0.5936173098    1.2471769094
 O    0.0088262047   -1.2224117387    2.2640096364
 H    0.5792816208    2.1221078893    0.1510238438
 H   -0.5927626335    1.7434363640   -1.1285671618
 H   -1.1170385543    1.7655699867    0.5607643822
 H   -0.8623706554   -0.5701779136   -0.2250701822
 H    2.0847932259   -2.1461275430    0.0938046474
 H    2.6117396965   -0.7982683755    2.1831871612
 H    3.8182556040    3.0488841167    0.8475569003
 H   -0.0887885199   -0.6040907154    2.9971141810