18

 C   -0.1073224779    1.5740179430    0.0600310716
 C    0.0331757348    0.0734545709   -0.0226241943
 O   -1.1121690001   -0.6207368003    0.4138366900
 C    0.6891522504   -0.6533901821   -1.1584211802
 C    1.6418549979    0.0874612521   -2.0986921220
 C    2.7886762033    0.5009914275   -1.1978525662
 C    2.6247448511    0.0676215282    0.0557037355
 C    1.3459444813   -0.6733412435    0.2283322673
 H    0.8027935320    2.0904702993   -0.2487467570
 H   -0.9361953677    1.9102259318   -0.5716011691
 H   -0.3277570463    1.8789735450    1.0911113977
 H   -1.2384005206   -0.4167916430    1.3474829169
 H    0.1559510625   -1.5238401335   -1.5210248040
 H    1.9835601657   -0.5633147532   -2.9144517356
 H    1.1665708337    0.9528754162   -2.5801679712
 H    3.6200234759    1.1004476989   -1.5517357389
 H    3.3168861345    0.2419124534    0.8722207083
 H    1.2880844594   -1.5435758607    0.8736345914