21

 C   -0.2125385466    1.6398610655    0.0024337374
 C    0.0299863639    0.1360089911    0.0153046757
 C    1.0998433041   -0.5381006815   -0.8603253484
 C    2.5249563636   -0.3873969854   -0.1821408422
 C    2.1307677858    0.1014319251    1.2229791432
 C    0.7536663455   -0.5983012013    1.1953870396
 C    0.0521406395   -0.9131656591    2.4943235398
 C    1.1597690126   -1.7270737314    0.1144354859
 O    2.5853311059   -1.8315060080    0.0422557246
 H    0.7127520240    2.2185241481    0.0702017468
 H   -0.7120177391    1.9362536390   -0.9264488738
 H   -0.8595209996    1.9446056102    0.8329496140
 H   -0.9210515132   -0.3802854143   -0.1736243646
 H    1.0528024891   -0.6417617648   -1.9433193170
 H    3.4010834268    0.0152348238   -0.6885484269
 H    2.8156974963   -0.3102065309    1.9679768784
 H    2.0687363107    1.1842133885    1.3463295937
 H   -0.1958814151    0.0002023913    3.0483119183
 H   -0.8830493311   -1.4578341398    2.3220939257
 H    0.6837602852   -1.5296243369    3.1436963888
 H    0.6047848819   -2.6631028692    0.0574320310