19

 C    0.0656983455    1.5860571652    0.0108199452
 C    0.1012667100    0.0882697006    0.0068324416
 C    0.6201868622   -0.8113594772   -1.1303154500
 C    1.2070352078   -1.8150208126   -0.0899308837
 O    2.6272019153   -1.8261546321    0.0006747540
 C    0.5869718751   -0.9870323853    1.0224959096
 O    1.1003764986   -0.9246472013    2.3007193063
 C   -0.8720422725   -0.7510419647    0.8290760329
 O   -1.5013132128   -0.0896975636    1.8868107182
 H    1.0611774598    2.0203806322   -0.1381025203
 H   -0.5827464392    1.9646264950   -0.7892832313
 H   -0.3336444754    1.9485728375    0.9609236346
 H   -0.1374541996   -1.2128201492   -1.8132853659
 H    1.4133609116   -0.3517997652   -1.7298860751
 H    0.9065631252   -2.8654735765   -0.1641857724
 H    2.9480957506   -0.9508016712   -0.2447563313
 H    2.0520939882   -1.0696815982    2.2203947426
 H   -1.5179210910   -1.4878929517    0.3425700946
 H   -1.0103362893   -0.2950429818    2.6918360504