19

 C    0.1677715467    1.5083958070   -0.2220004667
 O   -0.3283043175    0.2284229281   -0.5487833444
 C    0.6196072615   -0.6005822076   -1.1617215341
 C    1.6945389828   -1.3322298619   -0.2978233443
 C    1.4093383874   -2.6293191390   -1.1149147454
 C    0.1053879106   -1.9756751523   -1.5801437930
 C   -1.2816234420   -2.4422968672   -1.3808937157
 N   -0.6976527165   -2.3387110529   -2.7372235301
 H    0.9861242551    1.4573129074    0.5111270716
 H    0.5367138030    2.0396452974   -1.1134972177
 H   -0.6581558138    2.0766977782    0.2122149609
 H    1.0939393125   -0.0753849358   -2.0090581313
 H    2.7124203672   -0.9386935630   -0.3126141046
 H    1.3500002028   -1.4198891062    0.7357308717
 H    2.1144268972   -2.7706332925   -1.9390203950
 H    1.3272385074   -3.5636175940   -0.5562569168
 H   -1.4681496552   -3.4586433203   -1.0434538777
 H   -2.0161730677   -1.7059043084   -1.0692258386
 H   -1.0437294614   -1.4983918169   -3.1964844289