14

 N   -0.1063238784    1.3213449748    0.0744661786
 C   -0.0343466099    0.0520522297    0.0037256931
 N    1.0691512057   -0.8042220760   -0.0980415446
 C    0.7505325147   -2.2384609139   -0.0077750108
 C   -0.7462621345   -2.1878559093   -0.0045913505
 C   -1.1553242436   -0.8966685413    0.0002265458
 O   -2.4795386308   -0.7909543887   -0.0004294638
 N   -2.9979499618   -2.0961580144   -0.0062420761
 C   -1.9618442011   -2.9105859191   -0.0119360076
 H    0.8199646578    1.7510912208    0.0641286962
 H    1.9834788367   -0.4709740607    0.1598646355
 H    1.1634788396   -2.7897232715   -0.8622533483
 H    1.1608667561   -2.6889478033    0.9065053615
 H   -2.1490438505   -3.9749190171   -0.0176040488