19

 C   -0.0166602255    1.6097867691    0.0862388171
 C    0.0059129906    0.0985035994   -0.0345356283
 C    1.2312871963   -0.5994787903   -0.6444029565
 O    2.0330938495   -0.2122207595    0.5725698187
 C    0.7357926581   -0.7609353954    1.0645870866
 C    0.1318701316   -1.3200753488    2.3055617576
 C   -0.5288936935   -2.4266880499    1.9203954023
 C   -0.3635645204   -2.7721734097    0.4244072046
 C    0.8865681567   -1.9308611857    0.1078916981
 H    0.9558024919    1.9831285042    0.4122825915
 H   -0.2640757573    2.0730254677   -0.8755643296
 H   -0.7763347938    1.9310361555    0.8071621523
 H   -0.9615441309   -0.3030661394   -0.3513169040
 H    1.7312120445   -0.4399889149   -1.6013412618
 H    0.1013760039   -0.8672652943    3.2881226043
 H   -1.1792946216   -3.0056344789    2.5681579009
 H   -0.2263370063   -3.8441813306    0.2532597728
 H   -1.2639166636   -2.4763790537   -0.1270818408
 H    1.7993861298   -2.4914283348    0.3198408243