15

 N   -0.0420840910    1.3044425046    0.0353280137
 C   -0.0536735324   -0.0608054562   -0.0474654362
 O    0.7508081477   -0.7176446138   -0.6706941953
 N   -1.1123227821   -0.6276779379    0.7248342367
 C   -1.6413943488   -1.8950354228    0.2611336286
 C   -2.5540602880   -2.4072680382    1.3845463129
 C   -3.4102776128   -1.1209932194    1.1627490166
 O   -4.4697662026   -0.7497394270    1.5673759393
 C   -2.4625727131   -0.6417012473    0.0720187440
 H    0.7898298974    1.7612593162   -0.3011007525
 H   -0.5435268802    1.7481484601    0.7870382700
 H   -1.1120604073   -2.4527636150   -0.4977912290
 H   -3.1385559502   -3.2916944913    1.1149329427
 H   -2.0918334832   -2.5445890139    2.3635726064
 H   -2.6429067934   -0.0348240882   -0.8063070278