16

 O    0.0528186379    1.3899848301    0.0084777509
 C   -0.0185716109    0.0141825710    0.0075592426
 C    0.2921381474   -0.7583408056   -1.3265102124
 C   -0.8569593961   -1.7095857566   -0.9985883201
 C   -0.8356195552   -2.0668594596    0.4705105584
 O    0.3812700330   -1.9368160522    1.2191198907
 C    0.7905306007   -0.6464444663    1.0987688629
 N    1.7012061096   -0.0534750051    1.7387573587
 C   -1.3882034982   -0.7467811725    0.0722816252
 H    0.7358488003    1.6192308062    0.6593720518
 H    0.0326348806   -0.1066054917   -2.1632711974
 H    1.2981992510   -1.1670821808   -1.4671045767
 H   -1.4097806321   -2.3127430057   -1.7090210968
 H   -1.4456002116   -2.8799462265    0.8388843138
 H    2.1535882844   -0.6505932738    2.4298793442
 H   -2.3695840909   -0.3441294509    0.2823473841