17

 O   -0.0921428122    1.4622531166    0.0069930054
 C    0.0079069807    0.0668634333    0.2277137061
 C   -1.3229883794   -0.6030620258    0.0649679218
 O   -2.3397778147   -0.2222280677    1.0555633879
 C   -2.9677348180   -1.4757263013    0.7637503074
 C   -2.9435754604   -1.6699242033   -0.7535958032
 C   -1.7724611696   -2.1050597039    0.1427022976
 C   -2.1333870174   -0.4760271968   -1.2579972139
 O   -2.7302886038    0.7722249628   -1.4958545510
 H   -0.6896325773    1.6036487482   -0.7384604011
 H    0.7192425664   -0.4122718087   -0.4670170901
 H    0.3901220081   -0.0714637545    1.2443740867
 H   -3.7294636268   -1.8521770636    1.4325289934
 H   -3.6489225101   -2.2938325507   -1.2864523720
 H   -1.2584485440   -3.0463126316    0.2680008999
 H   -1.5314337297   -0.7364084313   -2.1319668781
 H   -3.1198576818    1.0299452982   -0.6473500267