23

 C   -1.0333346762    0.2235408042   -2.1477048786
 O   -1.2677495928   -0.8500988576   -1.2697957168
 C   -1.3124530013   -0.4973073492    0.1106790223
 C   -2.5980620391    0.2540342174    0.4743280196
 C   -1.2049527733   -1.7957036204    0.8791104631
 C    0.0584458186   -2.5738318967    1.1140265333
 C    1.2602944076   -1.6581090496    1.3793603431
 C    0.4905389037   -1.0178393378    2.5801702353
 C   -0.7034773336   -1.9402069966    2.2906067833
 H   -0.9001001701   -0.2008196096   -3.1465464299
 H   -1.8691744293    0.9378865197   -2.1858146652
 H   -0.1209012074    0.7799812760   -1.8780367317
 H   -0.4504067944    0.1498378051    0.3359137764
 H   -2.6153335396    0.4721637770    1.5465961506
 H   -2.6827334241    1.2037130608   -0.0615449003
 H   -3.4740826003   -0.3564549120    0.2318338217
 H   -2.0506569258   -2.4511048697    0.6758773005
 H    0.1278325360   -3.6176888869    0.8318698991
 H    2.1426978166   -2.2098902624    1.7102658231
 H    1.5585957239   -0.9964106423    0.5599653899
 H    0.9676901283   -1.2475001941    3.5354306538
 H    0.3041478827    0.0607174231    2.5448505117
 H   -1.3056832301   -2.4223756485    3.0521233657