18

 C    0.0380552307    1.4790987247   -0.0769083905
 C   -0.0109423695   -0.0177395660   -0.0447275627
 C   -0.2493816462   -0.8924375401   -1.0811167708
 C    0.0547720122   -1.3358813923   -2.4981487507
 C    1.3894512337   -2.0712473036   -2.4672104470
 C    0.1575516524   -2.7442134917   -1.9199695799
 N   -0.2154119078   -2.1924178399   -0.6065812398
 C    0.1273496770   -2.1900178066    0.7241768322
 C    0.1660328006   -0.8633457736    1.1079306044
 H    0.9421819886    1.8606888163    0.4109229294
 H    0.0318274365    1.8514083217   -1.1055436525
 H   -0.8176739895    1.9317925860    0.4394225002
 H   -0.4234634781   -1.0257072418   -3.4168611789
 H    1.7469290030   -2.4562963650   -3.4196636205
 H    2.1675344715   -1.7409833941   -1.7862542936
 H   -0.2532238056   -3.6791545943   -2.2775499405
 H    0.1976392726   -3.0924798638    1.3111501619
 H    0.2641626279   -0.5152196157    2.1276188193