15

 C   -0.0160167638    1.4421104185    0.0321523758
 C    0.0185310966   -0.0474943027   -0.0256769503
 N    0.0533271374   -0.7736975368   -1.1352440568
 C    0.0762058823   -2.0701115288   -0.7287448793
 O    0.1137489318   -3.0878969869   -1.6058553998
 C    0.0559879631   -2.1770753364    0.6507218954
 N    0.0186403604   -0.8412952362    1.0703549542
 C    0.0663806799   -3.2692079690    1.5270101050
 C    0.0748026431   -4.1972461266    2.2978912328
 H    0.8527866008    1.8481902227    0.5626719787
 H   -0.0120127070    1.8327726892   -0.9858676051
 H   -0.9153496885    1.8080420852    0.5404927761
 H    0.1190804404   -2.6883236033   -2.4846010202
 H   -0.0038472748   -0.5457287263    2.0319745852
 H    0.0826788381   -5.0250312426    2.9620144182