21

 C   -0.0818499828    1.4358067580   -0.0213721152
 N   -0.0180014902   -0.0093405266   -0.0244464503
 C    0.0435726700   -0.8085773771   -1.1436445566
 C    0.0505220366   -0.2434510815   -2.5254054278
 C    0.0918150366   -2.1181235868   -0.7190683943
 C    0.0592212234   -2.1307119096    0.7042099704
 C    0.0914719788   -3.3292851513    1.6027557030
 C   -0.0087225590   -0.8122922093    1.1087782088
 N   -0.0653297739   -0.2075897905    2.3885153935
 H    0.7987878728    1.8737655849   -0.5046166657
 H   -0.9751025149    1.7955688325   -0.5443999183
 H   -0.1196839824    1.7641747255    1.0173427987
 H    0.9081442988    0.4177644947   -2.7061200831
 H    0.1038766283   -1.0574889835   -3.2522274781
 H   -0.8533390300    0.3389908142   -2.7471701918
 H    0.1451728063   -2.9804961897   -1.3684106210
 H    1.0028931346   -3.9235357169    1.4634666804
 H    0.0533722767   -3.0312505235    2.6556758043
 H   -0.7559441978   -4.0019159382    1.4220046322
 H   -0.8838446690   -0.4968462579    2.9130953584
 H    0.7500721572   -0.4248283874    2.9513141725