17

 O    0.0248984511    1.3180558661   -0.1086830797
 C   -0.0349612762   -0.0548937216    0.0500266128
 C   -0.4408885217   -0.7235935036    1.3127309388
 C   -1.1712457834    0.1273357319    2.3531732556
 C   -2.4367098175    0.5737118657    1.6492758638
 C   -2.5600102520    0.0326899583    0.4325746722
 C   -1.3882554731   -0.8119956602    0.0772421057
 C   -1.5278885874   -2.0101392169   -0.7651582854
 O   -2.5498576426   -2.3492015360   -1.3143319355
 H   -0.8308877218    1.6855841289    0.1532476276
 H    0.7467026781   -0.5362329772   -0.5304174706
 H    0.1081716768   -1.6017006624    1.6342997923
 H   -1.3996257235   -0.4478652268    3.2581118091
 H   -0.5536298016    0.9785993367    2.6689100237
 H   -3.1468841300    1.2522308133    2.1081397052
 H   -3.3889153765    0.1681812027   -0.2502015382
 H   -0.5871159587   -2.5973681788   -0.8856199873