14

 O    0.0516748842    1.4437052937    0.2085198737
 C    0.0541514809    0.0561644916    0.0747307855
 C   -0.5327242086   -0.8256764777    1.1776017382
 C   -1.2740553457   -0.5770857623   -0.0931204461
 C   -2.6230005459    0.0606853111   -0.3674129552
 C   -2.7519909443   -1.0874396743   -1.3742125481
 O   -3.5376256065   -1.4942053944   -2.1647257309
 O   -1.5130546489   -1.6175906293   -1.0709567833
 H    0.7510790656    1.6896607555    0.8234998272
 H    0.8769155141   -0.3707320958   -0.4987714871
 H   -0.0851675281   -1.8023127820    1.3274629044
 H   -0.9062739797   -0.3377322209    2.0723096155
 H   -3.3541389830    0.0298022331    0.4421341640
 H   -2.5969159941    1.0568892218   -0.8112511678