19

 C   -0.1595096472    1.5227350424    0.0088930339
 C    0.1247112309    0.0242467111    0.0451611203
 C    0.8816310818   -0.5243392220   -1.1809078750
 C    1.4351725226   -1.8763321249   -0.7054364204
 N    1.5708783518   -1.6973789565    0.7443790999
 C    1.0315911525   -0.4207654326    1.2061628936
 C    2.0798030390   -2.6676860979    1.5381549623
 O    2.4984622208   -3.7372451163    1.1391767784
 H    0.7700721696    2.0962273328   -0.0818697648
 H   -0.7957538152    1.7812253730   -0.8433490901
 H   -0.6715810051    1.8560327679    0.9176343505
 H   -0.8242259527   -0.5210062546    0.1340040529
 H    0.2479089540   -0.6200604850   -2.0658115697
 H    1.7048729570    0.1540238436   -1.4357873510
 H    0.7471583938   -2.7041143402   -0.9155039955
 H    2.3976529928   -2.1370285689   -1.1544334399
 H    1.8309398742    0.3190111005    1.3665548481
 H    0.4915483793   -0.5382183747    2.1506425148
 H    2.0736396801   -2.3811006776    2.6097742917