23

 C   -0.0354124782    1.6179838347    0.0522457455
 C    0.0113846361    0.0879112456    0.0363178946
 C   -1.3836882540   -0.5470141917   -0.0079342328
 C   -1.3739606098   -2.0900885371   -0.0098564827
 C   -2.8012402852   -2.6563891096    0.1204966742
 C   -2.8443458319   -4.1699815147    0.2996353000
 O   -4.2069331519   -4.5440345406    0.4267023404
 C   -0.7507519995   -2.5889438445   -1.2994752328
 O    0.2357424798   -3.2731335330   -1.3902598636
 H    0.9707415280    2.0460472751    0.0918995861
 H   -0.5287568129    2.0093718178   -0.8444224972
 H   -0.5899889006    1.9883440595    0.9217368347
 H    0.6024688679   -0.2524851185   -0.8232548615
 H    0.5422981214   -0.2744963060    0.9259776114
 H   -1.9682229998   -0.2076497927    0.8563395776
 H   -1.9249755667   -0.1895575365   -0.8957532053
 H   -0.7501088704   -2.4551909782    0.8148923529
 H   -3.2981162231   -2.1898502249    0.9782251862
 H   -3.3940994159   -2.3894230026   -0.7639392560
 H   -2.3714350725   -4.6696903022   -0.5607956648
 H   -2.2647870584   -4.4526522382    1.1935188932
 H   -4.2488224203   -5.4995091163    0.5262904172
 H   -1.3049927821   -2.2585453152   -2.2131904770