15

 N   -0.3170153865    1.5669402432   -0.1997120090
 C   -0.0240229233    0.1431095218   -0.0959129599
 C   -1.2575084137   -0.5812563879    0.2505341241
 N   -2.2264885326   -1.1707174553    0.4700939226
 C    0.6184330037   -0.4991509020   -1.3538852898
 C    0.5093446858   -1.9612268030   -1.6399693844
 N   -0.2049190420   -0.9902890377   -2.4729147785
 C    1.8202145679    0.2111442100   -1.7434052274
 N    2.7820834445    0.8024173388   -1.9913164473
 H    0.5482565903    2.0848339307   -0.3196122934
 H   -0.9014666628    1.7566726633   -1.0086511745
 H    0.6790223396    0.0143460389    0.7363130918
 H    1.3382156046   -2.4646169830   -2.1266749872
 H   -0.0556524397   -2.5603203889   -0.9316820299
 H   -1.1895690758   -0.9632512490   -2.2095349372