18

 C    0.5184125843    1.3548734876   -0.4508226531
 C   -0.0822479855    0.0878967063    0.1575124855
 O   -0.1642216464   -0.9668470076   -0.8225222646
 C    1.0486233526   -1.6938893416   -0.8216106207
 C    1.6811979251   -1.4640926050    0.5513434096
 O    2.7259812463   -1.9125669189    0.9439471227
 C    0.7321105334   -0.5347178789    1.3104612017
 C    1.4355125032    0.3761516494    2.3106513084
 H    1.5667935170    1.2142481277   -0.7367334338
 H   -0.0442564196    1.6296932113   -1.3467763452
 H    0.4719786431    2.1894854564    0.2551492995
 H   -1.1147151156    0.2876222574    0.4587373695
 H    0.8415250198   -2.7557609053   -0.9930432156
 H    1.7468563274   -1.3570014571   -1.6037686486
 H    0.0518813133   -1.2113679425    1.8496500230
 H    2.0985723162    1.0862303696    1.8092370780
 H    0.7169477718    0.9429232142    2.9098957923
 H    2.0497837237   -0.2275697530    2.9838722514