17

 O   -0.0700026861    1.4026944325    0.2748026699
 C    0.0104126525    0.0312522578    0.0066063193
 C   -0.5253114917   -0.4743217099   -1.3283918162
 C   -1.2991964373   -0.7159819559   -0.0570451170
 C   -1.3905090914   -2.0896834546    0.5734810295
 C   -0.0592890312   -2.8206118875    0.7708532048
 O   -0.0195157965   -4.0310750240    0.8711463599
 C    1.1488707351   -1.9851631958    0.9126439914
 C    1.1614943499   -0.6803951761    0.6030846788
 H    0.5515228400    1.8600812449   -0.3025456764
 H   -0.9126402801    0.2815480461   -2.0033208654
 H   -0.0065266442   -1.3022510885   -1.8003953312
 H   -2.1706173532   -0.0828216561    0.0728838902
 H   -1.8289899620   -2.0008108740    1.5769742369
 H   -2.0546080309   -2.7501554271    0.0076047098
 H    2.0324872414   -2.4928072544    1.2849971623
 H    2.0585927056   -0.0847697872    0.7613783433