19

 C   -0.0173213871    1.5275665149   -0.0172693947
 C   -0.0097441282    0.0721881388    0.0265944557
 C   -0.0005104350   -1.1326784158    0.0636987582
 C    0.0100506014   -2.5857928431    0.1065234864
 C    0.1591729639   -3.3418043482    1.4355380892
 C   -1.2408331898   -3.5076329058    2.0432597117
 C   -2.2372296458   -2.8506550373    1.0900216284
 C   -1.3310927079   -3.3853446158   -0.0500679791
 C   -0.7514798956   -4.4492449395    0.9682653753
 H    0.8370964131    1.9149414612   -0.5836294253
 H   -0.9280399551    1.9070789289   -0.4942436378
 H    0.0309406359    1.9577404897    0.9894606037
 H    0.7410185041   -2.9812461401   -0.6075599142
 H    1.0492841187   -3.4203255872    2.0463165910
 H   -1.3578968142   -3.7129009529    3.0997062584
 H   -3.1990232598   -3.3707323546    1.1073438882
 H   -2.3930950622   -1.7683445374    1.1416564725
 H   -1.7288277140   -3.5803421189   -1.0435199872
 H   -0.6256524824   -5.5211015967    0.9335869697