20

 C    0.4691544297    1.3925591237   -0.2540918640
 C   -0.1241351578    0.0866930067    0.2626488827
 O   -0.1826659561   -0.9227609047   -0.7204501685
 C    1.0607137108   -1.6081376723   -0.6565576138
 C    1.4547985873   -1.5176316606    0.8385704864
 O    0.6485516254   -0.4467823117    1.3327540388
 C    1.1851362468   -2.7945074626    1.6114829801
 C    0.6625024149   -2.7563851469    2.9956887448
 N   -0.1916826563   -3.2219141257    1.8840813646
 H    1.4822988539    1.2405115292   -0.6372280214
 H   -0.1548443777    1.7929981242   -1.0580309227
 H    0.5136217975    2.1252140534    0.5563248833
 H   -1.1459639654    0.2454435246    0.6276032319
 H    0.9001804931   -2.6337304745   -0.9954244735
 H    1.8132790711   -1.1335568876   -1.3009207680
 H    2.5152616977   -1.2538081202    0.9466012787
 H    1.8519101381   -3.6082558074    1.3277261128
 H    0.9507456880   -3.5263730799    3.7054190935
 H    0.4568782944   -1.7797934637    3.4214493253
 H   -0.8214418854   -2.4666035640    1.6199960990