19

 C    0.0235450118    1.5063313794   -0.0636944312
 C    0.0259950861   -0.0104407513    0.0054475335
 O    0.6553645018   -0.5109275353   -1.1686265151
 C    0.7276777861   -1.8829363247   -1.2397370111
 C   -0.3974687877   -2.9550956565   -1.2978741604
 N    0.8853276493   -3.7846029935   -1.4477722413
 C    1.3551194442   -2.6673291271   -2.3977040546
 C    1.4570245700   -2.9077762757   -0.3250715479
 H    1.0461283084    1.8893769470   -0.1231078550
 H   -0.5224943221    1.8492755874   -0.9469622688
 H   -0.4545409066    1.9269324776    0.8261110329
 H    0.5674364883   -0.3575295443    0.8988642580
 H   -1.0021701813   -0.3976384302    0.0745431274
 H   -0.9554038595   -3.1849396313   -0.3866737221
 H   -1.0386929373   -2.9809307513   -2.1826850452
 H    0.8377112414   -2.6674482444   -3.3602361023
 H    2.4403236862   -2.6265627898   -2.5195606954
 H    2.5496245183   -2.8893621216   -0.3003761799
 H    1.0336181428   -3.1341892945    0.6566974184