19

 O    0.1286027341    1.4185069805   -0.0723433704
 C    0.0473058760    0.0096105756   -0.0133304999
 C    0.6833434434   -0.6271348929    1.2574335469
 C   -0.5131081474   -1.3121699582    1.9389783915
 C   -1.3505184222   -0.3474149317    2.7844983320
 O   -1.7330799660    0.7975204453    2.0210282481
 C   -2.3361385974    0.4281447890    0.7758973396
 C   -1.4157867209   -0.5432339584    0.0393279506
 O   -1.3169036075   -1.7352434660    0.8262184050
 H   -0.2379415629    1.7454543680    0.7604578875
 H    0.5467520970   -0.3468584962   -0.9166666447
 H    1.4364992744   -1.3726338712    0.9925049058
 H    1.1654531823    0.1380396812    1.8712313306
 H   -0.2512456264   -2.2000136798    2.5205783717
 H   -2.2456893852   -0.8740513084    3.1474915768
 H   -0.7883484825    0.0288645607    3.6446706388
 H   -3.3100588572   -0.0517770703    0.9476187990
 H   -2.4836775874    1.3551548280    0.2174477740
 H   -1.8225183042   -0.8145861053   -0.9378047131