12

 N   -0.1281021647    1.4075439827    0.1313214411
 C   -0.0308050792    0.1535157784    0.0078529180
 N    1.2317697817   -0.5036287937   -0.0872272519
 N    1.4477908705   -1.4088335125   -0.9118253189
 N    0.4912340250   -1.8675815400   -1.8040527977
 N   -0.8684955502   -1.7636619962   -2.0527801288
 N   -1.6698969756   -1.2490682710   -1.2534244453
 C   -1.2558537999   -0.7221548787    0.0059055062
 N   -1.9026137775   -0.9379121419    1.0700701309
 H    0.8050338909    1.8306150797    0.1396073726
 H    0.9218736997   -2.4685171938   -2.4914191839
 H   -2.7158120608   -1.5283465531    0.8703291178