17

 O    0.0551688828    1.4175912960   -0.0121774042
 C    0.0295073163   -0.0019142852   -0.0294264880
 C   -1.4431923351   -0.5362669952   -0.0590245658
 C   -1.6793525123   -0.6889621424   -1.5328397738
 C   -2.6419303549   -0.8427755149   -2.5033659686
 N   -1.9583527403   -0.9366504429   -3.6812743786
 N   -0.6124122363   -0.8511029874   -3.5456780570
 C   -0.4577638899   -0.7044636072   -2.2380707678
 C    0.7173112906   -0.5624314945   -1.3156740329
 H   -0.3876259219    1.7240325112   -0.8125698511
 H    0.5532268420   -0.3042457246    0.8805237709
 H   -1.5192537816   -1.4975241595    0.4659030003
 H   -2.1010178726    0.1700389252    0.4550406038
 H   -3.7192446770   -0.8917207964   -2.4783673766
 H   -2.3455113681   -1.0311723986   -4.6047908452
 H    1.4983698259    0.1203014982   -1.6592998105
 H    1.1880323724   -1.5340418618   -1.1190141151