18

 C   -0.0177796816    1.5439100628    0.0081162246
 C   -0.0001193904   -0.0026756677    0.0056174642
 C    0.7522143191   -0.5180560425    1.2548633958
 C   -1.4500884191   -0.5411066732    0.0109523339
 C    0.6852436129   -0.4751725603   -1.1993110385
 C    1.2521344820   -0.8656933250   -2.1956989156
 C    1.8894054810   -1.3043848602   -3.3154774363
 C    2.4549104518   -1.6936943148   -4.3091435907
 H    0.9985824527    1.9470387943    0.0018430099
 H   -0.5437647400    1.9307401732   -0.8689595765
 H   -0.5284694785    1.9081045418    0.9058252131
 H    0.2475915969   -0.1696289380    2.1622740956
 H    0.7786595433   -1.6110134183    1.2727289894
 H    1.7822674598   -0.1515790788    1.2703941733
 H   -2.0012958925   -0.1904914616   -0.8658518060
 H   -1.4614716602   -1.6344469935    0.0064813571
 H   -1.9718707848   -0.1936948179    0.9089523674
 H    2.9519436077   -2.0358174203   -5.1823994608