18

 C   -0.0089220208    1.5603491864    0.0894073327
 C    0.0649757968    0.0546151002    0.0466773777
 C   -1.2492413750   -0.7632766143   -0.0096428189
 O   -0.8446454960   -1.6066961084    1.0946603518
 C    0.4067800583   -0.9224535003    1.2426270364
 C    1.5315898089   -1.4857391526    0.3492984642
 N    1.2022976096   -0.4991669231   -0.7162105913
 C    0.6978783413   -0.4890723181    2.6445807509
 O    1.7673945750   -0.0576546564    2.9988173970
 H    0.9519165930    1.9805584821    0.3961830529
 H   -0.2410578630    1.9505939753   -0.9090481911
 H   -0.7864264889    1.9068819646    0.7774559958
 H   -2.1599391266   -0.2022055221    0.2356641415
 H   -1.4137656240   -1.3318562994   -0.9338557219
 H    2.5370256616   -1.3362611186    0.7536967496
 H    1.3772127288   -2.5414130481    0.1039482570
 H    0.9613461755   -0.8936259452   -1.6196748279
 H   -0.1692763545   -0.5756407421    3.3357126535