23

 C   -0.1424924064    1.5804323397    0.2800115692
 C   -0.0468882045    0.0655408390    0.0756614555
 C    0.8234609476   -0.6125294073    1.1422708317
 C    0.8528745641   -2.1544838001    1.0891076366
 C    1.3569268527   -2.6970339469   -0.2490283736
 C    1.5004441047   -2.7897081257    2.3719134449
 C    0.1057653294   -3.2656224626    2.8782605872
 C   -0.4890724135   -2.7671221176    1.5529225159
 O   -1.5706826104   -2.8517064936    1.0429204904
 H    0.8471945257    2.0502699647    0.2476956097
 H   -0.7577411724    2.0475330493   -0.4950613418
 H   -0.5902270048    1.8219703326    1.2505725047
 H   -1.0487258450   -0.3781307957    0.0922900567
 H    0.3626589760   -0.1385742691   -0.9203530031
 H    1.8586539771   -0.2504211776    1.0640194249
 H    0.4716676937   -0.3008332434    2.1358526570
 H    2.3461416557   -2.2880166325   -0.4848230406
 H    1.4416531759   -3.7883442305   -0.2255676395
 H    0.6754338420   -2.4370507684   -1.0632859600
 H    2.1822319412   -3.6124431525    2.1461347846
 H    2.0133438252   -2.0797620499    3.0235546428
 H   -0.0215608169   -4.3360797520    3.0610343056
 H   -0.2809444970   -2.7260117097    3.7484819913