18

 C   -0.0715558425    1.6135309263    0.1886877461
 C   -0.0639152032    0.0962041543    0.0675641127
 O    0.4213416851   -0.2516927804   -1.2223611068
 C    0.8478901790   -0.5253828523    1.1275956164
 O    0.3644115025   -0.3213612879    2.4742471251
 C    0.1756248853   -1.7276950051    2.6944288319
 C    0.7941790235   -2.0769538332    1.3129932875
 C   -0.0169158480   -2.8294632997    0.3742293342
 N   -0.6722899094   -3.3966631442   -0.3924796024
 H    0.9250466802    2.0125906405   -0.0263230678
 H   -0.7746368126    2.0456423905   -0.5273988436
 H   -0.3613847227    1.9113746846    1.1996668198
 H   -1.0842996629   -0.2858673572    0.2195686396
 H    0.0799078657   -1.1235224712   -1.4503297050
 H    1.8677543161   -0.1438999889    0.9991392297
 H    0.7419838893   -2.0949950105    3.5562023829
 H   -0.8801389981   -1.9969349779    2.8075595411
 H    1.7822280527   -2.5344324179    1.3839826888