16

 O    0.1682154789   -0.0604588282   -0.5912909020
 C    0.0949478565    1.0624695330   -0.1671448752
 C    1.2516191192    2.0215186950   -0.0321726910
 O    2.5481286914    1.4575737575   -0.2576030691
 C    2.8564883199    2.4325832226   -1.2774015196
 C    2.5616795752    1.9221039488   -2.7055235223
 C    1.1269013046    2.5335866975   -2.6158344700
 C    1.4331244506    3.0549082307   -1.1828253930
 H   -0.8788542198    1.5097222513    0.1477894969
 H    1.1852195320    2.5020772492    0.9574144076
 H    3.7936221013    2.9568688896   -1.0751369851
 H    3.1878271858    2.3745270458   -3.4787502496
 H    2.6140143161    0.8351467041   -2.7881991299
 H    0.9590535359    3.3476743733   -3.3239772733
 H    0.2994346397    1.8268336175   -2.7048157632
 H    1.2176350627    4.0962137723   -0.9504724911