19

 C    0.1558795983    1.2678984397   -0.4567913412
 C    0.2922562913   -0.1610227993    0.0020237161
 O    1.6106638186   -0.6287723736    0.3404808897
 C    0.6183616789   -0.5785737435    1.3778545710
 C    0.8586994199    0.4092469646    2.4998724743
 C    0.1516008623   -1.9711560865    1.8451718449
 O   -0.5299066457   -2.6935728432    0.8625544065
 C    1.3600066032   -2.7724883440    2.3133251455
 O    1.5983464638   -3.8642905460    1.8598719355
 H    0.7358221974    1.9619708205    0.1540641953
 H    0.5033355390    1.3587211550   -1.4912152598
 H   -0.8960164319    1.5727167827   -0.4323048464
 H   -0.2750465229   -0.8857652150   -0.5778319135
 H    1.3262757186    1.3198535810    2.1249579740
 H   -0.0840721968    0.6739610617    2.9906939621
 H    1.5235351930   -0.0082328028    3.2639671775
 H   -0.4965940021   -1.8215765141    2.7277763494
 H   -0.0101960848   -3.5035689558    0.7292056472
 H    2.0063558197   -2.3096985414    3.0833848717