16

 N    0.0603129739    1.3107680736   -0.2327147659
 C    0.1000899421   -0.0302583232   -0.0637598007
 O    1.1176719702   -0.6779559557    0.1095521434
 C   -1.2889171059   -0.6945464451   -0.0705334240
 O   -2.2880417096    0.1794646984   -0.5270670991
 C   -1.1992087598   -2.1589600166   -0.6286013969
 C   -1.0370075099   -2.7058857070    0.8289030058
 C   -1.6243248356   -1.3788478757    1.2766045052
 O   -2.3941892823   -1.0164749780    2.1216137137
 H    0.9282660511    1.8165055520   -0.2892670740
 H   -0.8102496875    1.7480464817   -0.4841642902
 H   -2.9526604208    0.2284357009    0.1750850372
 H   -2.1475158955   -2.4477992516   -1.0842020461
 H   -0.3632781302   -2.3457984835   -1.3002605265
 H   -1.5731084532   -3.6061849737    1.1326960333
 H    0.0220366632   -2.7736811765    1.0889239650