19

 C    0.5086505732    1.6046543035   -0.1753696516
 C    1.4644212103    0.4698455093    0.1829242386
 C    0.0174566452    0.2031999030   -0.0778967237
 O   -0.8650901465   -0.2201940606    0.9634694072
 C   -1.4139638664   -1.2669812733    0.1220566831
 C   -2.9117777154   -1.0857401895   -0.1625686915
 C   -2.9237800566   -0.2900922033   -1.4485517066
 C   -1.7059897770   -0.1144157182   -1.9629869380
 C   -0.6297212041   -0.7278164575   -1.1078405353
 H    0.2202640064    2.2818936686    0.6214732887
 H    0.5873779314    2.0651136647   -1.1548626810
 H    2.1958094073    0.1538948506   -0.5545261803
 H    1.7993823763    0.4085834634    1.2129269046
 H   -1.1463768428   -2.2560757980    0.5061523331
 H   -3.4320314710   -2.0467712446   -0.2722872073
 H   -3.3895862613   -0.5577661267    0.6713077720
 H   -3.8418148733    0.0839825602   -1.8891468958
 H   -1.4876883304    0.4246411483   -2.8781426777
 H    0.0536235348   -1.3940559100   -1.6403225685