15

 C   -0.0338061227   -1.2232232505    0.1920190977
 C   -0.0262194690   -0.0208967981    0.1430532791
 C   -0.0149273902    1.4110303398    0.0737240364
 C    0.6435688208    2.2280755536    1.1776110997
 C    1.2837921182    2.1704582563   -0.1759602685
 C    2.5773612560    1.4021869625   -0.3892688450
 C    3.7545572728    2.1894610332   -0.0205356131
 N    4.6767336793    2.8221402469    0.2699639116
 H   -0.0509751136   -2.2838752948    0.2414044190
 H   -0.8994076636    1.8489579843   -0.3791951913
 H    0.1548521248    3.1452838199    1.4842153703
 H    1.1101300148    1.6715865362    1.9825933108
 H    1.1860877806    3.0549836569   -0.7971240710
 H    2.5684468197    0.4777972460    0.1974922695
 H    2.6737456119    1.1009898577   -1.4389544653