15

 O    0.0030245690    1.4124054346    0.0098990325
 C   -0.0127157206    0.0102857177    0.0034517814
 C   -1.4608507183   -0.4812710406    0.0124776588
 O   -2.3983715624    0.2835309243    0.0230556823
 C   -1.6587337766   -1.9447653145    0.0076055766
 C   -0.7293713598   -2.9484442718   -0.0036347725
 O   -1.3301015335   -4.1562827063   -0.0043375061
 C   -2.6797919416   -3.9311722528    0.0066217288
 C   -2.9387571271   -2.6040251255    0.0142298672
 H    0.9207864075    1.6990170981    0.0037369332
 H    0.4794855012   -0.4158639141   -0.8880243565
 H    0.4934129187   -0.4241531320    0.8830493179
 H    0.3483939812   -2.9637930963   -0.0116837087
 H   -3.2947037394   -4.8153764146    0.0073780678
 H   -3.8984011583   -2.1142199163    0.0234479772