15

 C   -0.0708264971    1.5210668780    0.0101940711
 N    1.4528386803    1.2537499827   -0.0097766127
 C    1.2371824641    0.0600419833    0.9407870552
 C    1.8788742500   -0.9708080753    0.0190638825
 O    1.1721836011   -2.2401979682    0.0506631646
 C   -0.1848467953   -2.1827054048    0.0713970589
 N   -0.9055585608   -1.1288377539    0.0659623467
 C   -0.0312972386   -0.0025456044    0.0339930075
 C    1.2076233476    0.0303294075   -0.9142837214
 H   -0.4061302042    2.0479980783    0.9086556171
 H   -0.4348300006    2.0191118630   -0.8935605700
 H    1.2733758576    0.1667428344    2.0239282917
 H    2.9431416797   -1.2024753963    0.0058132573
 H   -0.6115930739   -3.1817913908    0.0941260104
 H    1.2092438302    0.1022718464   -2.0008891088