17

 N   -0.0764945875    1.3721796005    0.0578978360
 C    0.1200447242    0.0207061844   -0.0477103089
 O    1.2351473121   -0.4655068773   -0.0949893787
 C   -1.1684701283   -0.7822693268   -0.0614288370
 C   -1.8475875576   -1.1761458490   -1.4241899609
 C   -0.7051072082   -2.2124102566   -1.6332951939
 C   -1.1185351657   -2.3346759360   -0.1344442710
 C   -2.5979719875   -2.2763995873   -0.6218765309
 H    0.7287996541    1.9718446466   -0.0215930674
 H   -0.9890681333    1.7832094213   -0.0349394191
 H   -1.8715289241   -0.3754317869    0.6753909110
 H   -2.2694642004   -0.4892347600   -2.1603010544
 H   -0.9543266681   -3.0670733748   -2.2681336158
 H    0.2946040664   -1.8327405276   -1.8332881189
 H   -0.6918639420   -2.9987540718    0.6166347951
 H   -3.3481066131   -1.9404551736    0.1002036912
 H   -2.9503985810   -3.1361299951   -1.1973463764