20

 C    0.0501548539    1.3922873533    0.0631175108
 O   -0.1206985307   -0.0007401600   -0.0602011461
 C    0.6013162185   -0.5746227334   -1.1394733562
 C    2.1009000567   -0.8411651010   -0.8363438573
 C    2.1215380396   -2.3277544856   -0.5045509855
 C    1.2038173197   -2.6955652378    0.6926676754
 C    0.1485485084   -3.0090604475   -0.3555301934
 C    0.0663331013   -1.9714022519   -1.4144204354
 N    1.1473987871   -2.9840581261   -1.4927630678
 H    1.0913559951    1.6716148199    0.2852958590
 H   -0.2566887202    1.9208685265   -0.8533230178
 H   -0.5827400209    1.7236721284    0.8900412317
 H    0.4842633825    0.0663735842   -2.0257882885
 H    2.7084336622   -0.6456745690   -1.7263943339
 H    2.4744538569   -0.2132842811   -0.0219557191
 H    3.1072779982   -2.7917857401   -0.5252897715
 H    1.5432447610   -3.6019046470    1.1989571630
 H    0.9798930923   -1.9205433132    1.4291912244
 H   -0.6042137091   -3.7884856627   -0.2819832278
 H   -0.7120215125   -2.0928408258   -2.1604405838