17

 O    0.1403674991    1.2854424071    0.3839457802
 C    0.1217905657   -0.0935811465    0.0414147436
 C   -1.2740169926   -0.5784566456   -0.1764582560
 O   -2.0857137685   -0.7947843512    0.9927419517
 C   -1.9680511267   -1.8603522898    0.0401982330
 C   -2.9764024512   -1.5835240650   -1.0852908914
 C   -2.2614059380   -0.2135740012   -1.3178242358
 C   -3.0432132468    1.0576790609   -1.1031903750
 O   -4.2425545573    1.1146507300   -1.0136030984
 H   -0.3369767763    1.3774166480    1.2163917033
 H    0.7028913337   -0.1830998901   -0.8822054478
 H    0.6034944445   -0.7153080528    0.8098432609
 H   -1.5929569687   -2.8082101624    0.4089603383
 H   -2.8782096217   -2.2631232949   -1.9339913240
 H   -4.0193964118   -1.5178739238   -0.7732644545
 H   -1.7435809894   -0.1552156336   -2.2824707474
 H   -2.4089543941    1.9681425309   -1.0178887906