15

 N   -0.1514523349    1.3163757382   -0.2747217480
 C   -0.0989884478   -0.0410674714   -0.0769414293
 C   -0.8682941548   -1.0853878064   -0.5100098204
 C   -0.2865093136   -2.2025498436    0.1438820308
 C   -0.7196543018   -3.6453953044    0.0950686789
 C   -0.9689364186   -4.1318703905   -1.2584473398
 C   -1.1860733307   -4.5278262125   -2.3716073790
 N    0.7366949590   -1.8766444185    0.8963538414
 O    0.8563691567   -0.4756196448    0.7550063184
 H    0.7202000323    1.7948886489   -0.0964667520
 H   -0.5878231909    1.6029987309   -1.1376321274
 H   -1.7029671694   -1.0688820889   -1.1889929352
 H    0.0522583401   -4.2488914772    0.5843455102
 H   -1.6329814816   -3.7639156624    0.6936825400
 H   -1.3692088241   -4.8855899275   -3.3543511886