22

 C    0.8105683742    0.7396625882    0.0275090914
 C    0.0802863066   -0.4959537115   -0.5154743339
 C   -1.3106470879   -0.7003598255    0.0930634105
 C   -2.3796839208    0.0080570453   -0.7340784422
 C   -1.8474769829   -1.8804243712    0.8135660240
 C   -0.9904563263   -2.6075832447    1.8669053780
 C    0.3796917098   -2.0260609779    2.1073349882
 C   -0.8351781299   -1.2638793689    2.5450112658
 N   -1.7096335060   -0.5539566683    1.5327623214
 H    1.7493463585    0.9033670032   -0.5105077278
 H    0.1982599276    1.6395526213   -0.0874711621
 H    1.0410566194    0.6357083855    1.0911817928
 H   -0.0716098976   -0.3644432342   -1.5935436151
 H    0.7019515149   -1.3872729585   -0.4268289170
 H   -2.4578828725   -0.4479303893   -1.7270686009
 H   -3.3526319247   -0.0429684674   -0.2409191888
 H   -2.1241253612    1.0649581968   -0.8636721569
 H   -2.8399775828   -2.2638188179    0.5847718118
 H   -1.2973840715   -3.5546512312    2.2907086933
 H    0.8789017803   -2.5012735526    2.9488002377
 H    1.0640577839   -1.7086755324    1.3377186848
 H   -0.9981970810   -0.9742240488    3.5756636050