21

 C   -0.0007389519    1.3965904406    0.0226648988
 O   -0.0319587577   -0.0092562607   -0.0051409354
 C    0.6481711583   -0.5507761728   -1.1183975130
 C    0.5528351978   -2.0763262536   -1.0491270520
 C   -0.9039202453   -2.5475702034   -1.1181780048
 C    1.4163998838   -2.7041156410   -2.1708650822
 O    2.7590394754   -2.2183807808   -2.1600661210
 C    1.3956273206   -4.1693348299   -2.1211888170
 C    1.4246945313   -5.3686672055   -2.0400971244
 H    1.0302607757    1.7822871888    0.0681752459
 H   -0.4890608964    1.8349147587   -0.8625217829
 H   -0.5384388339    1.7194055263    0.9176973569
 H    0.1939687237   -0.1880033535   -2.0591505324
 H    1.7008072253   -0.2352883037   -1.1213593730
 H    0.9824818689   -2.3892830578   -0.0876768573
 H   -1.3495437291   -2.2944161194   -2.0882300320
 H   -0.9794131476   -3.6292058371   -0.9844488111
 H   -1.4897174064   -2.0527881692   -0.3411978059
 H    1.0131743954   -2.3766551032   -3.1385732399
 H    3.2150226992   -2.6497554033   -1.4286083760
 H    1.4436739129   -6.4294855398   -1.9893501712