18

 C   -0.0465290001    1.5663141490    0.0030533524
 C    1.4586645157    1.9797776519    0.0156225187
 C    2.1116010441    0.8305130808    0.7365869871
 O    1.4570224859    0.4021271814    1.9367562142
 C    1.2007992043   -0.3413458296    0.7392629862
 C   -0.0756582755    0.0056806422    0.0201290876
 C    2.3782361683   -1.2652551973    0.4767678807
 N    2.9856493550   -0.7922071955   -0.7955595668
 C    3.2969573658   -0.0832067903    0.4740663958
 H   -0.5331974671    1.9466228771    0.9038343671
 H   -0.5795828113    1.9786536344   -0.8576465114
 H    1.8649054167    2.0205215955   -1.0008351046
 H    1.6132669132    2.9576598238    0.4814275411
 H   -0.9840940404   -0.3841680370    0.4890558456
 H   -0.0171212540   -0.4009406030   -0.9953070476
 H    2.5577916317   -2.2668131386    0.8471336325
 H    3.7755033941   -1.4065790884   -1.0018930531
 H    4.3126641537   -0.0089536964    0.8419731145