15

 C   -0.0325769993    1.4807264475    0.0215039848
 N   -0.0107143275    0.0222857570    0.0524815058
 C   -0.0264321946   -0.7632387712   -1.0596041571
 C    0.0019778986   -2.0984878749   -0.6897365073
 C    0.0367607322   -2.1377205207    0.7134211789
 C    0.0281571727   -0.8223928958    1.1452850934
 N    0.0544896838   -0.3691957872    2.4913601180
 O    0.0881366835   -1.2286402378    3.3681309769
 O    0.0423610254    0.8474572717    2.7030777955
 H    0.8568534697    1.8915823706    0.4999773358
 H   -0.0633118054    1.7859763406   -1.0258125469
 H   -0.9083320595    1.8660214011    0.5443669533
 H   -0.0569110190   -0.3095630765   -2.0380874728
 H   -0.0022806367   -2.9395399044   -1.3645791290
 H    0.0650969261   -2.9948842700    1.3648306907