19

 O   -0.1391004953    1.2680835529   -0.2411030426
 C   -0.1699449498   -0.1018026741   -0.0044089547
 C   -0.4230274220   -0.5997711356    1.4189804557
 C   -0.5613705429    0.3914294283    2.4400016888
 C   -0.6290996180    1.2744961132    3.2570893446
 C   -1.4831395920   -0.7603642025    0.3137393351
 C   -2.7538979824    0.0213885633    0.3281114519
 C   -3.8542409869   -0.3270401840   -0.6449885456
 C   -4.0300791861   -0.6108149369    0.8260472412
 H    0.0970995649    1.7117504223    0.5840747061
 H    0.5583067600   -0.6573393054   -0.5921001407
 H    0.0998055447   -1.5027408356    1.7193331865
 H   -0.7187651070    2.0230009371    4.0050104995
 H   -1.5871634849   -1.7862172768   -0.0318663100
 H   -2.6224038194    1.0759261919    0.5385591950
 H   -4.4192013230    0.4847793353   -1.0892326483
 H   -3.6970711326   -1.1709196279   -1.3090057209
 H   -3.9903991560   -1.6455980868    1.1503622019
 H   -4.7181093713    0.0047290013    1.3947447665