21

 C    0.2140507327    1.5014499256   -0.4420482533
 C   -0.1367184034    0.0922062879    0.0345755005
 C    0.5401401327   -1.0181147387   -0.8511200650
 C    1.6864866130   -1.1004207949    0.1904764242
 C    0.7734114709   -0.3694461404    1.2100425723
 N   -1.5595211616    0.0012613927    0.3616630396
 C   -2.5305537790    0.3436585843   -0.6646955261
 C   -2.5051911286   -0.4867469120   -1.8918399393
 N   -2.4754137122   -1.1590313461   -2.8320834688
 H    1.2979762212    1.6117831446   -0.5342131579
 H   -0.2120028835    1.7201166377   -1.4268429890
 H   -0.1470258513    2.2493407056    0.2713648216
 H   -0.0608921773   -1.9314288929   -0.8697497316
 H    0.7976682555   -0.7568900052   -1.8801561205
 H    2.0363933174   -2.0966561403    0.4672363587
 H    2.5548768791   -0.5016514838   -0.0955072123
 H    1.2094090654    0.4137872711    1.8357535753
 H    0.2464828867   -1.0751392166    1.8605789545
 H   -1.7631944768   -0.9248017423    0.7227278016
 H   -3.5346309904    0.2655185264   -0.2341276731
 H   -2.4039849907    1.3888768973   -0.9616602513