17

 C    0.0468533458    1.4947365437   -0.0903181924
 C    0.0506425512   -0.0184543851    0.0195708598
 O    0.6252435421   -0.5328589246   -1.1918019595
 C    0.7196816083   -1.8760961370   -1.2893272851
 N    0.3235288199   -2.6485893549   -0.3643322985
 C    0.4378012923   -4.0848139973   -0.4974325531
 C    1.3108872515   -2.2589609504   -2.5461761444
 C    1.8010691095   -2.6141303014   -3.5850967145
 H    1.0634470632    1.8801535496   -0.2086936701
 H   -0.5466445313    1.8223632943   -0.9484834812
 H   -0.3849506029    1.9310304117    0.8153570495
 H    0.6405665555   -0.3681812519    0.8736235882
 H   -0.9592405119   -0.4254236882    0.1390702611
 H    0.8845610528   -4.4206346899   -1.4419168951
 H    1.0390958945   -4.4750205685    0.3320609542
 H   -0.5576998605   -4.5339986042   -0.4022236115
 H    2.2352303899   -2.9176347358   -4.5061664775