21

 C   -0.2324230303    1.5868271713    0.1446017731
 C    0.0494640681    0.1183388113   -0.0530079089
 C   -0.0075416606   -0.5264747870   -1.2273656066
 C   -0.3631169758    0.1079383150   -2.5487342168
 C    0.2744542103   -2.0093983913   -1.3637407481
 C    0.8990287814   -2.6721444389   -0.1639309695
 O    2.1304128997   -2.1105789868    0.3042399505
 C    0.9613189108   -1.9677521707    1.1188922058
 C    0.4012666197   -0.5754109316    1.2477830265
 H    0.6632643357    2.1027868864    0.5152175892
 H   -0.5604111934    2.1004607454   -0.7587096540
 H   -1.0075247244    1.7313599756    0.9089222665
 H   -0.6436352223    1.1582720243   -2.4746772415
 H    0.4806654708    0.0364824400   -3.2478407364
 H   -1.1982398100   -0.4264154407   -3.0208481121
 H   -0.6628050011   -2.5372438035   -1.5999460374
 H    0.9222594391   -2.1757288495   -2.2371806611
 H    0.8824889510   -3.7627482911   -0.1665609929
 H    0.9896301041   -2.5510756315    2.0401027294
 H    1.1186168780    0.0443474159    1.8059304871
 H   -0.4933851709   -0.6218468825    1.8883410772