16

 N    0.0741390171    1.2287192941    0.1963711971
 C    0.0502647813   -0.0311462180    0.1959372648
 O    1.1314026594   -0.8371059107    0.4369125320
 C    0.8491248627   -2.2075102040    0.1152468215
 C   -0.6725044785   -2.3421110925    0.1336249444
 C   -1.3523872421   -2.4401282847    1.5357592556
 C   -2.0260193690   -1.0875803818    1.2537889965
 O   -2.9227032279   -0.4836896633    1.7544933422
 C   -1.1858867681   -0.8792019115   -0.0329639550
 H    1.0200216928    1.5738347311    0.3672515791
 H    1.2640028023   -2.4319663933   -0.8748914656
 H    1.3535677220   -2.8339848644    0.8563022719
 H   -1.0440241242   -3.0685723369   -0.5878196962
 H   -2.0411544578   -3.2723380723    1.6999416521
 H   -0.6517168917   -2.3966524352    2.3767907861
 H   -1.7382324283   -0.5609934166   -0.9167940667