21

 C    0.0109695964    1.4774555567    0.0059004059
 C    0.0342581884    0.0245843911   -0.0047980880
 C    0.0362742726   -1.1828593462   -0.0124945916
 C   -0.0040902709   -2.6362503209   -0.0218002808
 O   -1.0664953020   -3.2232407341   -0.0238097855
 C    1.3514199306   -3.3633909824   -0.0287144461
 C    1.1102262992   -4.8782614832   -0.0384238186
 C    2.1345827497   -2.9364150345   -1.2888526969
 C    2.1384128346   -2.9531937853    1.2346161020
 H    1.0148082067    1.8986788331   -0.1104635355
 H   -0.6160350613    1.8623379169   -0.8056202918
 H   -0.4048138651    1.8497457407    0.9486448634
 H    0.5407066801   -5.1821114798   -0.9203205862
 H    2.0678856598   -5.4088127044   -0.0433499844
 H    0.5432852924   -5.1938009792    0.8410232292
 H    2.2968673006   -1.8553167695   -1.3123920738
 H    3.1127563121   -3.4283409552   -1.3018223527
 H    1.6018459413   -3.2215773049   -2.2018464566
 H    1.6085822927   -3.2508014270    2.1453296440
 H    3.1167371895   -3.4449798799    1.2379249347
 H    2.3004489725   -1.8724628420    1.2721752191