21

 C   -0.3294557928    1.5048688774    0.0901711832
 C    0.0426977472    0.0440732753    0.0275424439
 C   -0.0237270956   -0.6399094456   -1.1186778138
 C    0.2206256538   -2.1098062040   -1.3726270676
 C    1.4078385601   -2.7667807772   -0.6489568789
 O    2.6422682393   -2.1958810411   -1.0464211142
 C    1.2997899478   -2.7324708308    0.8780226868
 O    1.5476857888   -1.4280437239    1.3764671179
 C    0.4384035651   -0.5468861918    1.3708011565
 H    0.5234543160    2.1199658956    0.4053888310
 H   -0.6807060196    1.8746433801   -0.8760983825
 H   -1.1251218169    1.6797288744    0.8269263542
 H   -0.3383583760   -0.0820012564   -1.9991542088
 H   -0.6922610567   -2.6778806637   -1.1328482694
 H    0.3851099096   -2.2504682497   -2.4457993356
 H    1.4414750092   -3.8189765135   -0.9602401897
 H    2.7420599709   -1.3981793906   -0.5108869903
 H    0.3206020479   -3.1032767801    1.2189652110
 H    2.0810605186   -3.3674757451    1.3074053369
 H    0.7206018881    0.2662790708    2.0479736999
 H   -0.4351254649   -1.0480983201    1.8247142895