11

 O   -0.0188365015   -0.0244460733    0.0026386222
 C   -0.0458985730    1.1723004453    0.0095687076
 N   -1.1081066128    2.0436912440    0.0292593513
 C   -0.6574898256    3.3741377565    0.0304714305
 C    0.6887405792    3.2925183003    0.0111803620
 O    1.0864512497    1.9855771724   -0.0015595082
 C   -1.5152843739    4.4870753478    0.0486899692
 C   -2.2738171474    5.4220597855    0.0645132757
 H   -2.0656580599    1.7395609913    0.0409466684
 H    1.4541246987    4.0479098305    0.0047189766
 H   -2.9325544335    6.2552243896    0.0783729049