15

 O    0.1527299819    1.1661468872   -0.5071327293
 C    0.0343656338   -0.0023458126    0.2912843927
 C   -1.3459222877   -0.6220225922    0.2044183326
 C   -1.8925786457   -1.1593948132   -1.0877248454
 O   -0.9281852953   -1.4971982579   -2.0850687592
 C   -0.2095143856   -2.5242476949   -1.5492862730
 N   -0.5198524089   -2.9532385261   -0.3942552840
 C   -1.6109050468   -2.1193960050    0.0577044311
 H    0.0322198858    0.8933019564   -1.4230910232
 H    0.8057480827   -0.7411174073    0.0393382447
 H    0.2235325166    0.3166875503    1.3205084532
 H   -2.1081204214   -0.1157811692    0.7906099936
 H   -2.8477338976   -0.8734978783   -1.5082096369
 H    0.5884869587   -2.8964390830   -2.1798078310
 H   -2.3594516806   -2.5978489041    0.6768195341