20

 C   -0.6468579358    1.3338855040   -0.1684340217
 C   -0.0360937072   -0.0566637631   -0.0623387675
 C    1.3028481174   -0.3585637270   -0.7910261953
 O    2.0667787690    0.8337505300   -0.9032766039
 C    1.7146458375   -1.2502712575    0.4121017986
 C    0.6053708684   -0.5743212652    1.2687640525
 C    1.1334367436    0.4972424689    2.2081881822
 O    1.8477492326   -0.1670583082    3.2464629666
 H    0.0771442957    2.1136625101    0.0766890114
 H   -0.9985514773    1.5230030749   -1.1884105652
 H   -1.5068706332    1.4352527278    0.5024656760
 H   -0.7699440513   -0.7997267395   -0.3937707390
 H    1.2220141582   -0.8531985146   -1.7690671592
 H    2.9696770440    0.5835415053   -1.1239973525
 H    1.5210369745   -2.3106289026    0.2285716397
 H    2.7404972644   -1.1353622828    0.7722052322
 H   -0.0188561432   -1.2604389664    1.8485782543
 H    1.7859331570    1.1877493436    1.6562452220
 H    0.2947474281    1.0821235979    2.6192029242
 H    2.2409964277    0.5033873845    3.8123403345