20

 C   -0.0905138139    1.5130678310    0.1239666297
 C    0.0232597560    0.0019585842    0.0326959421
 C   -1.3137545075   -0.7316759492   -0.1736497721
 N   -1.3016793107   -1.9942767068    0.5884923857
 C   -0.2525688951   -2.9295166848    0.1651216912
 C   -0.0215489696   -2.0471706196    1.3413854564
 C    0.7818820654   -0.7706344498    1.1511779935
 C    1.9320404196   -0.8204428530    0.1287328850
 O    1.0558809472   -0.3810481693   -0.9323260984
 H    0.8887228092    1.9676623125    0.2999076745
 H   -0.4866997798    1.9201042453   -0.8123612698
 H   -0.7625441787    1.8067393371    0.9368784467
 H   -2.1366620127   -0.1196734223    0.2116853500
 H   -1.4980028712   -0.9159889399   -1.2369096370
 H   -0.4913272137   -3.9784772931    0.3205523832
 H    0.2818874371   -2.7118436065   -0.7552200162
 H   -0.0776725572   -2.4681139642    2.3410872369
 H    0.9747820104   -0.2555827317    2.0934308449
 H    2.7324094932   -0.0925752827    0.3151807289
 H    2.3749151217   -1.8008026173   -0.0740391852