15

 O    0.8187710657    1.1917167615    1.3131813301
 C    0.5293649798    1.7297879769    0.2782288808
 C    1.2076444340    1.4316771943   -1.0562663323
 N    1.2923131070    2.6260814243   -1.8744855414
 C    2.2763207292    3.5540617020   -1.5323915525
 C    3.0441283026    3.6434026677   -0.4069792075
 O    3.8269351536    4.7433328421   -0.4709496267
 N    3.5955968537    5.3983581434   -1.6624745963
 C    2.6773379937    4.6999497406   -2.2818171163
 H   -0.2803730778    2.4896152780    0.2048707054
 H    2.1774929442    0.9497444402   -0.8583861289
 H    0.5698539612    0.7039840756   -1.5733504495
 H    1.2474148019    2.4435028050   -2.8661331359
 H    3.1335368436    3.0475771363    0.4861000297
 H    2.3225583677    5.0265576519   -3.2494870588