15

 O    0.1907466892    1.4273739887   -0.1086740454
 C    0.0961865040    0.0117614082   -0.0943955321
 C   -1.3086883828   -0.4267264213    0.0272587277
 C   -2.4484535813   -0.7764670267    0.1718808123
 C    0.6866554522   -0.5128323043   -1.3313409764
 C    1.1901032352   -0.9810617593   -2.3150838099
 C    0.8909591444   -0.5424639742    1.1115568299
 C    2.1117968644    0.1274116349    1.5555759181
 O    0.8622667562    0.3050979183    2.2543578100
 H    0.0458394920    1.6966183372    0.8114841700
 H   -3.4604158248   -1.0802669901    0.2827619306
 H    1.6250350959   -1.3837847052   -3.1967005914
 H    0.7420711648   -1.6020609321    1.3067477961
 H    2.8640501869   -0.4376225677    2.1007329414
 H    2.4601141435    1.0020123737    1.0137220191