16

 O    0.0646655700    1.2126215351   -0.4957373801
 C    0.0090406863   -0.1746609670   -0.1999501280
 C   -1.4137480674   -0.4953807603    0.2212473127
 C   -2.4380377046   -0.3899349379   -0.9573661538
 C   -2.2618270839   -1.9030640607   -1.1133871279
 O   -2.2396220719   -2.6688448620   -2.0371938589
 C   -1.6968268140   -2.0410152846    0.3019211264
 O   -0.6534107318   -2.9519644589    0.4959237965
 H    0.9650197469    1.4283975420   -0.7558632878
 H    0.2856536498   -0.7811995756   -1.0783161730
 H    0.7003250627   -0.4487939172    0.6094490922
 H   -1.6755638703    0.0681191410    1.1177863791
 H   -3.4446215012   -0.1169079597   -0.6285263690
 H   -2.1565651658    0.2276495189   -1.8115405945
 H   -2.5040960106   -2.2195781969    1.0268568334
 H   -0.5714440540   -3.4580304862   -0.3228223874