15

 N   -0.0218864756    1.3531501057    0.1333339795
 C    0.0018121751    0.1175362116   -0.0670089469
 C   -0.9879787176   -0.8563808444   -0.6943408383
 C    0.0411804247   -1.9824145029   -0.4066293254
 N    0.9272659136   -0.9582476686    0.1799959285
 C    2.1594602713   -1.2009032409    0.7136813100
 O    2.6444244210   -2.3182175619    0.7502170903
 C    2.9830361859   -0.0488237013    1.2934967424
 O    2.6707110376    1.1112433776    1.3453327232
 H    0.8324348710    1.6794308240    0.5868026316
 H   -1.9330646893   -0.9361262506   -0.1554043152
 H   -1.1896030641   -0.6645049445   -1.7491377918
 H   -0.2630067852   -2.7406674388    0.3180976721
 H    0.4808685993   -2.4693190618   -1.2797086696
 H    3.9481598724   -0.4314102132    1.6784804298