19

 O   -0.3355550339    1.3827131026   -0.0081449311
 C   -0.0781046004    0.0158470134   -0.0561449993
 C   -0.1914929254   -0.8325923430    1.1965656331
 C   -1.2461983111   -0.9265901096    0.1318802443
 O   -2.4693349093   -0.2733215033    0.4283178242
 C   -3.3762261818   -0.6057944138   -0.6277459613
 C   -3.0600294929   -2.0696664361   -0.9407628751
 C   -1.5220563568   -2.1340270076   -0.7727220743
 O   -0.8056984392   -2.0974052534   -1.9972806990
 H   -1.2682683214    1.4664890945    0.2384064064
 H    0.6939688311   -0.2357421935   -0.7762627780
 H    0.4838300060   -1.6735783615    1.3194254456
 H   -0.4699422702   -0.3195772575    2.1115586174
 H   -4.3896299082   -0.4268895911   -0.2627601585
 H   -3.2016622675    0.0394851156   -1.5033915646
 H   -3.5449544700   -2.7162644935   -0.2034935734
 H   -3.3600381233   -2.3905906687   -1.9401495912
 H   -1.2146889750   -3.0707092604   -0.3016491510
 H   -0.8903554807   -1.2111308131   -2.3661367542