17

 C   -0.1658410941    1.5127105983    0.0079611108
 N   -0.0732733021    0.0750318211    0.1536455629
 C   -1.3378293833   -0.6620045093    0.0713004678
 C   -1.0945606765   -1.8567493665    0.9495685583
 C    0.0347967284   -1.7174330180    1.6369943894
 C    0.7106577563   -0.4101839775    1.2871548205
 C    2.1657153971   -0.6423801688    0.8740840580
 O    3.1171034199   -0.4611497585    1.5867544892
 H    0.8351455020    1.9553076032    0.0025568491
 H   -0.6409664212    1.7597645962   -0.9468960882
 H   -0.7481879102    1.9984675346    0.8132533726
 H   -2.1981091049   -0.0734479229    0.4458005500
 H   -1.5747340598   -0.9308378134   -0.9683574755
 H   -1.7875204233   -2.6859219247    1.0205560072
 H    0.4480335404   -2.4038931410    2.3645936022
 H    0.7218614775    0.2733336639    2.1552952357
 H    2.2588297038   -1.0154004066   -0.1709872600