20

 O   -0.0455941331    0.6325377379   -1.2387121523
 C    0.0002674400    1.3706045868   -0.2772130961
 N    1.0752570562    1.5390475674    0.5379952588
 C    2.3503004852    0.8629383137    0.3331258018
 C    3.4733649893    1.8552317392    0.0594514286
 C    4.1315624793    2.7068797562    1.1999651075
 C    4.8856745734    1.4276371384    1.6673748958
 C    4.9751618550    1.4252284440    0.1115878616
 C    5.3136627030    2.9415406601    0.2157650197
 H   -0.8564349784    1.9968279356    0.0436234013
 H    0.9947742138    2.1982167586    1.2959377686
 H    2.5651415322    0.2203292706    1.1929986085
 H    2.2049237777    0.2131276235   -0.5336614070
 H    3.2134491519    2.4444724696   -0.8274502816
 H    3.6490566199    3.4569021491    1.8306229364
 H    5.8250873304    1.5945923489    2.2011654021
 H    4.3085846238    0.6369563031    2.1488628125
 H    5.4655291173    0.6835698992   -0.5207746470
 H    5.1069806438    3.5537613936   -0.6662496390
 H    6.2771978891    3.1936670844    0.6659849497