18

 C   -0.0034880305    1.4946511343    0.0620106988
 C   -0.0373480492    0.0010305260   -0.0084004590
 C   -0.0093482434   -0.7714992657   -1.0997450974
 C   -0.0368217499   -2.2514619239   -0.7989343635
 C    0.0575727271   -2.3093487476    0.7397596432
 N    1.4102927917   -2.3457386258    1.3108738120
 C    1.4114336536   -1.0605539208    1.7984721468
 O    2.2314834831   -0.4013702384    2.3777494164
 C   -0.0304352595   -0.8331184496    1.2478895807
 H    0.8650504521    1.8312960464    0.6406410494
 H    0.0451805178    1.9438439107   -0.9333321148
 H   -0.8918477223    1.8876733282    0.5725753518
 H    0.0358694610   -0.3886206164   -2.1143273453
 H   -0.9599114278   -2.7249069754   -1.1585288868
 H    0.7917756222   -2.7960505966   -1.2706922377
 H   -0.6181816128   -3.0359019849    1.1971793596
 H    2.1568948740   -3.0204456231    1.2232765172
 H   -0.7787111874   -0.5666974475    1.9979648486