13

 C    0.0085176684   -1.1723819599   -0.0051423312
 C    0.0248725751    0.0276063894    0.0022460606
 C    0.0025969100    1.4781334349    0.0116582787
 O    1.3634854737    1.9640727324   -0.0008030830
 C    1.4857164726    3.2886637933    0.0061297384
 N    0.4968887135    4.1434939284    0.0228015397
 O    1.1016061102    5.3817830469    0.0236791114
 N    2.4616193108    5.2733894571    0.0074596558
 C    2.7229469084    3.9993547643   -0.0035368304
 H   -0.0037310192   -2.2346549981   -0.0117079810
 H   -0.5260352979    1.8755284505   -0.8630552258
 H   -0.5058801736    1.8643759749    0.9031550455
 H    3.7318655679    3.6200440360   -0.0174492988