18

 O    0.1697600664    1.3558044073    0.2001593328
 C    0.0650399266   -0.0270282566   -0.1084758867
 C   -1.3604454763   -0.4999887321   -0.0982408190
 C   -2.0455367207   -0.9809529988    1.1474045554
 C   -1.9039071534   -1.9507459586   -0.0077906821
 C   -2.9545180185   -1.6355780435   -1.0877953069
 C   -2.4111024908   -0.1732090817   -1.1698499053
 C   -1.1824081485   -3.1739849295    0.1152122414
 N   -0.5961266901   -4.1694358758    0.1987028763
 H   -0.1659184969    1.4823350315    1.0939523802
 H    0.4922944811   -0.1349563192   -1.1109164956
 H    0.6678030110   -0.6475536305    0.5728098782
 H   -1.3980474295   -1.1864747405    1.9941082974
 H   -3.0395595669   -0.6279600424    1.4119550677
 H   -2.7893224421   -2.1965452106   -2.0082966186
 H   -3.9933976750   -1.7671466436   -0.7730891487
 H   -3.1100010349    0.6279830993   -0.9156214471
 H   -1.9631556817    0.0487979051   -2.1403721994