24

 C   -2.1404971890    0.2451620264    1.8824921239
 C   -1.1558480682   -0.5705874957    1.0286750642
 C   -0.9844818466    0.0592185393   -0.3632813070
 C    0.1830285828   -0.7865901760    1.7425383050
 C    0.9885316122    0.4678544184    2.0436638391
 C    0.2525956244   -1.8947236909    2.7728263015
 C    0.9946870956   -2.0406046659    1.4631023775
 C    0.6205542242   -3.1120738037    0.4606329431
 H   -1.7999667805    1.2774385551    2.0164763846
 H   -3.1243472911    0.2870314532    1.4034411426
 H   -2.2661392553   -0.1980255853    2.8754883005
 H   -1.6087496777   -1.5587057952    0.8850157000
 H   -0.5970677610    1.0814948855   -0.2968258708
 H   -0.2930591379   -0.5209450837   -0.9821032385
 H   -1.9452293693    0.1094224444   -0.8866500479
 H    0.4350399448    1.1642873428    2.6829064825
 H    1.9156323856    0.2143252798    2.5672129945
 H    1.2663584223    1.0035124328    1.1293611483
 H    0.8174184529   -1.7297644726    3.6850031122
 H   -0.6337253387   -2.5084956833    2.9095387176
 H    2.0699707808   -1.8870678969    1.5304392593
 H   -0.4563576739   -3.2981140530    0.4302085838
 H    0.9411589272   -2.8476814499   -0.5535562452
 H    1.1034290065   -4.0611166655    0.7203526589