15

 N   -0.4666042540   -1.2249532922    0.0108271663
 C   -0.2846407119   -0.0829729738   -0.0106978190
 C   -0.0282019211    1.3194594238   -0.0290563328
 C   -0.5094643660    2.4376056365    0.8210729945
 C    0.9690720351    2.7861511062    1.2825064424
 C    1.3375738843    2.0724698421   -0.0277989200
 C    1.3721227715    2.8758024413   -1.1081633976
 C   -0.0230568001    2.9165995649   -1.7140497303
 N   -0.8837119642    2.3182605198   -0.6478520613
 H   -1.3686794233    2.4289345858    1.4828575011
 H    1.2690268721    3.8316557122    1.3748779063
 H    1.1615723316    2.2468627600    2.2157138269
 H    2.0210638588    3.7447484687   -1.1651552409
 H   -0.2961274714    3.9595142874   -1.9073814942
 H   -0.2100194514    2.3447538773   -2.6306479013