14

 C   -0.0575468746   -1.0804137019   -0.1380183412
 C   -0.0261439883    0.1170713291   -0.0436001283
 C    0.0269691542    1.5360970547    0.0961034366
 C   -0.6481236935    2.4502008707    1.1611585619
 C   -0.0333008829    3.3350797080    0.0463045680
 C    1.2623587544    2.4844662230    0.0868441925
 O   -0.5848803524    2.4069814678   -0.9641897307
 C   -0.1755263426    4.7537504190   -0.1614076331
 N   -0.2716954585    5.8973326605   -0.2958018609
 H   -0.0888758048   -2.1388241383   -0.2272664804
 H   -1.7366379935    2.4172805498    1.1685755821
 H   -0.1991541709    2.4925837910    2.1549118772
 H    1.8770411905    2.5298243941    0.9874124825
 H    1.8346853528    2.4813396325   -0.8396730962