17

 C    0.0981714042   -1.1634346426    0.0077655739
 C    0.0573139151    0.0371179010   -0.0102700730
 C   -0.0378410867    1.4786529711   -0.0265956533
 C   -1.0124279645    2.1691233280    1.0024061511
 C   -1.4764953967    3.0809220197   -0.1334681339
 C   -0.2806060685    3.5709181265   -0.9354786014
 C    1.1020650507    3.4554684167   -0.3070423878
 O    1.2589919590    2.0713951785    0.0266843502
 C   -0.8142200207    2.1940584260   -1.1758033463
 H    0.1464013330   -2.2241700861    0.0227253206
 H   -1.8011659675    1.4833751326    1.3185822029
 H   -0.5308389862    2.6096065457    1.8809437184
 H   -2.4339279669    3.5835543687   -0.1940373989
 H   -0.4670422529    4.3450846452   -1.6702400344
 H    1.8944042540    3.7335246998   -1.0113478854
 H    1.2096146468    4.0760873085    0.5930385666
 H   -1.1605850423    1.7738963207   -2.1091557794