19

 O    0.0403974450    1.3988069578   -0.0205234923
 C   -0.0041414550   -0.0140768196    0.0286554564
 C   -1.4234178669   -0.4789584729    0.0468967269
 C   -2.5280598895    0.2707801017    0.0238070854
 C   -3.7959396080   -0.5663050584    0.0579547036
 O   -4.7506132281   -0.2225919838   -0.9394494445
 C   -3.2672849554   -2.0046381455   -0.0117583540
 C   -2.4601906876   -2.4089796669   -1.2232846239
 C   -1.7589125916   -1.9413241200    0.0374324583
 H    0.9619037870    1.6708511290    0.0049807751
 H    0.5093797369   -0.4677174075   -0.8383485694
 H    0.5115458044   -0.4036731427    0.9248921712
 H   -2.5513307350    1.3506591515   -0.0406788284
 H   -4.3392698622   -0.4139601166    0.9992856762
 H   -4.3256306673   -0.3454137691   -1.7956362333
 H   -3.8134447677   -2.7828376776    0.5068348153
 H   -2.4354123314   -3.4682316429   -1.4575691444
 H   -2.4196796870   -1.7561590117   -2.0904549895
 H   -1.1642139307   -2.6462626648    0.6087623512