15

 C   -0.5241220188    1.4021722785   -0.1305504006
 C    0.1316947471    0.0395328830   -0.1884543473
 C    1.2940250540   -0.1722446827   -1.1871825779
 C    2.1202848604   -0.5024879010    0.0663091971
 O    1.0205481156   -0.1920409405    0.9463588589
 C    2.5447343954   -1.9493246604    0.2380480754
 O    2.8753935888   -2.6736688951   -0.6645071357
 H    0.2290357934    2.1956895554   -0.1000957253
 H   -1.1587048402    1.5557481348   -1.0103101034
 H   -1.1509447787    1.4880079104    0.7623858950
 H   -0.6299939303   -0.7503270178   -0.2313017231
 H    1.1959491966   -0.9943031976   -1.8965658238
 H    1.6035198946    0.7328315197   -1.7120510476
 H    2.9940066328    0.1377400912    0.2623544927
 H    2.5118943593   -2.2943239077    1.2961665158