21

 C   -0.1235471232    1.6014330506    0.0111798559
 C   -0.0336039576    0.1024766266    0.0082596317
 C   -0.8678353712   -0.7805309106    0.9379047683
 O   -1.6727028654   -1.8530522442    0.5559262944
 C    0.6127652493   -0.8971736747    0.9688900882
 O    1.0057248304   -1.7694521312   -0.1000984743
 C    0.6007049327   -0.7578060438   -1.1027382448
 C   -0.2937908283   -1.3283073961   -2.1953263480
 C    1.8712929327   -0.1451056833   -1.6826207267
 H    0.8284468933    2.0730066911   -0.2552499281
 H   -0.8809983515    1.9519784727   -0.7001202090
 H   -0.4101764141    1.9739921742    0.9998609315
 H   -1.3160576016   -0.2148691587    1.7514321828
 H   -1.0603144620   -2.5449968051    0.2692450009
 H    1.2803239865   -0.8093953143    1.8200804650
 H   -1.2228291238   -1.7255807743   -1.7873680738
 H   -0.5446783504   -0.5422642135   -2.9156688213
 H    0.2327256448   -2.1207140017   -2.7383611102
 H    2.4221699898   -0.9052481789   -2.2447108893
 H    1.6346777288    0.6789645064   -2.3638418956
 H    2.5215100910    0.2341709087   -0.8899859577