12

 C   -0.0042793251    1.5435458844    0.0810127937
 C    0.0157027920    0.0580360241   -0.0123358067
 C   -0.0089033107   -0.8084588347   -1.0922984047
 N    0.0273500536   -2.1035679976   -0.6366019734
 N    0.0726697206   -2.0871749859    0.6536482657
 N    0.0659903289   -0.7877023782    1.0391428216
 C   -0.0627542759   -0.4630477500   -2.4658160326
 N   -0.1069858916   -0.1377516962   -3.5758311331
 H    0.8926651669    1.9252305250    0.5799045136
 H   -0.0450790421    1.9743998647   -0.9210375745
 H   -0.8767561292    1.8976094866    0.6400519062
 H    0.0972891327   -0.5682421021    2.0231708741