16

 O   -0.0681988109    0.2680154550   -1.1547609456
 C   -0.0279011013    1.1365074160   -0.3311883244
 O   -1.2232514171    1.5594718462    0.2129996285
 C   -1.3626382270    2.4327277679    1.2709249132
 N   -0.8831862041    2.3320872712    2.4265450288
 C    0.0216327614    1.2389729930    2.7420587207
 C    1.4696320727    1.7003235639    2.5604729040
 C    1.8702826112    2.0490377710    1.1582380087
 C    1.2425098221    1.8468726824   -0.0028062873
 H   -2.0538561037    3.2328652293    1.0149006183
 H   -0.1326310331    0.9729041645    3.7917108493
 H   -0.1699521483    0.3382319208    2.1425015758
 H    1.6446975698    2.5768478912    3.1973170282
 H    2.1510300816    0.9224344526    2.9330257124
 H    2.8564884178    2.5053208412    1.0861818543
 H    1.7722601588    2.0963038236   -0.9179914349