18

 C   -0.4785035287    1.5330587438    0.0093697100
 C   -0.1787487078    0.0368789921   -0.1334452390
 C    0.7620835189   -0.3614374916   -1.2996551306
 C    0.2444624468    0.1245750550   -2.6721884733
 C    2.1518768090    0.2194360962   -1.0649722685
 O    3.0914511162   -0.4164610634   -0.6598656234
 C    0.8985071337   -1.8854357957   -1.3681942848
 O    0.2252306666   -2.6619052956   -0.7456321396
 H    0.4229189762    2.1237794246    0.2013539403
 H   -0.9634506054    1.9423786411   -0.8818692110
 H   -1.1567338485    1.6950109679    0.8522417531
 H    0.2550953975   -0.3456703509    0.7965283851
 H   -1.1106212719   -0.5199970138   -0.2746232852
 H    0.3217113696    1.2124069582   -2.7581507826
 H    0.8223969335   -0.3135188165   -3.4930978691
 H   -0.8044226843   -0.1548000542   -2.8072192721
 H    2.2503605986    1.3050368488   -1.2935526309
 H    1.6683856300   -2.2364026761   -2.0889971583