18

 O    0.7273820258   -0.8231554651   -1.0938726133
 C    0.1412483634   -0.1022569143   -0.0258934135
 C   -1.3552043101   -0.3459386257    0.0376643690
 C   -2.2703013637    0.4575005030    0.9953594230
 C   -3.0567237631    0.8869278771   -0.2525578623
 C   -2.1455068279    1.5639583888   -1.2031739362
 N   -2.1276429702    0.0909525846   -1.1947551886
 C   -4.4767956035    0.8952917130   -0.3634501357
 C   -5.6787615501    0.9088265810   -0.4153021053
 H    0.1851265214   -0.6613914934   -1.8748764295
 H    0.6107319556   -0.4632388532    0.8965351236
 H    0.3650076772    0.9747914565   -0.0971779486
 H   -1.5223445768   -1.4213506994    0.1374136585
 H   -2.8407996403   -0.1751950135    1.6749588024
 H   -1.8215180642    1.2782359283    1.5628709205
 H   -2.5864504942    1.9632429645   -2.1104669404
 H   -1.3016174611    2.1321837842   -0.8185535097
 H   -6.7390473580    0.9181472835   -0.4736217840