13

 O    0.0294560013    0.0537223564    0.0032875630
 C   -0.0374814638    1.2383020561    0.0105622784
 C   -1.3024727050    2.1262575690    0.0330562884
 N   -0.7082954483    3.4358289354    0.0317897189
 C   -1.0076633834    4.7922175189    0.0429806044
 C    0.2158188796    5.4080208856    0.0292739395
 N    1.2652545632    4.4892430400    0.0093679022
 C    0.6429951441    3.3557688482    0.0122740233
 O    1.0797637027    2.0596633295   -0.0007999149
 H   -1.9155970758    1.9179349337   -0.8495140230
 H   -1.8906834670    1.9083315112    0.9301428817
 H   -2.0166352759    5.1657780070    0.0591348372
 H    0.4177907483    6.4675181991    0.0321710009