21

 C   -0.1062965544    1.3310120962   -0.0156848743
 O    0.1041857392   -0.0826706639   -0.0424269410
 C    0.6884939537   -0.5890504601    1.0472681375
 N    1.0431465466    0.0707552215    2.0841228973
 C    1.6588203433   -0.9151627587    2.9911442757
 C    1.2043271707   -0.7290903716    4.4345870750
 C    1.2929888593   -2.3018910551    2.3874539184
 N    0.9535559658   -1.9492817215    1.0097112547
 C    0.1861488339   -2.8691926183    0.1973621260
 H    0.8459389341    1.8596526329    0.0778788115
 H   -0.5913387018    1.5763569738   -0.9612349923
 H   -0.7432857563    1.6085940616    0.8282316208
 H    2.7502408157   -0.7822172743    2.9493585983
 H    0.1177224736   -0.8396894834    4.5122299668
 H    1.6756071140   -1.4665613043    5.0939431877
 H    1.4688462004    0.2703347317    4.7904695309
 H    2.1112106620   -3.0273215957    2.4285403332
 H    0.4202561080   -2.7429664228    2.9003362737
 H   -0.7650269337   -3.1591064410    0.6743396593
 H   -0.0332980462   -2.4055964982   -0.7648683944
 H    0.7671775220   -3.7797305988    0.0198874351