17

 C   -1.5555288276   -0.3166144887    0.1558650636
 C   -0.0769052064    0.1057139316    0.0718616495
 C    0.7391435383   -0.4135569804    1.2754971366
 C    2.1725532455    0.1498678825    1.2978037132
 O    2.2016101961    1.5660471215    1.3258194718
 C    2.9282985169   -0.4227204635    2.4283125087
 N    3.4912978188   -0.8491457099    3.3427507123
 C    0.5240701575   -0.3554291874   -1.1851339139
 N    1.0092580365   -0.7333077053   -2.1639585176
 H   -2.0030301934    0.0815455762    1.0707637471
 H   -2.1184220787    0.0650611798   -0.6989251329
 H   -1.6510755359   -1.4058801077    0.1695016254
 H   -0.0121055120    1.1997527478    0.0730073880
 H    0.2257248467   -0.1197036151    2.1982681500
 H    0.7791419472   -1.5076865666    1.2616654200
 H    2.6827906936   -0.1324189766    0.3698538565
 H    1.9193481367    1.8616860718    2.1994476218