20

 C   -0.1395003337    1.3757038413    0.0148359773
 O    0.0126327870   -0.0289488524   -0.0059255761
 C    0.6432362977   -0.5608989623   -1.1533478603
 C    2.0743778625   -0.0590943028   -1.3391086416
 C    0.5473699024   -2.0701708402   -1.2449518758
 C   -0.7617925225   -2.4360115393   -1.8576878670
 C   -1.5441767246   -1.1675987457   -2.1487744868
 C   -0.1598480527   -0.5882584978   -2.4876220800
 N    0.3848199270   -2.0320135147   -2.7449168125
 H    0.8164774493    1.9026112064    0.1378114409
 H   -0.6272769035    1.7518713946   -0.8969596758
 H   -0.7763974047    1.6112470898    0.8709695077
 H    2.6593125276   -0.2404301538   -0.4317924481
 H    2.5485589424   -0.5823184291   -2.1728889976
 H    2.1013246008    1.0128991301   -1.5557155793
 H    1.1945540476   -2.7996049449   -0.7704023648
 H   -1.1227410285   -3.4584716787   -1.8459131677
 H   -2.1555096628   -1.2846939900   -3.0469720779
 H   -2.1209550704   -0.6993082681   -1.3476432437
 H   -0.0192666807    0.1749924976   -3.2513384207