20

 C   -0.0531744148    1.5130064659    0.0130071706
 C    0.0833834275    0.0249526305   -0.0233762125
 N   -0.8880148493   -0.8766812673    0.6686779456
 C    0.5787509219   -0.9515833853    0.9646062430
 C    1.3022691570   -1.7773100686   -0.1343052578
 C    2.7062389607   -2.2675525105    0.0731426290
 C    0.3810400857   -2.2365816662   -1.2377866376
 O   -0.8725140370   -2.8133279277   -1.1379830150
 C    0.7433138923   -0.7673751812   -1.1848897653
 H    0.8922235551    1.9969882357   -0.2544605329
 H   -0.8159774751    1.8577424829   -0.6952396645
 H   -0.3366426546    1.8586767863    1.0133508590
 H   -1.3202069641   -0.3396694253    1.4201809454
 H    0.9389212181   -0.8107118395    1.9767407922
 H    2.7335214762   -3.1006503319    0.7868598034
 H    3.1379546374   -2.6235611104   -0.8675703882
 H    3.3613245779   -1.4774819947    0.4614762121
 H    0.9475822760   -2.7392905287   -2.0216994432
 H   -1.3205130722   -2.3003685680   -0.4414114962
 H    1.2775073814   -0.2633096661   -1.9832833671