18

 C   -0.1332646933   -1.2185484570    0.0208718980
 C   -0.0634464128   -0.0170435664    0.0248650264
 C    0.0094419804    1.4140989100    0.0219401817
 C    0.5104540083    2.1583987710    1.2536092557
 C    1.3581942541    2.1348043408    0.0148373368
 C    2.6419851294    1.3736142432   -0.0329880343
 C    3.4939230146    1.3987973607   -1.2775180066
 C    3.9588443630    2.1120333273   -0.0318492067
 H   -0.1979962230   -2.2780442495    0.0175080738
 H   -0.7844788878    1.9031891261   -0.5351998814
 H   -0.0014141196    3.0740617193    1.5280640025
 H    0.8286381481    1.5481831660    2.0915399256
 H    1.3637156073    3.0507304321   -0.5716895031
 H    2.6193870724    0.4317851535    0.5065367320
 H    3.9995334728    0.4862507701   -1.5725775189
 H    3.1541045182    2.0052860938   -2.1108528764
 H    3.9315252932    3.1969757900   -0.0290794832
 H    4.7850448246    1.6899538689    0.5296608783