16

 C   -0.0546297043    1.5357859473    0.0739494667
 C   -0.0117853876    0.0422265251    0.0106430607
 C    0.0019125581   -0.7828501383   -1.0941469152
 O    0.0256033361   -2.0884650369   -0.7089064869
 C    0.0380691273   -2.1015313714    0.6440675944
 C    0.0130396400   -0.8278601145    1.1471566749
 N   -0.0706946267   -0.4116406056    2.4807669800
 C   -0.0079954215   -0.4848904003   -2.5136237035
 O    0.0060024450   -1.3044737090   -3.4070396938
 H    0.8628813471    1.9438864064    0.5173526154
 H   -0.1686453197    1.9875112988   -0.9129137224
 H   -0.8896731474    1.8710258182    0.6997014762
 H    0.0535915674   -3.0733063788    1.1105857028
 H    0.1732849740   -1.1361904558    3.1429086360
 H    0.4782989385    0.4167539308    2.6722284100
 H   -0.0297884862    0.6055699040   -2.7292143853