23

 C   -0.0331698012    1.5428728745    0.1150170319
 C   -0.0990526049    0.0140443723    0.1198894314
 C   -1.4269913662   -0.5307547637   -0.4258639363
 C   -1.4798664961   -2.0376776854   -0.4125215705
 O   -1.6435456529   -2.6647444986    0.8766189332
 C   -2.6798346480   -2.8111132410   -0.0771331986
 C   -4.1257226719   -2.3360458914    0.1012299710
 C   -4.5560475273   -3.5036767286   -0.8382401160
 C   -3.1483618694   -4.1484484857   -0.6580103540
 H    0.9211843384    1.9018971882    0.5125056699
 H   -0.1428521640    1.9424529073   -0.8995967796
 H   -0.8323302508    1.9754481508    0.7273496742
 H    0.7299443597   -0.3928259554   -0.4741118391
 H    0.0394810845   -0.3643565194    1.1392900304
 H   -2.2588271374   -0.1348923442    0.1680942040
 H   -1.5757731149   -0.1809308515   -1.4573063865
 H   -0.7298333564   -2.5310183591   -1.0367721826
 H   -4.4654562605   -2.4824020557    1.1308609857
 H   -4.3709892245   -1.3170808787   -0.2081904963
 H   -5.4121080917   -4.0993907339   -0.5177609592
 H   -4.7286336886   -3.1664806640   -1.8629061194
 H   -2.6376008338   -4.5218595431   -1.5490914601
 H   -3.1448348121   -4.9323872936    0.1053904365