21

 C   -0.1344494600    1.6225248718   -0.0309152404
 C   -0.0157522798    0.1067934046    0.0042289143
 C    1.1032008171   -0.6061707715   -0.7936196934
 O    2.3225657035   -0.0831910440   -0.2403638415
 C    2.0984489593   -0.2236591612    1.1958155597
 C    2.4405238728    1.0431637685    1.9643560555
 C    0.6469611063   -0.7282451081    1.1671556666
 C    0.8365394341   -1.8547726097    0.1010148045
 O   -0.3454841806   -2.5820237383   -0.1351584627
 H    0.8397115702    2.1049712066   -0.1305510113
 H   -0.7432679944    1.9272524169   -0.8894380144
 H   -0.6246719007    2.0128786224    0.8677042985
 H   -0.9752621021   -0.3601274450   -0.2198149658
 H    1.1703623902   -0.6281641053   -1.8821453173
 H    2.7617702275   -1.0208150513    1.5616634449
 H    1.7538838867    1.8659436964    1.7672354621
 H    2.4267158577    0.8344405706    3.0396343752
 H    3.4517562278    1.3674569408    1.6991008344
 H    0.1488272560   -0.9168960940    2.1178657677
 H    1.6998436463   -2.5174435696    0.2463273792
 H   -0.2279559979   -3.0845507504   -0.9477680060