16

 C   -0.0316121929    1.3739508794    0.0664246549
 N    0.0368560624   -0.0679945063    0.0275843737
 N   -0.0490394879   -0.7550913033   -1.1017291665
 C   -0.0208698834   -2.0347639382   -0.7181415523
 C   -0.0926536890   -3.1734983741   -1.6800837912
 C    0.0844762643   -2.0546914217    0.6907765256
 N    0.0823249153   -3.1581286580    1.5409185396
 N    0.1209414337   -0.8022776551    1.1437258910
 H    0.7786602114    1.7656193548    0.6858476023
 H    0.0707548971    1.7350213028   -0.9561509355
 H   -0.9883828435    1.7081342515    0.4808756319
 H    0.8302627389   -3.7673979620   -1.6839296725
 H   -0.9144875429   -3.8543426113   -1.4307372433
 H   -0.2517524073   -2.7971178079   -2.6926149757
 H    0.6344317941   -3.9318970907    1.1954975071
 H    0.3690439498   -2.9112982698    2.4793581408