14

 C    0.0074812096    1.3878683245   -0.0373947591
 N   -0.0318991940   -0.0569033047    0.1166363734
 C   -1.2087860154   -0.7283836886    0.0430950358
 N   -2.3789548212   -0.1205120992    0.0295981491
 O   -3.3362978210   -1.1596681090    0.0100173732
 C   -2.7190085446   -2.3296792047   -0.0044522102
 C   -1.3656060463   -2.1645858619    0.0130748685
 C   -0.3369552812   -3.1288874264    0.0036158504
 N    0.5479395319   -3.8770461457   -0.0089675687
 H    1.0266402066    1.7320566039    0.1460946687
 H   -0.3100707191    1.7136268635   -1.0364908736
 H   -0.6580271835    1.8509344362    0.6955005954
 H    0.7887372622   -0.5779895725   -0.1465323737
 H   -3.3409141640   -3.2116473154   -0.0256984894