17

 C   -0.4845972248    1.4802798018   -0.0548336926
 O   -0.0964249010    0.1261811473   -0.2323642540
 C   -1.1429592738   -0.8040889134   -0.0720733546
 C   -0.6052838415   -2.1709358691   -0.5274794181
 N   -0.1742432099   -2.1218282236   -1.9054904257
 C   -0.8372391609   -2.7683269512   -2.9061410037
 O   -1.8047465792   -3.4811972167   -2.7529428912
 C   -1.6052050231   -0.8667511530    1.3318614263
 N   -1.9567936211   -0.9090771885    2.4316273553
 H    0.4022672299    2.0873072672   -0.2442278832
 H   -1.2762359032    1.7634978404   -0.7631704019
 H   -0.8378894916    1.6662681545    0.9674665163
 H   -2.0057329422   -0.5296301855   -0.6994620351
 H    0.2255826894   -2.4537220719    0.1268578043
 H   -1.3891726562   -2.9263603141   -0.4543999076
 H    0.5719258280   -1.4870723982   -2.1410119741
 H   -0.3758926488   -2.5741335460   -3.8937308703