13

 N   -0.5607439380   -0.9869261949   -0.6534907344
 C   -0.2907699108    0.0900391093   -0.3295059614
 C    0.0677336668    1.4309985351    0.0979907573
 C   -0.0494062376    1.7891934347    1.6147178141
 C    1.2710658497    2.5934830878    1.4810586416
 C    1.5814586158    1.8116917245    0.1768841780
 H   -0.4789514449    2.1569799496   -0.5107358418
 H   -0.9524262549    2.3175722965    1.9245479322
 H    0.0735763584    0.8996669339    2.2363568730
 H    1.0840088678    3.6528601758    1.2854642638
 H    1.9912251434    2.5119534875    2.2966232760
 H    2.1965681029    0.9289635594    0.3646529493
 H    1.9937050315    2.3582315208   -0.6728055078