20

 C    0.0073865266    1.4652179396    0.0066176842
 C   -0.0646811980   -0.0420221129   -0.0020989008
 C   -0.8569587152   -0.7839447025    1.0109318569
 N    0.6141985644   -0.7774479207    1.0857382796
 C    1.3257987177   -1.9089498509    0.4890483376
 C    0.6247512509   -3.0503627366   -0.2021179849
 C    1.1699601413   -1.8969491468   -1.0117828484
 C    0.1950516168   -0.7580817251   -1.3410117720
 O   -1.0480521327   -1.1724871934   -1.8998901240
 H    0.9755293291    1.8172657858   -0.3678939284
 H   -0.7773593344    1.8913001833   -0.6286829458
 H   -0.1228969491    1.8513091139    1.0207603966
 H   -1.3448805619   -0.2306545461    1.8100127091
 H   -1.3814255996   -1.6836009547    0.7121577141
 H    2.2813011928   -2.1079692767    0.9615407054
 H    1.1702886053   -3.9870881256   -0.2515082061
 H   -0.4488204650   -3.1725307436   -0.1334871631
 H    2.0080461582   -2.0633892439   -1.6799246048
 H    0.6911300147   -0.0532760007   -2.0241803217
 H   -0.8569803917   -1.6665445122   -2.7037446137