14

 C    0.0209203460    1.5087683164    0.0085428153
 C   -0.0443209322   -0.0163150120    0.0033448260
 N   -1.4231004843   -0.5259476121    0.0134066677
 N   -2.0699860558   -0.5081717201    1.2003746236
 N   -3.2633293059   -0.9282434645    1.2271662583
 C   -3.7676099735   -1.5032281529    0.0300914566
 O   -4.5771165583   -2.3873554050    0.0337472248
 N   -3.2842461761   -0.9190085073   -1.1711336156
 N   -2.0905893366   -0.4990739716   -1.1619254562
 H    1.0657577036    1.8310712196    0.0006861126
 H   -0.4744390872    1.9188388520   -0.8752842043
 H   -0.4589828013    1.9121102698    0.9039189607
 H    0.4237910574   -0.4354311559   -0.8890889677
 H    0.4391973141   -0.4421326465    0.8843181583