23

 C    0.0945170343    1.5306043549   -0.0252524240
 C    0.0169519360    0.0019021933    0.0307423259
 C   -1.4151204932   -0.5475273740    0.0250637091
 C   -2.2288560422   -0.2325384515   -1.2584177873
 C   -3.2537815062   -1.3842328878   -1.4316234487
 C   -3.6497210180   -1.6506250074   -2.8852020635
 C   -2.5708087004   -2.5559578824   -0.7462212385
 O   -1.1965009781   -2.7237660288   -1.1333794842
 C   -1.4903357062   -2.0633641620    0.1101980077
 H    1.1331302515    1.8740638870    0.0063221071
 H   -0.3552748093    1.9226457764   -0.9431583207
 H   -0.4317331676    1.9855642892    0.8218686185
 H    0.5577584667   -0.4320204964   -0.8194228128
 H    0.5300751179   -0.3526773954    0.9344254801
 H   -1.9483252422   -0.1505751995    0.9025303597
 H   -2.7159619736    0.7447603536   -1.2180078270
 H   -1.5520963550   -0.2232563816   -2.1189309365
 H   -4.1580631004   -1.1572745979   -0.8485480848
 H   -2.7726163992   -1.9498972334   -3.4680228887
 H   -4.3935935341   -2.4513012241   -2.9577126290
 H   -4.0771946795   -0.7557606855   -3.3491856691
 H   -3.1113213583   -3.4793318062   -0.5478289225
 H   -1.1530969824   -2.5880289005    1.0019307593