18

 O   -0.0329316586    1.4146665688    0.0990805074
 C   -0.0743349183    0.0155924085    0.0736864871
 C   -0.4429859955   -0.8235791463    1.2621024541
 C   -1.5434670265   -0.1337988379    2.0819718256
 C   -2.4208073896   -0.0984453551    0.8127332910
 C   -3.8839946211   -0.3933065962    0.7506844380
 C   -3.3785404574    0.9791144819    0.3577148172
 C   -1.3406256809   -0.7810342110   -0.0050031660
 H   -0.9355073342    1.7364476226    0.0065731928
 H    0.7479257957   -0.3865300086   -0.5135651244
 H    0.1892683342   -1.6272960542    1.6199708826
 H   -1.9653757597   -0.7745885965    2.8598558713
 H   -1.2648497407    0.8306636094    2.5182651079
 H   -4.2429506661   -1.0474642460   -0.0378096575
 H   -4.4260090089   -0.4856399665    1.6865996171
 H   -3.5813626116    1.8044718096    1.0331814610
 H   -3.4055629117    1.2443490941   -0.6951266862
 H   -1.5192005689   -1.5367445365   -0.7625787390