22

 C   -0.6930957857    1.4841591333    0.5220726497
 C    0.4373980440    0.5930828286   -0.0069569519
 C    1.0034250281   -0.2914207920    1.0857486292
 C    0.4832364309   -1.6860881709    1.3386047868
 C   -0.5317481148   -2.2491353350    0.4914522922
 C   -1.3826540984   -2.7522750931   -0.1959549814
 N    1.8571475473   -1.4446665392    0.8491023990
 C    2.2175282202   -1.8439681175   -0.5114353793
 C    2.7861390658   -3.2608070214   -0.5030190200
 H   -0.3521644784    2.1046186303    1.3582043944
 H   -1.0639587917    2.1534185704   -0.2597861098
 H   -1.5335029264    0.8783901481    0.8750093674
 H    0.0641848911   -0.0128363452   -0.8363276387
 H    1.2455573678    1.2190043206   -0.4070049384
 H    1.2946698052    0.2654082560    1.9782638809
 H    0.4471743964   -2.0432829074    2.3660059563
 H   -2.1371840489   -3.1935628675   -0.7989365392
 H    1.3767083834   -1.7929377400   -1.2170351901
 H    2.9778552578   -1.1343025894   -0.8582387433
 H    3.6338736725   -3.3320697622    0.1840922484
 H    2.0251471337   -3.9790198444   -0.1825945951
 H    3.1207481205   -3.5466956821   -1.5051341771