18

 O    0.0830452461    1.3055154823   -0.3802184739
 C   -0.0628542664   -0.0006209667    0.1386689442
 C   -1.5193882038   -0.4362905320    0.1439847935
 O   -1.9556831721   -0.4123175932   -1.2081824718
 C   -3.3238414181   -0.6652503632   -1.3734059100
 C   -4.3107692665    0.5066286382   -1.1425059595
 O   -4.7820086578    0.4150228914   -2.5028795744
 C   -3.7855604989   -0.5734663279   -2.8352409294
 H   -0.3840137506    1.3072310709   -1.2238755274
 H    0.5266658432   -0.7331823014   -0.4353607119
 H    0.3217998292    0.0124618396    1.1635833191
 H   -1.6287909455   -1.4471606892    0.5688450999
 H   -2.1141832535    0.2621795562    0.7517886565
 H   -3.6095009349   -1.5937613099   -0.8610074611
 H   -5.1178237189    0.3513274389   -0.4176587849
 H   -3.8085626385    1.4616610358   -0.9376090938
 H   -3.0060896233   -0.1788452299   -3.4993122835
 H   -4.2258145298   -1.4734731199   -3.2778664117