17

 C    0.0632604159    1.5230884041   -0.1417851027
 O    1.4804245358    1.4848847950    0.2247263019
 C    1.2191014680    0.2556688538    0.9516602730
 C    1.7073894999   -1.1952878285    0.8348839193
 O    0.4879362219   -1.7908824777    1.4324783171
 C   -0.6835212064   -1.0741599203    0.9276648412
 C    0.0003434845   -0.0037068362    0.0599827791
 C    0.6353886755   -0.7442423560   -1.1086810083
 C    1.6614697882   -1.4625688628   -0.6474558234
 H   -0.5156496059    2.1136100761    0.5800794178
 H   -0.0829348620    1.9055918084   -1.1556214122
 H    1.0065386407    0.4936890567    2.0003473406
 H    2.5470693826   -1.5616122681    1.4214916717
 H   -1.3236358505   -1.7728474702    0.3809336121
 H   -1.2343019281   -0.6571007540    1.7767884151
 H    0.2290241011   -0.7241158716   -2.1128109154
 H    2.2835068688   -2.1692788085   -1.1800619968