21

 C    0.3585674410    1.5391728291   -0.2807478795
 C   -0.0097634057    0.0788867396    0.0244393393
 O   -1.4143682697   -0.0139256921    0.2795523600
 C    0.4438445770   -0.8392287080   -1.0979945268
 C    1.4869439944   -1.5892649127   -0.7554102899
 C    1.9222486283   -1.3360246616    0.6674476169
 C    0.7675120989   -0.4988385942    1.2306730690
 C    0.8863676608    0.2335704258    2.5395368647
 C    0.0183279591   -0.9956873290    2.4401984001
 H    1.4402844222    1.6575462181   -0.3901730589
 H   -0.1066639287    1.8682566223   -1.2187867530
 H    0.0150972494    2.1978155610    0.5226268356
 H   -1.8671110379    0.5436114319   -0.3612148225
 H   -0.0377567461   -0.8196530929   -2.0704041127
 H    2.0011910715   -2.2870048206   -1.4075483566
 H    2.0837683539   -2.2616090734    1.2331327362
 H    2.8782153913   -0.7916948215    0.6906704049
 H    1.8275675085    0.1662653828    3.0763729462
 H    0.3871652637    1.1918654677    2.6408907900
 H   -1.0546108020   -0.8562421307    2.4527062577
 H    0.3690514000   -1.9123966417    2.9035215890