18

 O    0.1433932675    1.1341228383   -0.0712683540
 C    0.0680725227   -0.2838734013   -0.0422049276
 C   -1.4107089674   -0.6462515655    0.0346017728
 C   -1.6679271055   -2.1681461227    0.0405669033
 N   -1.1280863330   -2.8308982364    1.2323695098
 C    0.0426898176   -3.5202625325    1.2133737629
 O    0.7975139685   -3.5808703011    0.2647594609
 C   -3.0958356621   -2.4614660063   -0.0786377256
 C   -4.2758340447   -2.6767153205   -0.1487765835
 H    1.0716645783    1.3819224581   -0.1092410086
 H    0.5150649944   -0.7322000684   -0.9425933209
 H    0.6069984200   -0.6947494727    0.8234870428
 H   -1.8525279053   -0.1958046640    0.9301598976
 H   -1.9259013671   -0.2113736361   -0.8280350723
 H   -1.1304153200   -2.6160864412   -0.8037167720
 H   -1.7145952722   -2.8829248599    2.0505064233
 H    0.2422586659   -4.0219848572    2.1801993934
 H   -5.3155599876   -2.8779350507   -0.2306768224