17

 O   -0.0655234337   -0.0406246305   -0.0635070406
 C   -0.0162244667    1.1574707257    0.0363909945
 C    1.2726253616    1.9567190129    0.0411449563
 C    1.3666465862    2.8790162849    1.2676665117
 C    2.7406335947    3.5517879978    1.2633249351
 N    3.7712564020    2.5375245022    1.1701805095
 C    3.6399462634    1.3114388032    0.5565648188
 O    4.5404189466    0.4925369905    0.5326849681
 N    2.4120604116    1.0806575139   -0.0299489671
 H   -0.9365068793    1.7775321706    0.1093216195
 H    1.2025460932    2.6060525590   -0.8542307046
 H    0.5744121521    3.6327382525    1.2393570523
 H    1.2505804855    2.2865416582    2.1815735112
 H    2.7934690045    4.2694088574    0.4289278518
 H    2.8829112590    4.1221439154    2.1870310069
 H    4.6944424696    2.7181070594    1.5263934832
 H    2.2378071594    0.1222669669   -0.2942363565