16

 O    0.1025182419    0.2511981361    0.5169743031
 C    0.1081209709    1.3989341771    0.1445144159
 N    1.1539131865    1.9983342749   -0.5439417475
 C    2.5391529750    1.8282464807   -0.1720947464
 C    3.3934262713    2.3002571198   -1.3535822432
 C    2.6940010650    3.7019363754   -1.2752745643
 C    1.8679889217    3.1968654642   -0.0741915359
 C    1.4343042755    3.9397784120    1.0566814982
 C    1.0718416932    4.6002917926    1.9949613350
 H   -0.7591993583    2.0770199304    0.2381814703
 H    2.7930116344    1.1403284775    0.6247291409
 H    4.4552535706    2.3555530112   -1.1080550213
 H    3.2596988144    1.7316754569   -2.2758265348
 H    3.3832074025    4.4989053503   -0.9929156385
 H    2.1019839940    4.0123111054   -2.1379097983
 H    0.7551372415    5.1739554454    2.8309503868