20

 C   -0.2346155030    0.8142548906   -0.2371887069
 O   -0.0093985947    0.4384551134    1.1082762901
 C    1.0589521073   -0.4647238654    1.3165208078
 C    0.7108419601   -1.9158511204    1.0122755128
 C    0.9871314903   -2.9778682223    2.0560635058
 N   -0.3670259858   -2.6409754531    1.7051499866
 C   -1.1891512138   -1.9395465325    2.6873297088
 C    0.8787025141   -2.3772791465   -0.4018534691
 O    1.4719777640   -1.7702839828   -1.2590898599
 H   -0.6381982737   -0.0066916496   -0.8439654117
 H   -0.9649686822    1.6271149641   -0.2156175213
 H    0.6879774441    1.1694348608   -0.7166630311
 H    1.9289337764   -0.1927612048    0.7020745742
 H    1.3363599027   -0.3542432837    2.3678287877
 H    1.3377983158   -3.9646616851    1.7620137283
 H    1.3957830154   -2.6092839721    2.9972448629
 H   -0.6253266617   -1.2833188802    3.3645552247
 H   -1.9322610949   -1.3327329886    2.1669167779
 H   -1.7051818809   -2.6930587824    3.2901888265
 H    0.4112359802   -3.3684106294   -0.5928997741