19

 C   -0.1589889952    1.6255301115    0.0181382618
 C   -0.1856815958    0.1274018216   -0.2101386255
 C   -0.2084876727   -0.8215042660    0.9630080887
 C   -1.4284551493   -0.6712422072    0.0858546562
 C    1.2410837800    2.1720119480    0.2140083718
 C    2.0838143199    2.5527735810   -0.9784856600
 C    1.5432756031    3.6224065336   -0.0597905627
 H   -0.6278845111    2.1387522220   -0.8331826613
 H   -0.7766490165    1.8652070523    0.8950979792
 H    0.3963674693   -0.2004392504   -1.0679050854
 H    0.3617150164   -1.7418425821    0.9004103565
 H   -0.2486507128   -0.3935533172    1.9599545675
 H   -2.2832289838   -0.1425094680    0.4957296132
 H   -1.6909393023   -1.4885360412   -0.5769060804
 H    1.7793947121    1.7235299563    1.0453383073
 H    3.1471688572    2.3411823457   -0.9544345811
 H    1.6374169337    2.4619713283   -1.9639508685
 H    0.7355690680    4.2456442793   -0.4304372627
 H    2.2372803554    4.1406899103    0.5927879540