16

 O   -0.1197648279    0.0235813755    0.1807211902
 C    0.0059700852    1.2006344435   -0.0550456304
 C    1.2965818574    1.9179733671   -0.0556632253
 C    1.3111489321    3.4028315072    0.2433383391
 C    1.6211125386    2.9465195915   -1.1472972684
 C    3.0858295203    2.7517313709   -1.4745028792
 O    3.7094405656    3.2985770067   -2.3552988916
 N    3.5738877435    1.8382899292   -0.5741050609
 C    2.5789000837    1.1417713514    0.2260817803
 H   -0.8723509705    1.8419424333   -0.2963681446
 H    0.3491631136    3.8799743236    0.4016216855
 H    2.1160721569    3.7777767116    0.8666671916
 H    0.9473917979    3.1757813902   -1.9625044704
 H    4.5326812466    1.5359344548   -0.6384479018
 H    2.8390077240    1.1507470939    1.2910328112
 H    2.4493584829    0.0977062695   -0.0815166854