16

 C   -0.0369322890    1.5441670106    0.0730255710
 C    1.5110252130    1.5014645789   -0.0057581226
 C    2.1070274209    1.0677290079    1.3561188855
 C    1.7627640524   -0.4346055833    1.3111099590
 O    0.3450242391   -0.5763728160    1.2568504555
 C   -0.0119305076    0.0034491176   -0.0059034812
 C    1.3977294772    0.0836260878   -0.6945270847
 O    2.2097986366   -0.8197707544    0.0216385075
 H   -0.4920490775    1.9822556716    0.9645448217
 H   -0.4862681853    1.9832740928   -0.8231629342
 H    2.0457218537    2.3110789862   -0.5009898696
 H    3.1917049945    1.2010042337    1.3902264915
 H    1.6536363487    1.5787768794    2.2083020226
 H    2.1697878142   -1.0864491416    2.0825368025
 H   -0.8487774315   -0.5532902219   -0.4286724182
 H    1.5013388704   -0.0277984791   -1.7701074964