18

 N    0.0012603559   -1.1390785100    0.0092815502
 C   -0.0103310297    0.0183054520    0.0148719285
 C   -0.0225762135    1.4600326660    0.0149443567
 C   -0.4559998833    2.1782247955   -1.3100711194
 C    0.8814483960    2.9854573257   -1.3112438831
 C    1.3166201845    2.2826104219    0.0072189139
 C    0.9296619541    2.9067570628    1.3656959586
 C   -0.3983339593    3.6067980158    1.3197549194
 C   -0.3790931713    2.1080824765    1.3834367824
 H   -0.5495013708    1.4862734879   -2.1482073721
 H   -1.3785883792    2.7565556438   -1.2321912770
 H    1.5259383713    2.7415890386   -2.1580214061
 H    0.7867788016    4.0721394149   -1.2549066477
 H    2.2691038055    1.7553324702    0.0077930871
 H    1.6308117928    3.0775875535    2.1729351734
 H   -0.6884892167    4.0829366329    2.2510035525
 H   -0.7376842215    4.1422795422    0.4393136438
 H   -0.8431614966    1.5580613898    2.1922211089