22

 C   -0.0707774634    1.5747133795   -0.1797367682
 C    0.0162785693    0.0752388680    0.0763719797
 C    0.9707152443   -0.8185514557   -0.7636489212
 N    1.6146228641   -1.4023997454    0.4656923278
 C    2.2289013451   -0.2477752606    1.1521178089
 C    0.7714260101   -0.4481646401    1.3084539190
 C    0.0799025060   -0.8588675035    2.5818520182
 C    0.9579674823   -1.6059624139    3.5905879683
 O    0.2205327741   -2.0462388566    4.7207018272
 H    0.9164158911    2.0471879846   -0.1741357593
 H   -0.5285906282    1.7772705526   -1.1542653444
 H   -0.6826679076    2.0703279312    0.5820850531
 H   -0.9922735963   -0.3514112248    0.0637065522
 H    0.4679634332   -1.5982935087   -1.3392257480
 H    1.6808206465   -0.2981882288   -1.4169963300
 H    2.8757893608   -0.5391970185    1.9731609583
 H    2.6192171299    0.5724335929    0.5524390097
 H   -0.3447505046    0.0290754051    3.0687838821
 H   -0.7728189679   -1.5030071271    2.3195694858
 H    1.4678359226   -2.4408505343    3.0878403256
 H    1.7298958002   -0.9403580971    3.9895368028
 H   -0.4040795917   -2.7139270988    4.4200539826