15

 O    0.2134020521   -0.0013849187   -0.0075279121
 C    0.1194829255    1.1785161455   -0.1329866857
 O   -1.0019132278    1.9058860892   -0.4368731887
 C   -0.2967075806    3.1806816423   -0.2719373459
 C    1.0255394573    2.4304128605   -0.0147163786
 N    1.7378722808    2.7357796673    1.2013037093
 C    1.2876488536    2.1259515097    2.4546203582
 C    2.5438022100    1.6689987651    1.7979269518
 H   -0.3614060343    3.7812971833   -1.1801683750
 H   -0.6824984278    3.7277623549    0.5900973478
 H    1.7238310265    2.4897044694   -0.8553217579
 H    1.3248933105    2.7789579164    3.3210625453
 H    0.4440569653    1.4397579011    2.4320463261
 H    2.5172792442    0.6892906745    1.3283873133
 H    3.5111670347    1.9802700794    2.1809087821