17

 C   -0.1240937101    1.5742821484    0.0041422728
 C    0.0581319800    0.0641559468    0.0140974613
 C    1.1259722884   -0.5696948764   -0.9338093487
 C    1.7761420522   -1.3068800034    0.2795926953
 C    0.7649296537   -0.5974781595    1.2394240145
 N    1.9093014471    0.1226894660    1.7996765587
 C    2.8547753749   -0.4372200446    0.9575893418
 O    4.0317945656   -0.2431441504    0.8179318227
 H    0.8265289132    2.0901430935    0.1751928818
 H   -0.5128786319    1.9134516418   -0.9617769342
 H   -0.8296598692    1.8970145160    0.7782873313
 H   -0.9096184160   -0.4259999975   -0.1361438444
 H    0.7069319798   -1.2421911086   -1.6843784499
 H    1.7924010942    0.1345489925   -1.4384585683
 H    1.9295273897   -2.3824050773    0.2293375804
 H    0.1494621382   -1.1143037788    1.9774220600
 H    1.9538350001    0.9798282215    2.3338078547