21

 C   -0.0352119211    1.6316072011    0.0023968404
 C    0.0356756950    0.1130420005    0.0121968633
 C    1.0726729798   -0.6380281555   -0.8618327453
 C    2.4803317486   -0.2599141996   -0.3382139962
 C    2.6468249399   -1.5280616044    0.4694896122
 C    2.2144051520   -0.2579156377    1.1676839166
 C    0.7095796193   -0.6437659797    1.1962159077
 C    0.0364718174   -0.8661182607    2.5260916168
 C    1.1362145069   -1.7971729549    0.2018847894
 H    0.9536296765    2.0707041568    0.1719981299
 H   -0.4074362547    2.0072467967   -0.9575037711
 H   -0.7064872078    2.0058391593    0.7837924159
 H   -0.9573568591   -0.3246093733   -0.1595629100
 H    0.9359193139   -0.8017760955   -1.9305335224
 H    3.2409818710    0.3560386083   -0.7995783076
 H    3.5058446397   -2.1677973659    0.6210838299
 H    2.7679036060    0.3600006336    1.8635178023
 H   -0.0779630701    0.0764227445    3.0757788669
 H   -0.9612934097   -1.3013062371    2.4011461244
 H    0.6228119891   -1.5444009322    3.1566864474
 H    0.6226944272   -2.7518595245    0.1129804098