17

 N    0.5721736257    1.1378014107    0.1995625189
 C    0.1862614215   -0.1665421382    0.0647850678
 C   -1.0240664138   -0.7568826321    0.1086846576
 C   -0.8570805614   -2.1919969822   -0.0463042060
 N   -1.7476433664   -3.0925598991   -0.0593268426
 O    0.5043600310   -2.4551845241   -0.1992388058
 C    1.2366801941   -1.2401046884   -0.1181794866
 C    2.0918339987   -1.0614611060   -1.3816964623
 O    2.9050146712    0.1067282947   -1.2933285077
 H    1.4480337432    1.3679137144   -0.2517261364
 H   -0.1480417160    1.8376924205    0.1067766827
 H   -1.9911672131   -0.2923887758    0.2242659982
 H   -1.3227961625   -4.0106754054   -0.1922448814
 H    1.9055962493   -1.2793111543    0.7564875566
 H    2.6923587501   -1.9646514020   -1.5459889278
 H    1.4404257130   -0.9247858576   -2.2494007650
 H    3.6368509555   -0.0821126950   -0.6966771001