18

 C    0.7856658948    0.5976207057   -0.0719215709
 C    0.0348554819   -0.7112772894   -0.3246508505
 C   -1.4290063373   -0.6302690755    0.1681992893
 O   -2.1140075206    0.4271432026   -0.4472915986
 C   -2.1603023203   -1.9376755831   -0.0999124867
 O   -3.1029250230   -1.9734375561   -0.8555065398
 C   -1.6663666927   -3.2455076671    0.5458475293
 C   -1.0626968821   -3.1024134383    1.8652852697
 N   -0.5883916183   -2.9796029552    2.9116589646
 H    1.8025936343    0.5430505788   -0.4708270809
 H    0.2683198068    1.4318589749   -0.5508005320
 H    0.8551108519    0.8087762110    1.0004231903
 H    0.0216489538   -0.9367657004   -1.3983228341
 H    0.5475356365   -1.5375068253    0.1815983980
 H   -1.4147311880   -0.4749120839    1.2594706314
 H   -2.8139339504    0.0193775130   -0.9799494489
 H   -2.5166901797   -3.9314214047    0.5881297145
 H   -0.9302741478   -3.6902907669   -0.1362524347