12

 N   -0.0864753968    1.4960775749    0.0766886464
 C    0.0156901993    0.0473687000    0.0174344728
 C    0.6967866683   -0.5450473760   -1.2621737264
 C    0.0001300579   -0.0964041580   -2.4627582607
 N   -0.5788847829    0.2914851294   -3.3844901014
 C    0.7435082836   -0.4498804832    1.1953879681
 N    1.3442829413   -0.8574487827    2.0933813264
 H    0.8297656453    1.9301027088    0.0191277991
 H   -0.6420371959    1.8347268431   -0.7029739878
 H   -1.0022681834   -0.3568209965    0.0665940886
 H    1.7416496926   -0.2196916860   -1.3051603281
 H    0.6965726007   -1.6395172438   -1.2221265571