25

 C   -0.0367698188    1.5742372782   -0.0928976579
 C    0.0588983829    0.0457598652    0.0020702199
 C    0.6756831579   -0.5310586214   -1.2865441971
 C    0.9487748182   -2.0066482861   -1.2012694939
 C    0.9289605520   -2.6791617579   -0.0519936348
 C    0.6454942069   -2.0339284567    1.2782583635
 C    0.7861512048   -0.4910025216    1.2723960318
 C    2.2820866942   -0.1176151628    1.2842005763
 C    0.1265239474    0.0559721536    2.5506098863
 H    0.9525397957    2.0421323788   -0.1385117117
 H   -0.5722539240    1.8620131006   -1.0042712397
 H   -0.5752737830    2.0086496247    0.7534742067
 H   -0.9689992210   -0.3418726603    0.0628541821
 H    0.0012490508   -0.3276350529   -2.1294431077
 H    1.6049778561    0.0062331662   -1.5324614412
 H    1.1717221927   -2.5248832188   -2.1312563902
 H    1.1173047659   -3.7505587676   -0.0480825182
 H   -0.3701931011   -2.3069544883    1.6039596024
 H    1.3137063921   -2.4536589010    2.0425982464
 H    2.8254958289   -0.5810195375    0.4563355906
 H    2.4306357592    0.9651197532    1.2269745026
 H    2.7482668473   -0.4601509954    2.2147587711
 H    0.5214266916   -0.4574349384    3.4346591447
 H    0.3137778708    1.1256438809    2.6843866479
 H   -0.9586758775   -0.0974224247    2.5351089603