16

 O    0.0873787899    1.3334866985    0.1929031090
 C    0.0588513800   -0.0116086806   -0.0101264942
 C    0.0474693689   -0.8179187841   -1.1131415455
 C    0.0566594129   -0.8165096492   -2.6176183763
 C    0.0245664443   -2.3122291147   -2.9154905475
 C    0.0009283575   -3.0523376583   -1.7905955975
 C    0.0140269000   -2.1705861648   -0.6324103046
 C    0.0061960712   -2.1528138950    0.7380412621
 N    0.0340741228   -0.8117405854    1.1060337529
 H    0.1075700817    1.7647033038   -0.6662287772
 H   -0.8078977473   -0.3056150854   -3.0662818166
 H    0.9488687593   -0.3454740578   -3.0556784560
 H    0.0219690261   -2.6995144273   -3.9268046249
 H   -0.0237647337   -4.1343827519   -1.7512751912
 H   -0.0156712561   -2.9284636011    1.4848198943
 H    0.0358761425   -0.4539033966    2.0452224332