21

 O    0.6855522320   -0.2516033473    1.3315236067
 C    0.0285914033    0.1627633013    0.1424111465
 C   -1.3514178010   -0.4839827033   -0.0212241700
 C   -2.0994032757   -0.0801910702   -1.3292568187
 C   -2.1484034939   -1.3659901655   -2.1698469636
 C   -0.7103249687   -1.8570943118   -2.5347035232
 C   -0.7412239535   -2.7436191196   -1.2877383548
 C   -2.2416779283   -2.5373929627   -1.1469866548
 C   -1.3278282145   -2.0141159318   -0.0805735348
 H    0.8750215782   -1.1907698875    1.2393816463
 H   -0.0787289985    1.2498656180    0.2261671996
 H    0.6532788903   -0.0352173128   -0.7415872568
 H   -1.9401282038   -0.1878887398    0.8549410062
 H   -3.1131728260    0.2624378009   -1.0965376701
 H   -1.5975453638    0.7348515623   -1.8640833753
 H   -2.8634613883   -1.3390927555   -2.9920848675
 H   -0.7195114303   -2.4688926952   -3.4411410729
 H    0.0752030548   -1.0992925003   -2.6323530364
 H   -0.1752670941   -3.6585777277   -1.1509879996
 H   -3.0427587178   -3.2512361365   -1.0096419915
 H   -1.2716600205   -2.5698902151    0.8499893146