27

 C   -0.4263301537    1.5327340255    0.0353137489
 C    0.2232135161    0.1450129144    0.0191653842
 C    0.9354513251   -0.2686259125    1.3270733443
 C   -0.0080907766   -0.2790701833    2.5633554922
 C   -1.1374391752   -1.3178920147    2.4723606804
 C    0.7600246209   -0.4435294017    3.8832717589
 C    1.6734091688   -1.5825724649    1.1112659921
 C    2.9602918611   -1.6059720716    0.3217462334
 C    2.9793984194   -1.8911568111    1.8018008978
 H    0.2930428344    2.3036163693    0.3353924729
 H   -0.7976517258    1.7974407606   -0.9599226427
 H   -1.2755060577    1.5879671128    0.7232592189
 H   -0.5288343538   -0.6090257934   -0.2460513370
 H    0.9673370363    0.1119732364   -0.7851766004
 H    1.6988167991    0.4993441188    1.5290342191
 H   -0.4815513130    0.7105507876    2.5971897971
 H   -0.7452509564   -2.3405901814    2.4805771663
 H   -1.8113906286   -1.2234509282    3.3303262750
 H   -1.7407112953   -1.1978524338    1.5674992271
 H    1.5538439047    0.3051132927    3.9812852529
 H    0.0852499017   -0.3254916909    4.7380978088
 H    1.2221473397   -1.4322939865    3.9596262119
 H    1.0232510171   -2.4379490274    0.9445337200
 H    3.1347618913   -2.4250602584   -0.3672092434
 H    3.3647917082   -0.6549708327   -0.0115863429
 H    3.4004299107   -1.1333361160    2.4538234724
 H    3.1652470617   -2.9079570696    2.1312487618