21

 C    0.0486471382    1.5006029487   -0.2865682516
 C    0.0684768135    0.0199303641    0.1274619899
 C    0.7286488250   -0.1680173745    1.5002095056
 C   -1.3444635066   -0.5555442707    0.1146187432
 O   -2.2275432675    0.0580878874    1.0192168062
 C   -1.9426483746   -1.1126370144   -1.1346370030
 C   -1.5998947367   -2.0555353611    0.0253300867
 C   -0.5070489741   -3.0390659238   -0.1401551501
 O   -0.4727418174   -4.1160023874    0.4036680948
 H    1.0660649112    1.8976246788   -0.3477388506
 H   -0.4255858163    1.6398714312   -1.2641531780
 H   -0.4914293511    2.1080496687    0.4483377172
 H    0.6544087485   -0.5251417461   -0.6226039545
 H    0.1271000356    0.3092808577    2.2791705604
 H    0.8254892340   -1.2276176749    1.7562760409
 H    1.7284657620    0.2766552163    1.5156554267
 H   -2.4906706299    0.9066289196    0.6463679051
 H   -2.9978075738   -0.9480034613   -1.3197258696
 H   -1.3208506469   -1.1781195285   -2.0226714948
 H   -2.4274018474   -2.4045352135    0.6321413380
 H    0.3053883442   -2.7280820662   -0.8376291026