16

 C    0.0633245542    1.3955085648    0.1230097310
 O   -0.0385633663   -0.0326159393    0.2173115588
 C   -1.2618227556   -0.5384448763   -0.0072900790
 O   -2.2428529831    0.1273138286   -0.2312500894
 C   -1.2231179726   -2.0446575523    0.0156035469
 C   -2.5963061791   -2.7610622408    0.0619033425
 N   -2.2852333282   -3.3193624093   -1.2602677470
 C   -1.0828736402   -2.6893907971   -1.4165821303
 O   -0.2695187182   -2.6512985558   -2.2948006090
 H    1.1101179298    1.6296961245    0.3144599940
 H   -0.2300137390    1.7348947156   -0.8731823367
 H   -0.5801639491    1.8760637327    0.8640991574
 H   -0.4655871592   -2.4109372608    0.7080689223
 H   -2.7017333162   -3.5121391490    0.8496179990
 H   -3.4415266491   -2.0698997083    0.0674311553
 H   -2.8309751781   -3.8669336973   -1.9087555157