16

 C   -0.3414935261    1.5112003596    0.1758974308
 C    0.0123726567    0.0530348302   -0.0507025594
 C    0.5834071281   -0.6390536042   -1.2271099485
 C    1.7908790416    0.0246079219   -1.9029761195
 O    1.7972285095    1.4840248659   -2.0069024011
 C    2.4463679024    1.6058145909   -0.7827225184
 O    2.8140900339    2.6052916984   -0.2603401650
 C    2.4719534646    0.0867995091   -0.5476658588
 N    1.3116953606   -0.6349468848    0.1382905877
 H    0.1249383948    2.2120494946   -0.5087400116
 H   -1.4253088381    1.6127892207    0.0602405525
 H   -0.0927921581    1.7980091856    1.2025272696
 H   -0.7232213456   -0.5926596941    0.4306124294
 H    0.1526310707   -1.5569030643   -1.6157517371
 H    2.2003798243   -0.4477802999   -2.7924614429
 H    3.4239093109   -0.3694515594   -0.2871029278