19

 C    0.5546618366    1.3609072389    0.0291309470
 C   -0.1660156987    0.0337554707   -0.0137868049
 O   -0.7822707842   -0.4270376651    0.9214493783
 C   -0.0919537469   -0.7401567770   -1.3057432946
 C    0.7317199032   -2.0471465407   -1.4493049398
 C    0.7046770001   -1.5319894793   -2.9031000174
 C   -0.7704734205   -1.6970695103   -3.3253905841
 C   -1.4137124290   -1.0740413734   -2.0461859867
 O    0.7211401983   -0.1640887167   -2.3793606119
 H    1.6202936319    1.2121652134   -0.1742276393
 H    0.1845715306    2.0133148553   -0.7695222991
 H    0.4117847964    1.8299090231    1.0030857380
 H    1.7196696733   -1.9581018303   -0.9966211109
 H    0.2556778843   -2.9978612706   -1.2008998874
 H    1.4936259244   -1.7378080067   -3.6258474353
 H   -0.9922899740   -1.1254915349   -4.2285453800
 H   -1.0506988455   -2.7403005968   -3.4923802117
 H   -2.0403712176   -1.7610501360   -1.4752515238
 H   -1.9857629627   -0.1685588637   -2.2579684665