18

 C    0.0853061122    1.5701122446   -0.1768365053
 C    0.0431328867    0.0518611391    0.0105144256
 O    0.8357238905   -0.3630944776    1.1081480457
 C   -1.3952248094   -0.4814542017    0.1537281959
 C   -1.4523219879   -2.0203481345    0.2921423620
 O   -2.4333175382   -2.2847677485    1.3042581572
 C   -2.7409954450   -1.1387231862    1.9697089418
 O   -3.5210825214   -1.0773372698    2.8760775154
 N   -1.9945559762   -0.0983701149    1.4258251189
 H    1.1212461875    1.9026635089   -0.2755105876
 H   -0.4666893233    1.8777926863   -1.0714786256
 H   -0.3488237727    2.0849167910    0.6882519710
 H    0.4879505108   -0.4276808039   -0.8710599604
 H    0.3471687779   -0.1214236266    1.9064604358
 H   -1.9976144364   -0.1374694476   -0.6988384721
 H   -1.7596665363   -2.5207436204   -0.6277507593
 H   -0.4856459413   -2.4088686082    0.6242476327
 H   -2.3857184476    0.8215200303    1.5575008184