19

 C   -0.1067081275    1.5265911419   -0.1027957055
 C   -0.0203795783    0.0148087759    0.0326402950
 O    0.6259174807   -0.5268142360   -1.1245007524
 C    1.1663087712   -1.8010321530   -0.7887425986
 C    1.5115109176   -1.7294802091    0.6913281645
 C    2.2946003484   -0.5138286702    1.1790129140
 C    3.1236110417    0.3423310134    0.2879470312
 O    4.1420549661    0.8740118651    0.6664729415
 C    0.7639659604   -0.5442030240    1.2118338325
 H    0.8857035435    1.9835864694   -0.1319490223
 H   -0.6369985808    1.7921185138   -1.0214100530
 H   -0.6558203166    1.9484718432    0.7444495376
 H   -1.0437830815   -0.3947011981    0.1046050997
 H    0.4258749265   -2.6008061455   -0.9495661105
 H    2.0173533336   -1.9842645807   -1.4519626091
 H    1.6094045893   -2.6537310816    1.2482781772
 H    2.7562112947   -0.6324568096    2.1546725536
 H    2.7635387716    0.4610444016   -0.7512092189
 H    0.2943822995   -0.5393922564    2.1885099437