18

 C   -0.3374225091    1.5080107523   -0.1111910430
 C    0.0347165004    0.0459511533    0.0014241959
 O    1.1418782097   -0.3443496736   -0.9386075283
 C    2.0625445200   -0.1505314415    0.1820915814
 C    2.9034080460   -0.9490878458    1.2864751900
 N    1.9913279221   -0.0969304288    2.2302451516
 C    0.9714886013   -0.4657878553    1.1448368578
 C    0.9618531805   -2.0079143045    1.1800603006
 C    2.2521008523   -2.3227112072    1.2909932269
 H    0.4986674402    2.1645001455    0.1402852316
 H   -0.6607176850    1.7319651142   -1.1318790074
 H   -1.1666130971    1.7318382440    0.5681884308
 H   -0.8297338510   -0.6011948596   -0.1814402242
 H    2.4170801259    0.8815115061    0.1651907073
 H    3.9791143426   -0.8348011535    1.4259079485
 H    1.8154881644   -0.6192503638    3.0921398055
 H    0.0813154001   -2.6304119832    1.1038530174
 H    2.7531843566   -3.2785094587    1.3333883176