19

 O    0.4856125615    1.1947477241   -0.5038353697
 C    0.2635832070   -0.1486211015   -0.1389546271
 C   -1.2050056785   -0.3956804473    0.2091024498
 N   -2.0112414507   -0.0081013766   -0.9496196471
 C   -2.4919191553   -1.0434177277   -1.8582873179
 C   -3.4411528658   -0.2729741009   -1.0046960957
 C   -4.1899787850   -0.9804107510    0.1194971879
 C   -4.5243461020   -0.0819615447    1.2261545451
 N   -4.7844320517    0.6357274870    2.0934094360
 H   -0.2485978399    1.4247828843   -1.0887596908
 H    0.5651175791   -0.8426076510   -0.9428700332
 H    0.8916703172   -0.3626482833    0.7322833412
 H   -1.3447289665   -1.4465511269    0.5111142078
 H   -1.4905516085    0.2465652330    1.0491832385
 H   -2.4071408851   -0.8365888734   -2.9212963405
 H   -2.3100512179   -2.0820996673   -1.5816650138
 H   -4.0153545173    0.5333332714   -1.4568396310
 H   -5.1215533304   -1.3979661603   -0.2801978719
 H   -3.6134634901   -1.8224661479    0.5132482725