18

 C    0.2497304407    0.9374905371    1.2629345724
 C    1.0850689196    1.0553469958    0.0028365396
 C   -0.1663335998    0.2429281534   -0.0036035972
 O    0.0121858366   -1.1447017732   -0.1030871009
 C   -1.0024345219   -1.8916652363    0.4009554644
 C   -2.1500836935   -1.5996633262    1.1000053670
 C   -2.8065926162   -2.8503500550    1.3303733637
 C   -2.0440927376   -3.8415078290    0.7714328116
 N   -0.9354336699   -3.2414478574    0.2021884939
 H    0.6366291796    0.3099820005    2.0571739726
 H   -0.3251148674    1.7946848882    1.5955039724
 H    1.0916620818    1.9931322350   -0.5406544877
 H    2.0186701749    0.5053932371   -0.0248439717
 H   -1.0408366702    0.6044667146   -0.5403265921
 H   -2.4736915353   -0.6223593463    1.4161149681
 H   -3.7383384040   -2.9917229127    1.8562498294
 H   -2.1776337872   -4.9093973434    0.7256490998
 H   -0.1967590500   -3.6978013724   -0.3033495552