15

 C    0.0391285693    1.4963111924    0.0023549165
 C   -0.0701950287    0.0173861767    0.0744602952
 C   -1.1369791339   -0.8474291913    0.0773406919
 C   -0.5134551491   -2.1268456563    0.1729828133
 N    0.7888508073   -2.0493604206    0.2181481626
 O    1.0699073875   -0.6798089521    0.1508357286
 C   -2.5676236946   -0.4770684279    0.0070258927
 N   -3.4394096506   -1.5276550857   -0.1311705878
 O   -2.9603448467    0.6746442783    0.0951894132
 H    0.5968238698    1.7968896874   -0.8908461284
 H   -0.9623458670    1.9235032789   -0.0226038731
 H    0.5808364470    1.8801091805    0.8729504733
 H   -0.9710279732   -3.1053454525    0.2289970323
 H   -3.1279576134   -2.4180971415   -0.4802926233
 H   -4.4005593135   -1.2787095662   -0.3060215970