20

 C   -0.2307960443    1.6117709119   -0.1457123882
 C   -0.0180170094    0.0862948796   -0.0363304673
 C   -1.3013606100   -0.6043658240    0.1336819727
 N   -2.3135939509   -1.1500642489    0.2516282830
 C    0.7458445977   -0.4668592541   -1.2250170965
 C    0.1093078498   -0.8384553604   -2.5356705689
 C    0.8735829105   -1.8896185695   -1.7729569971
 C    2.3796723864   -1.6966880556   -1.9831421423
 C    2.2531244195   -0.2388373380   -1.4284947577
 H    0.7381618308    2.1100742109   -0.2373866458
 H   -0.8286923897    1.8528893300   -1.0281545799
 H   -0.7401848820    2.0028450220    0.7384262605
 H    0.5672180408   -0.1153130104    0.8719153878
 H   -0.9696641029   -0.9539484775   -2.5133606443
 H    0.5013298881   -0.4411814039   -3.4698147419
 H    0.3875544040   -2.7940722479   -1.4273288044
 H    2.9927042127   -2.3303946062   -1.3391039449
 H    2.7332983174   -1.8011266889   -3.0138118759
 H    2.5301018045    0.5779748046   -2.1027259286
 H    2.7936020369   -0.1096286038   -0.4866104503