24

 C   -0.1045171244    1.5186148112    0.0862393230
 C    0.0563675839   -0.0019300240    0.1004538253
 O   -1.1992585443   -0.6462862192    0.3312526325
 C    0.7393647507   -0.5163342269   -1.1734686829
 C    0.8868587694   -2.0417841828   -1.2812305263
 C    1.5004948024   -2.4295502191   -2.6291803529
 N    1.7497820973   -2.5443414677   -0.2065330292
 C    1.0921539429   -2.9430390646    1.0394570642
 C    1.6197086016   -3.9663236116    0.0999580254
 H    0.8665141173    2.0187044458    0.0105629032
 H   -0.7106260115    1.8385580948   -0.7711678097
 H   -0.6005227995    1.8570704963    0.9999455881
 H    0.6635826258   -0.2822613562    0.9668423501
 H   -1.7845813003   -0.4168618533   -0.3994800331
 H    0.1664453797   -0.1639270122   -2.0441953688
 H    1.7345397577   -0.0608433156   -1.2479776678
 H   -0.1208483665   -2.4887041299   -1.2088369309
 H    2.5049441369   -2.0055164283   -2.7276122655
 H    1.5829976605   -3.5163429197   -2.7247380497
 H    0.8861989011   -2.0628196690   -3.4574784613
 H    1.6351584090   -2.7064562655    1.9507603309
 H    0.0138184873   -2.8204712744    1.1017816220
 H    0.8881907645   -4.5450336183   -0.4627156179
 H    2.5452332786   -4.4933500500    0.3144053711