25

 C    0.5500426214   -0.1000549730    1.5781338729
 C    0.0571060242   -0.2493844777    0.1350937621
 C   -1.4185508763   -0.6897009105   -0.0020818672
 C   -1.9784430628   -0.3437999730   -1.3972169876
 C   -2.2753968580    1.1465821384   -1.5950863508
 C   -1.5532047434   -2.1779702288    0.3273710584
 C   -2.9324676465   -2.8762460755    0.2724534195
 C   -2.2590651900   -3.8097758047   -0.7518464733
 O   -1.0404651382   -3.0390751947   -0.7261200266
 H    1.5985751092    0.2132733202    1.6027206559
 H   -0.0343796001    0.6537560552    2.1180683887
 H    0.4788276365   -1.0368034743    2.1402076010
 H    0.1961745101    0.7076260744   -0.3794420554
 H    0.6804708819   -0.9753103875   -0.4021588261
 H   -2.0137769995   -0.1524143460    0.7539246831
 H   -1.2690239176   -0.6917350060   -2.1560160287
 H   -2.9038689839   -0.9032034270   -1.5762694077
 H   -1.3830332559    1.7671118924   -1.4653082214
 H   -2.6614788928    1.3382384678   -2.6012919613
 H   -3.0270422604    1.4979673592   -0.8788585993
 H   -1.0271830705   -2.3910538274    1.2682107886
 H   -3.2603023875   -3.3410975086    1.2034997979
 H   -3.7454943379   -2.2668918870   -0.1254828342
 H   -2.0974252469   -4.8390731028   -0.4060786831
 H   -2.7024713152   -3.8394587732   -1.7541825554