20

 C   -0.0340304996    1.5384567034   -0.0104880415
 C   -0.0185707781    0.0003952896    0.0094160284
 C   -1.4620837915   -0.5423442233    0.0221482865
 C    0.7309425638   -0.5186511244   -1.2325619610
 O    1.0041907915   -1.9062884576   -1.1414754342
 C    1.9226423346   -2.2057316175   -0.1083985158
 C    1.6216737349   -1.4798024815    1.1734441349
 C    0.7300015465   -0.4940923167    1.2305082970
 H    0.9808375471    1.9490237489    0.0131880100
 H   -0.5320894499    1.9132262845   -0.9119341521
 H   -0.5762110819    1.9334868814    0.8554605236
 H   -2.0452590305   -0.1156697118   -0.8025082936
 H   -1.4582400502   -1.6301341437   -0.0830546441
 H   -1.9708034561   -0.2900564086    0.9585750323
 H    0.1270997406   -0.3858068614   -2.1361429355
 H    1.6686736200    0.0473549054   -1.3619958379
 H    1.8696835945   -3.2907132171    0.0421727041
 H    2.9565271505   -1.9814321297   -0.4332158602
 H    2.1714566478   -1.7982173245    2.0555735936
 H    0.5110849360   -0.0010517757    2.1758976755