16

 O    0.1295828589    1.4312057441   -0.0713414975
 C    0.1166978203    0.0169077756   -0.0871890232
 C   -1.2977515644   -0.5277706359    0.1625957901
 N   -1.3369804851   -1.9752255541    0.1303999209
 N   -1.2107192995   -2.6692451771   -1.0479556860
 C   -1.2639692381   -3.9215284632   -0.6417558228
 N   -1.4115873757   -4.1026904117    0.7043085116
 C   -1.4478858346   -2.8608775212    1.1377108697
 O   -1.5807346660   -2.4506212045    2.4042938527
 H   -0.2659615057    1.7439821003   -0.8910588066
 H    0.5028013163   -0.3974517340   -1.0278968404
 H    0.7816131393   -0.3099124438    0.7187398461
 H   -1.6589662149   -0.2008692844    1.1398266194
 H   -1.9843324933   -0.1519343189   -0.6032190690
 H   -1.1977576073   -4.7450289291   -1.3371248880
 H   -1.6577718500   -3.2456308020    2.9469650030