22

 C   -0.1837004830    1.3576627488   -0.7479479604
 C   -0.0691460307   -0.0645409654   -0.2224054528
 O    0.5341791092   -0.8528671059   -1.2348153328
 C    0.7501041696   -2.2450843447   -0.9727331573
 C    1.7217168207   -2.4635770505    0.1974312595
 C   -0.5710549551   -2.9980956843   -0.7525595769
 C    1.4143117372   -2.8347899036   -2.2436234897
 N    1.6265728688   -1.9546143475   -3.2488951110
 O    1.7108518050   -4.0153057829   -2.2963678451
 H    0.8044635769    1.7601021640   -0.9895200791
 H   -0.7977158899    1.3858836423   -1.6529157063
 H   -0.6459953442    2.0042885651    0.0038257916
 H    0.5357027175   -0.0804890531    0.6953416353
 H   -1.0648412740   -0.4542981227    0.0325836772
 H    1.2563765054   -2.2209124022    1.1567980635
 H    2.0261868417   -3.5116777428    0.2137024688
 H    2.6139305248   -1.8426355154    0.0721753341
 H   -1.2859529737   -2.7514379474   -1.5433720728
 H   -0.3756915923   -4.0716179718   -0.7819975166
 H   -1.0177809640   -2.7515631431    0.2146352179
 H    1.3557793652   -0.9934954460   -3.1347667844
 H    2.0553077749   -2.2829017310   -4.0973894426