13

 C    0.0804409742    1.4405850452   -0.1066042579
 N   -0.0116096671   -0.0042498411   -0.1262490995
 C   -1.1066576309   -0.6025274640    0.0550567644
 N   -1.1853092796   -1.9861903138    0.0354654377
 C   -2.3255967254   -2.7311354540    0.2217643884
 O   -2.3621396297   -3.9268649371    0.1990349082
 O   -3.4526283084   -1.9937497530    0.4422809529
 N   -3.4095331398   -0.5053541593    0.4712863263
 N   -2.3493579510    0.0616405980    0.2949302987
 H    0.8029689489    1.7318482101    0.6635988851
 H    0.4918626640    1.7750994497   -1.0652173269
 H   -0.8689962882    1.9527671706    0.0770232868
 H   -0.3306160470   -2.4991976115   -0.1305197042