19

 C    0.2686610851    1.2233338160   -0.2832131323
 C    0.4446291901   -0.1968992179    0.1880842609
 O    1.7412358452   -0.6099052084    0.6225069819
 C    0.6756047984   -0.6120560513    1.5943503016
 C    0.8604068987    0.3618560559    2.7408659284
 O    2.0499734108    0.0559542420    3.4491427019
 C    0.1715212284   -1.9862566233    2.0073570994
 C    0.7730538838   -3.1876321341    1.3127393236
 O   -0.6729638206   -2.0760257258    2.8687042155
 H    0.8251181130    1.9317335360    0.3316987140
 H    0.6264168818    1.3146293445   -1.3140073674
 H   -0.7909972204    1.4984958380   -0.2708656825
 H   -0.0479358110   -0.9348730192   -0.4495613512
 H    0.8620130580    1.3988760424    2.3834710738
 H    0.0321969843    0.2345609925    3.4412400738
 H    2.7688433573    0.0952349505    2.8074444149
 H    0.7447279327   -3.0863968725    0.2240431298
 H    1.8316112693   -3.2635285679    1.5852748354
 H    0.2437821553   -4.0880405974    1.6255279485