17

 C    0.0346219585    1.4830304068    0.0175262962
 C   -0.0286550525   -0.0135071371    0.0218539595
 C   -0.9384032948   -0.8146195139    0.8945952612
 O   -1.9589101724   -1.6759926093    0.4633668068
 C    0.5393058642   -1.0868808331    0.9853122379
 C    1.1538261735   -1.7348558337   -0.2619622869
 C    0.2162999594   -2.0802211472   -1.3525061702
 N    0.6356494360   -0.6664391486   -1.1793194180
 H    1.0548067546    1.8260367607   -0.1799162800
 H   -0.6091741461    1.8853059186   -0.7738556272
 H   -0.2974198917    1.8981160566    0.9736611624
 H   -1.2491097824   -0.1991890065    1.7438652519
 H   -2.0133625096   -2.4008860414    1.0963777262
 H    1.0914771527   -0.9636294216    1.9095413832
 H    2.2047327346   -2.0059109634   -0.2876788971
 H    0.6654295558   -2.5044433356   -2.2473853681
 H   -0.8025170299   -2.3714965612   -1.1500685778