13

 N    0.0110508069    1.2992485217   -0.5570956690
 C   -0.0111231784    0.1265643231   -0.1052954131
 O    1.2038326156   -0.5885933417    0.0335705001
 C    1.5067286332   -1.3524505106    1.1029768491
 N    0.8332502334   -1.7177391704    2.1124161171
 C   -0.5410378563   -1.5318791819    2.2996618210
 N   -1.1143826623   -1.6757213172    3.4283151780
 C   -1.4413828370   -1.2563818520    1.1408995861
 N   -1.2027179441   -0.5478316000    0.1134267414
 H    0.9698626291    1.6322585576   -0.6517670665
 H    2.5493391667   -1.6547991648    1.0236141585
 H   -0.4098411936   -1.8562226919    4.1489031041
 H   -2.4345949633   -1.6968987617    1.2311046233