17

 N   -0.0244120994    1.5110022268    0.0110039794
 C    0.0210425992    0.0549085735   -0.0067758837
 C   -1.4175052928   -0.5129549791    0.0211602118
 C   -2.1361456220   -0.0971173697   -1.1862003554
 N   -2.6524416448    0.2503483565   -2.1599896860
 C   -1.4237673332   -2.0624300624    0.1606634474
 N   -0.7183102166   -2.4513946142    1.3811141053
 C   -2.8018808421   -2.5945028185    0.1049342029
 N   -3.8666704398   -3.0435151637    0.1326479239
 H    0.9033810975    1.8863620524    0.1735360819
 H   -0.3334425639    1.8699157138   -0.8876522252
 H    0.5484285668   -0.3841645693   -0.8708527216
 H    0.5248280729   -0.2986624696    0.8945937510
 H   -1.9342134005   -0.0769714650    0.8843982366
 H   -0.8738125435   -2.4787653596   -0.6908881062
 H   -1.2807376981   -2.2223551116    2.1964374313
 H   -0.5823763697   -3.4572226203    1.3965116068