22

 C   -0.0795585376    1.5303081431   -0.1307451369
 C   -0.0054477700    0.0328318704    0.0534876536
 N    1.3003374930   -0.6134321956   -0.1413787358
 C    0.6653295816   -0.6409383009    1.2078565220
 C    1.3797083082    0.1477428253    2.2942143806
 C    2.1992390942   -0.7893046478    3.1928261201
 C    1.3031292275   -1.8472729925    3.8514171811
 C    0.3633459615   -2.4748370436    2.8556173986
 C    0.0971296735   -1.9335739263    1.6646859624
 H    0.8161953914    2.0259357963    0.2482730571
 H   -0.1721077517    1.7779248348   -1.1938596774
 H   -0.9519977874    1.9430591083    0.3875549158
 H   -0.8731137046   -0.4984909302   -0.3400468618
 H    1.1878652529   -1.5173230565   -0.5956404879
 H    2.0283752805    0.8975914011    1.8363251899
 H    0.6356948634    0.6793667111    2.9031957869
 H    2.9574591015   -1.2908910705    2.5790270925
 H    2.7341707156   -0.2147539664    3.9560380150
 H    1.9158952805   -2.6253378818    4.3234261053
 H    0.7228783594   -1.3960053406    4.6710569483
 H   -0.1092069597   -3.4133212978    3.1352214243
 H   -0.5703864038   -2.4419388296    0.9703557163