17

 C    0.0048407327    1.4986615655    0.2275493701
 C    1.5115838427    1.5840242796   -0.2390354214
 C    1.4361325988    0.1065373105   -0.6632620138
 C    1.6307347778   -1.2889874519   -0.0181175044
 N    0.6414553655   -0.9227293403    1.0282400072
 C    0.0542788947   -0.0298781136   -0.0122596977
 C   -0.2997466590   -0.8006836103   -1.2974886789
 C    0.8662778837   -1.7316059533   -1.3171660327
 N    0.9749881552   -0.4184255167   -2.0289520305
 H   -0.1900001669    1.7925454182    1.2598779867
 H   -0.6912009746    2.0225001124   -0.4316402458
 H    1.7240161868    2.2765080167   -1.0564254627
 H    2.2186322607    1.7675640905    0.5723865853
 H    2.5458128311   -1.8065273592    0.2743147131
 H    0.0434770292   -1.6818889165    1.3540656940
 H   -1.2382376235   -0.9737531033   -1.8133918851
 H    0.9022359048   -2.6681941382   -1.8590005935