22

 C    0.2907384658    1.5639107977    0.1037322428
 C   -0.2173922056    0.1428567469   -0.1323301136
 N    0.5886505718   -0.5026243764   -1.1660117468
 C    1.7083472441   -1.3188383718   -0.7654724638
 C    0.4964722423   -1.9644079971   -1.3879404971
 C   -0.3853453056   -2.8957162090   -0.5741952840
 C    0.2358005374   -4.2857003835   -0.3761526721
 C    0.5900519515   -2.2586641219   -2.8538900218
 O    0.0851052440   -3.2078266539   -3.4000700095
 H    1.3239166878    1.5535717372    0.4657564134
 H    0.2630290377    2.1414704441   -0.8239953887
 H   -0.3254674449    2.0713402547    0.8521967864
 H   -0.2103548354   -0.4102271172    0.8203963959
 H   -1.2547891291    0.1681436957   -0.4845433678
 H    2.6319801580   -1.1955720891   -1.3272244312
 H    1.8453450292   -1.5243064321    0.2969003427
 H   -0.5953082791   -2.4487571683    0.4014548155
 H   -1.3456313687   -3.0004379417   -1.0912816476
 H   -0.4306582037   -4.9230119409    0.2130212847
 H    0.4086788073   -4.7728886186   -1.3379509545
 H    1.1919119124   -4.2197028924    0.1540819189
 H    1.1665745326   -1.4920420024   -3.4173531718