11

 O   -0.0860221277    0.0779337844   -0.2983317920
 C   -0.0455813674    1.2159463836    0.0001013987
 O   -1.0010179303    2.0308619696    0.5099135391
 C   -0.1268207911    3.1969900261    0.5652036142
 C    1.0547322314    2.3630111399   -0.0178444377
 C    2.1673408255    2.1268859694    0.8921351375
 N    3.0228702833    1.9378306004    1.6440491948
 C    1.4912510097    2.7402595785   -1.3553239012
 N    1.7988962391    3.0482640394   -2.4246858529
 H   -0.4889789607    3.9929360396   -0.0844074830
 H    0.0149538583    3.5357326189    1.5907944526