19

 C    0.0573302716    1.4701281838    0.0934621252
 C   -0.0455607929   -0.0070092128   -0.0382789412
 C   -1.0827248285   -0.8838144614    0.0168199336
 C   -0.5357084724   -2.2023570068   -0.1833729740
 C    0.8002433920   -2.0088430409   -0.3491321046
 O    1.1172116371   -0.6861297456   -0.2597508325
 C   -1.2853981699   -3.4791135021   -0.2090226982
 C   -0.6016367982   -4.7978377710    0.0538358588
 C   -1.5635750574   -4.2426782035    1.0716333643
 H    0.4746145166    1.9269316987   -0.8112857691
 H   -0.9331225286    1.8967673970    0.2661899864
 H    0.7044037444    1.7557226644    0.9307974066
 H   -2.1195212219   -0.6346556205    0.1852227474
 H    1.6244328645   -2.6756154694   -0.5403951347
 H   -2.0921171532   -3.5085212987   -0.9376068597
 H   -0.9072816706   -5.6558867721   -0.5341216851
 H    0.4533640607   -4.7841862171    0.3029770116
 H   -1.1483836158   -3.8411261687    1.9891604149
 H   -2.5320403474   -4.7177307534    1.1833797101