21

 C   -0.1721956232    1.5986674998    0.1613976453
 C    0.0373997512    0.0955342253    0.0541847708
 C    1.1920630651   -0.5099479861   -0.8117744939
 C    2.1943017681   -0.1027846520    0.3128799353
 C    0.9519040787   -0.6770549687    1.0623862489
 C    0.9698884106   -1.8079387322    0.0039387025
 C   -0.1205479709   -2.8694859126   -0.2304527294
 C    1.0498329089   -3.8680131625   -0.1694852478
 O    2.0019302995   -2.8068819678    0.0471192908
 H    0.7516494447    2.1571709774    0.3281570725
 H   -0.6312725496    1.9855085743   -0.7551986292
 H   -0.8523098804    1.8303655490    0.9886314522
 H   -0.9315685697   -0.3901125118   -0.1132615487
 H    1.3282090011   -0.4243848606   -1.8915558062
 H    3.1078361019   -0.6937311252    0.3772426983
 H    2.4029698858    0.9599301404    0.4343914442
 H    0.8116179035   -0.7838150018    2.1397486316
 H   -0.8601506723   -2.9639027010    0.5669579701
 H   -0.6347886280   -2.8071289183   -1.1914204675
 H    1.0313857528   -4.5746563840    0.6685357970
 H    1.2574129322   -4.4174260914   -1.0952387768