19

 O    0.1552438918    1.3901171552    0.0738742875
 C    0.0489726323    0.0116408854    0.2467783515
 C   -1.3264972788   -0.5009113067   -0.1459655024
 O   -2.1662064661    0.2912017228   -0.5250836766
 C   -1.5831528155   -1.9893825326   -0.0760568614
 C   -2.9401161649   -2.3655685382    0.5773786651
 C   -3.5222762489   -3.4465913083   -0.3715152677
 O   -2.4808348233   -3.7942874756   -1.2754502317
 C   -1.7313120275   -2.6195952244   -1.4882779904
 H   -0.7195805356    1.6702709768   -0.2412198438
 H    0.8024303318   -0.5308966434   -0.3503835798
 H    0.2279446035   -0.2831137377    1.2961317275
 H   -0.7558132864   -2.4828610960    0.4423071902
 H   -2.7935213284   -2.7440194651    1.5909357495
 H   -3.5932960212   -1.4925458521    0.6274547125
 H   -3.8333196658   -4.3592452587    0.1425631791
 H   -4.3866114561   -3.0464929894   -0.9216867631
 H   -2.2612346532   -1.9149279279   -2.1487280756
 H   -0.7801708077   -2.8981497443   -1.9479766905