20

 C    1.2435539677    0.9549517513    0.7166120826
 C    0.0936920514    0.2900721909   -0.0516555241
 C    0.6084526113   -0.4062220526   -1.2946691910
 C    1.0169345895   -1.8213923251   -1.3961842657
 C    0.1108537592   -2.7553428267   -0.5902670601
 C   -1.0483081708   -2.1907808594   -1.4667089901
 C   -2.3068305339   -1.6549163168   -0.8376373357
 O   -2.7384159731   -0.5376504615   -0.9555743004
 N   -0.1451164627   -1.2732519075   -2.2317903820
 H    1.9834464516    0.2166952387    1.0440355372
 H    1.7636146336    1.6907907690    0.0937308968
 H    0.8710169565    1.4746113276    1.6041220873
 H   -0.4267292536   -0.4046584914    0.6134844999
 H   -0.6497859715    1.0367312836   -0.3474245315
 H    1.2306098638    0.2549892373   -1.8978767838
 H    1.9435194497   -2.1375287152   -1.8647635548
 H    0.2999672988   -3.8143802830   -0.7672457116
 H    0.0689859539   -2.5821125732    0.4890158671
 H   -1.3884744961   -2.9724632669   -2.1604312237
 H   -2.8563693154   -2.4279841791   -0.2467716465