15

 C   -0.0108975771   -1.1974011740    0.1080298905
 C    0.0361838207    0.0023783147    0.0498972435
 C    0.0525438169    1.4293306505   -0.0711880442
 C   -0.8705879280    2.0975770887   -1.0921146099
 O   -0.3942064951    3.4322511637   -1.2092845598
 C    1.0210488838    3.4057152896   -1.0382684046
 C    1.2719264266    2.2985201488   -0.0310014010
 N    0.3729080828    2.2444106888    1.1204152901
 H   -0.0435371489   -2.2566313277    0.1760929019
 H   -0.8118557848    1.5538694459   -2.0472010583
 H   -1.9171494758    2.1439313305   -0.7762228740
 H    1.5421470902    3.1813523991   -1.9826248866
 H    1.3281470395    4.3998691782   -0.6974313282
 H    2.2707509284    1.9012467752    0.1119733914
 H   -0.2275860794    3.0692605881    1.1285685891