16

 C    0.1289620348    1.6224260568   -0.1470004219
 C    0.0111539463    0.1054913385   -0.0467355972
 N    1.0434378324   -0.6637951353   -0.7853041732
 C    1.6740694310   -1.1388733231    0.3416622546
 O    2.7150155495   -1.7085433287    0.5307208428
 C    0.5764321800   -0.5456147009    1.2596722089
 O    1.0488457988    0.3599102609    2.2213063166
 C   -1.3853245464   -0.3541068280   -0.4398626117
 O   -2.2405200559   -0.6799465776    0.3390404229
 H    1.1361406879    1.9387256926    0.1307052346
 H   -0.0856913846    1.9642265357   -1.1654488889
 H   -0.5802316760    2.1004338173    0.5343024431
 H    1.3939341148   -0.5609562245   -1.7284052987
 H   -0.1136667367   -1.2824616472    1.6859103584
 H    1.8591583582   -0.0115248018    2.5898059257
 H   -1.5630421242   -0.3656036046   -1.5409420661