17

 C    0.1351793020    1.4702437329   -0.2236303887
 O    1.4991654960    1.3575724387    0.2881518946
 C    1.1455610830    0.1442244233    1.0342726819
 C    1.5619848141   -1.2471627331    0.5414069535
 C    0.3106370304   -2.1374734357    0.8888726174
 C   -0.2243483280   -2.1458550056   -0.5230603494
 C   -0.8896594957   -1.2269005103    0.4712369043
 C   -0.0517081192   -0.0064915623    0.0900060875
 C    0.7979723443   -1.0069743065   -0.8022524423
 H   -0.4597602360    2.1619564638    0.3891816743
 H    0.1108597584    1.7845199385   -1.2723012218
 H    1.0629462529    0.3487833706    2.1070524816
 H    2.5479614853   -1.7016230828    0.6413506620
 H    0.2107346206   -2.8902480508    1.6598667994
 H   -0.6190417854   -2.9503868428   -1.1295201924
 H   -1.8526694010   -1.3132345866    0.9572448094
 H    1.2409964585   -0.7220898115   -1.7515958012