17

 O   -0.1263621158   -0.0953825488   -0.3420969354
 C   -0.0699987389    1.0756512559   -0.1495268230
 C   -1.1730874077    2.1956559902    0.1582545347
 C   -0.0369008201    2.8505893390    0.9756038399
 C    1.0149245106    4.0424277458    1.0849200530
 C    2.0234513039    2.7961806738    1.1319350137
 C    1.5594331108    2.1232665155    2.4270467546
 C    0.2305823134    2.1600523325    2.3297439476
 C    1.0156165611    2.1766928319    0.0841268105
 H   -1.4475676215    2.7295837559   -0.7555157497
 H   -2.0739381739    1.8556272557    0.6747202289
 H    1.1066432217    4.6537273101    0.1824523806
 H    0.9709176353    4.6616577219    1.9835250520
 H    3.0888098808    2.9128664959    0.9372690438
 H    2.1964981305    1.7559831643    3.2185580654
 H   -0.5339971910    1.8191809305    3.0141398116
 H    1.0875083206    2.7135794197   -0.8720867483