18

 O    0.3046902012    0.5963370945   -0.9851644643
 C   -0.0636540863    0.4078915200    0.3766036779
 C   -1.4022555105   -0.3075903246    0.3703150816
 C   -1.5273607380   -1.7543774599   -0.0740939627
 C   -1.3137408859   -2.7705997471    1.0226830992
 C   -0.6079629837   -2.3789704335    2.2733841335
 C   -1.1324946877   -1.2321386919    2.7090231917
 C   -2.1359225295   -0.7641874485    1.6857252458
 N   -2.5973778286   -2.0353542745    0.9515793108
 H    1.1939292469    0.9613762323   -1.0075510896
 H    0.6875636078   -0.1857901917    0.9137119587
 H   -0.1620791903    1.3738587828    0.9008503286
 H   -2.1083015628    0.2822157661   -0.2217533923
 H   -1.6278528377   -2.0756972017   -1.1060730668
 H   -1.3647307182   -3.8131876993    0.7228954955
 H    0.1996448271   -2.9480688213    2.7149022173
 H   -0.8125963043   -0.6459793622    3.5611504012
 H   -2.9502210097   -0.1345334793    2.0417187137