17

 O   -0.0405823317   -0.1435620931   -0.0560030432
 C   -0.0336765602    1.0682880105   -0.0107436575
 C   -1.3742743355    1.8134119214    0.0335928508
 O   -1.3598885776    3.2065576247   -0.1082704329
 C   -1.2382519120    3.9272636735    1.1034975974
 C    0.0942121781    3.6528732809    1.8060383736
 N    1.2005801831    3.9500098524    0.9239836130
 C    1.5951434690    3.0793444823    0.0954218776
 N    1.1680547942    1.7566284825   -0.1239602760
 H   -1.9341698614    1.4062770435   -0.8147409884
 H   -1.8975735733    1.4882568362    0.9446599670
 H   -1.3014061983    4.9817705432    0.8233733776
 H   -2.0727634909    3.6924430792    1.7824164690
 H    0.1605497543    4.3008723367    2.6866098503
 H    0.1166258015    2.6110432947    2.1648230046
 H    2.4547515902    3.3214903702   -0.5320052253
 H    1.9048369305    1.1212880314   -0.4064671377