21

 O   -0.1056493217    1.5038519405    0.1332159207
 C    0.0382543580    0.0918186863    0.1082385267
 C   -1.3515171091   -0.5108266139   -0.0583213595
 C   -1.3639926906   -2.0495518100   -0.0998151949
 C   -2.7903768578   -2.5805411058    0.1014800557
 O   -2.8639418471   -3.9802395848   -0.0985566609
 C   -2.5867415260   -4.3544586963   -1.4331356323
 C   -1.4005689912   -3.6370151135   -2.0138374815
 C   -0.8248655953   -2.6076234456   -1.3971467753
 H    0.7678646972    1.8941799066    0.2291264468
 H    0.6965082775   -0.2224429574   -0.7172313316
 H    0.4905136718   -0.2805057690    1.0423769275
 H   -1.9684670671   -0.1616540603    0.7792563163
 H   -1.8044609046   -0.1065448522   -0.9714970562
 H   -0.7468831440   -2.4195985368    0.7337053563
 H   -3.1350327079   -2.3992129574    1.1239023177
 H   -3.4757416654   -2.0550940295   -0.5857654879
 H   -2.4098971064   -5.4369340036   -1.4159091354
 H   -3.4730906146   -4.1901706293   -2.0750597929
 H   -1.0323293383   -4.0007710273   -2.9697784707
 H    0.0453092425   -2.1271392106   -1.8371915789