19

 C   -0.0245315441    1.6097233284   -0.6566082777
 C   -0.0256497829    0.1813740376   -0.1462120971
 C    1.2336913884   -0.6461865818   -0.2192520286
 C    0.7245243680   -0.1557871760    1.1154883894
 N   -1.2472585590   -0.5518832382   -0.3645883020
 C   -2.4168443866   -0.2636470132    0.2884556620
 N   -2.5133148801    0.5780175258    1.2459634982
 C   -3.5977788234   -1.0748621734   -0.2055178437
 O   -4.6993278832   -0.9705284346    0.2642642320
 H    0.9327307854    2.0943327437   -0.4438226165
 H   -0.1848258411    1.6404418178   -1.7406292862
 H   -0.8167596715    2.1833237888   -0.1684253276
 H    1.1327828678   -1.7040737596   -0.4369080272
 H    2.1163939177   -0.1807639178   -0.6438136285
 H    1.2555376407    0.6488893301    1.6107290676
 H    0.2743725553   -0.8782977708    1.7843764019
 H   -1.3268929172   -1.0488194896   -1.2391644363
 H   -3.4790733478    0.5633216083    1.5808757516
 H   -3.3886921965   -1.7853098655   -1.0385699414