25

 C   -0.0440805582    1.5739703683   -0.0002246679
 C    0.0039136885    0.0436488475   -0.0220900988
 C    0.7285175543   -0.4870572153   -1.2712716603
 C    0.6662496026   -2.0186540778   -1.3602603769
 C    1.0825197143   -2.7173336985   -0.0672789537
 C    2.5607865289   -2.7601277920    0.4159716069
 C    2.0318574971   -2.6284932711    1.8714893086
 C    0.7066549513   -2.0513911593    1.2945197041
 C    0.6932554064   -0.5137585338    1.2347458547
 H    0.9675817235    1.9969964423    0.0218037827
 H   -0.5493197791    1.9702434005   -0.8876388935
 H   -0.5763617540    1.9438211146    0.8828417786
 H   -1.0311534867   -0.3318352185   -0.0459810560
 H    0.2914315624   -0.0496074153   -2.1768910181
 H    1.7738810432   -0.1474604289   -1.2409858040
 H   -0.3684460377   -2.3061656952   -1.5931511011
 H    1.2771449388   -2.3792983206   -2.1978031594
 H    0.7007867912   -3.7445169372   -0.0753823642
 H    3.1478322807   -3.6464653828    0.1619578683
 H    3.1252805325   -1.8754232331    0.1063060174
 H    1.8842464422   -3.6087524314    2.3338584626
 H    2.5916236379   -1.9959824664    2.5662735146
 H   -0.2209204099   -2.4118602858    1.7504952751
 H    1.7241060152   -0.1318273845    1.2440642511
 H    0.2194131747   -0.1165748957    2.1408547194