17

 C   -0.0380956742    1.5287656000   -0.1430243086
 C    0.0390479887    0.0112140617   -0.1022314502
 O    1.1101870121   -0.5690685968   -0.1687683523
 C   -1.2237341418   -0.7226047090    0.0200912050
 C   -1.3499649989   -2.1137453801    0.0727366203
 C   -0.3328441222   -3.2014696424    0.0255036154
 N   -2.6724952776   -2.3463460974    0.1844912342
 N   -3.4376132474   -1.2259252184    0.2106943184
 C   -2.5574342820   -0.2430610389    0.1108952372
 H    0.9685825128    1.9373098103   -0.2351651396
 H   -0.6481736986    1.8618623452   -0.9898565254
 H   -0.5093605924    1.9161159974    0.7670023094
 H   -0.8036358945   -4.1870418401    0.0934265943
 H    0.2466555686   -3.1468537108   -0.8997891223
 H    0.3850844078   -3.0929289338    0.8426536135
 H   -3.1258465232   -3.2437035756    0.2478300504
 H   -2.9020943972    0.7808604385    0.1067986103