16

 O    0.0869220323    0.0360848053   -0.1980763465
 C    0.0212338777    1.2202661167   -0.1157196039
 C   -1.1102390475    2.2639408648   -0.0668852845
 C    0.0164351328    3.2876722141    0.0576508414
 N    1.0975517226    2.1818347184    0.0970996101
 C    0.9877169697    3.1489508960   -1.0245451297
 C    0.8269731885    2.8692022522   -2.5194741000
 O    1.8703400305    3.8206043854   -2.8167787973
 C    2.1399699573    4.0633839690   -1.4179060880
 H   -1.7729499305    2.3304528104   -0.9334410262
 H   -1.7122420054    2.1522133178    0.8383875601
 H    0.0531036111    4.0928650180    0.7820263057
 H    1.0904615010    1.8506812463   -2.8305893903
 H   -0.1332444027    3.1530718889   -2.9671422432
 H    2.0329748547    5.1218161156   -1.1522666308
 H    3.1270713079    3.7003795013   -1.1103408668