23

 C    0.1229030258    1.6078455923   -0.0538630301
 C    0.0715036332    0.0914111145    0.0531379914
 C    0.9284585922   -0.7882220458   -0.9091682463
 C    1.3611129775   -1.6884700725    0.2865436048
 C    2.7600300252   -1.3700817510    0.8599087840
 C    2.1496565944   -0.1845654596    1.6664440117
 C    0.7107167165   -0.6430061475    1.2665334192
 C   -0.1976048930   -1.0298167891    2.4046812510
 O   -0.5728705046    0.1657301332    3.0832334578
 H    1.1518402258    1.9832339148   -0.0496877611
 H   -0.3436679775    1.9498126981   -0.9848034294
 H   -0.4072861791    2.0701884429    0.7846591438
 H   -0.9757461447   -0.2298035516   -0.0095215879
 H    0.3750925234   -1.2881559890   -1.7077174682
 H    1.7686315650   -0.2533186316   -1.3654515531
 H    1.0449142999   -2.7327792782    0.2402412034
 H    3.1396125608   -2.1638358365    1.5097525056
 H    3.5379093496   -1.1274775310    0.1292601456
 H    2.3382682305   -0.2094017482    2.7421327175
 H    2.4295998795    0.8071708073    1.3054370845
 H   -1.0837293098   -1.5565681092    2.0122169289
 H    0.3225407595   -1.7247602090    3.0856902244
 H   -1.1549961101   -0.0698773432    3.8116658725