22

 C   -0.0881790650    1.4455125405    0.3106639024
 C    0.0118833329   -0.0397995071    0.0056993072
 C    1.0880463275   -0.4792506974   -0.9600927428
 C    1.2327475737   -0.7859326215    0.5084297208
 C   -1.2900737798   -0.7725102501    0.0564955971
 C   -1.7943263150   -1.7134062924   -0.9666160398
 N   -2.4916378907   -0.4208517043   -0.8263105131
 C   -3.3741178510   -0.5860424802    0.3805554907
 C   -2.1693396905   -0.8710540488    1.3121747264
 H    0.8949438001    1.9231902483    0.2581841754
 H   -0.7499947727    1.9381193361   -0.4086073825
 H   -0.4871612313    1.6265039135    1.3151881350
 H    0.8896940758   -1.3058494380   -1.6318928990
 H    1.7169491826    0.2948887932   -1.3865096319
 H    1.9636227708   -0.2307018991    1.0868590584
 H    1.1055376000   -1.8168882282    0.8214771787
 H   -1.2494176651   -1.7944113659   -1.9010422513
 H   -2.3090108436   -2.6249873355   -0.6637488297
 H   -3.8901529430    0.3512449117    0.5982457602
 H   -4.1184057462   -1.3821196888    0.2683712564
 H   -2.1423744442   -1.8251535358    1.8472425700
 H   -1.9918474052   -0.0671438400    2.0285477713