19

 C    0.0187645620    1.6302841937   -0.0654331816
 C    0.0656189953    0.1195020408    0.0011342339
 C    0.5722072680   -0.6706250977   -1.2394991695
 C    0.5143158358   -1.9726799236   -0.9226518767
 C   -0.0247319898   -1.9115836346    0.4963257955
 C   -0.5056501515   -2.4989911679    1.8430613965
 C   -0.6427979917   -0.9457652586    2.0101043387
 C    0.6620673786   -0.6923287783    1.1976245563
 C   -1.1018480955   -0.7763860062    0.5310565974
 H    1.0141206177    2.0510275513   -0.2490691708
 H   -0.6383395043    1.9722681425   -0.8733582883
 H   -0.3554155125    2.0565054197    0.8712302281
 H    0.9019538337   -0.2229248915   -2.1682201421
 H    0.7787511687   -2.8375845219   -1.5134410692
 H   -1.4363104608   -3.0752590831    1.8296020740
 H    0.2460361076   -2.9951000112    2.4653473218
 H   -0.9995598416   -0.4042434776    2.8858952378
 H    1.6889992319   -0.6901726058    1.5740610490
 H   -2.1172041817   -0.8715599300    0.1357181891