23

 C   -0.2244931811    1.2963296383   -0.3137616663
 C    1.2123213934    1.1548261361    0.1246605191
 C    0.3215667312   -0.0615935767    0.0548394674
 C   -0.1296149947   -0.7560647407    1.3091472522
 C   -1.3484576595   -1.7297799314    1.2266950670
 C   -0.5680275661   -2.7068230116    2.1151415805
 C   -1.0258778983   -3.2224181741    3.4491104657
 C   -0.7704555229   -4.1780926249    2.3027108881
 C    0.7333111587   -1.9352324733    1.8617942061
 H   -0.9198346901    1.7653972343    0.3750541482
 H   -0.4269311923    1.5073073072   -1.3580669995
 H    1.9925823965    1.2690189841   -0.6197993589
 H    1.4806425859    1.5289926914    1.1075104301
 H    0.5098262981   -0.7348185806   -0.7793782165
 H   -0.2970604936   -0.0143207468    2.0979784447
 H   -2.3084175549   -1.3627899628    1.6010420261
 H   -1.4934958329   -2.1114695874    0.2094768441
 H   -0.3192563222   -3.2145657218    4.2735776608
 H   -2.0554937827   -3.0432110424    3.7438943340
 H   -1.6276582979   -4.6432733933    1.8254223208
 H    0.1077242566   -4.8145477520    2.3548560479
 H    1.3457910692   -2.3916851287    1.0756796015
 H    1.3728480896   -1.7260986429    2.7241138668