17

 N    0.1813340478    1.3671360685    0.7024853105
 C    0.1285943826    0.2193769299    0.1299768101
 C   -1.2402167545   -0.4146086142    0.1285459147
 O   -1.4942058122   -1.5140993558   -0.2948353088
 N    1.1178515998   -0.4397359471   -0.5711516053
 C    1.4771260797   -1.9110439544   -0.3927170145
 C    2.7706771347   -1.5860102024   -1.1847113757
 C    2.5718783114   -0.4449291142   -0.1509179076
 C    2.2381945295   -1.5340437880    0.9129289100
 H    1.1293925549    1.7504100513    0.6902793064
 H   -1.9986387538    0.2487951056    0.5887040778
 H    0.7419244139   -2.6910041356   -0.5632830352
 H    3.6222257263   -2.2461282328   -1.0175517678
 H    2.6356279764   -1.3136580341   -2.2312764881
 H    3.1439929059    0.4764090379   -0.0407994601
 H    1.6278971977   -1.2129082610    1.7587503823
 H    3.0538046100   -2.1923851938    1.2222184212