17

 O   -0.4036380119    1.4283949328   -0.3620913918
 C   -0.0964866077    0.0794529809   -0.0451608598
 C   -1.3456804380   -0.7325897370   -0.3646149724
 C   -1.2229480938   -2.2039314129   -0.0945575652
 C   -2.3914598430   -3.1428221595   -0.3650044230
 C   -3.5883186798   -2.4953585102   -0.8892651220
 N   -4.5418453874   -1.9927143205   -1.3047887010
 N   -0.1193012218   -2.6508374976    0.3661567975
 O   -0.1597272688   -4.0380532407    0.5653135647
 H    0.3707080688    1.9644661932   -0.1695141098
 H    0.7528821018   -0.2951084406   -0.6337387390
 H    0.1660623065   -0.0412378246    1.0153531267
 H   -2.1927193895   -0.3291964687    0.2056061040
 H   -1.6150777054   -0.5790219526   -1.4178249988
 H   -2.0657298265   -3.9233532417   -1.0627562059
 H   -2.6419543794   -3.6735613663    0.5611851662
 H    0.7212240657   -4.2246772843    0.9066231898