18

 C    0.1576645827    1.4111225569    0.1127002650
 C   -0.1260410641   -0.0891263668    0.0988379556
 O    0.2716152151   -0.7264799045    1.3039264361
 C   -1.6039581152   -0.3935005561   -0.1961636086
 O   -1.8452366224   -1.7648021829   -0.3882535247
 C   -2.3327073601   -2.3035047529    0.8321030151
 C   -2.8222051563   -1.0966037782    1.5999646369
 N   -3.4892081388   -1.1061874679    2.6675774232
 O   -2.4068865427    0.0149362198    0.9184864178
 H    1.2104026046    1.5892433646    0.3449025286
 H   -0.0642600766    1.8662433680   -0.8579463923
 H   -0.4581968127    1.9128876809    0.8673935835
 H    0.4535890138   -0.5760851979   -0.6933786330
 H   -0.1032691092   -0.2230945418    2.0356764775
 H   -1.9475541732    0.1492062688   -1.0851028248
 H   -3.1451274512   -3.0035248686    0.6221432184
 H   -1.5428917628   -2.8169069149    1.3917314217
 H   -3.6859217208   -0.1573994066    2.9886675043