15

 C   -0.0735686485    1.6209395626    0.0117509959
 C   -0.1780249712    0.1461629673    0.3561941477
 C   -1.2977777177   -0.6681238600   -0.1271856856
 O   -0.0013672954   -0.7690281762   -0.7205267089
 C    1.3383369612    2.0892016763   -0.1066049033
 N    1.9227496462    2.6579775231   -1.1191585789
 C    3.1928493894    2.8552681050   -0.6346423412
 N    3.3975379390    2.4446986453    0.5856159041
 O    2.1468507809    1.9268304420    0.9507892848
 H   -0.5700840429    1.8213943279   -0.9394224689
 H   -0.5764842237    2.2046185307    0.7933175279
 H    0.3168792528   -0.1477459495    1.2817703480
 H   -1.6220573782   -1.5353767602    0.4453547650
 H   -2.0629716264   -0.2105741526   -0.7531166051
 H    3.9832497846    3.3165168182   -1.2087114214