13

 O    0.0904786454    1.3365478575    0.1858996054
 C    0.0696078618   -0.0038661155   -0.0073599326
 C    0.0898376913   -0.8105035072   -1.1127108523
 C    0.0459851191   -2.1643946116   -0.6261000956
 C    0.0474726015   -3.3842637693   -1.4220546546
 O    0.0095499890   -4.5116681794   -0.9734483015
 C    0.0012569639   -2.1113527529    0.7537116132
 N    0.0161803552   -0.7927054762    1.1157279791
 H    0.1289517804    1.7698498645   -0.6721351572
 H    0.1305176075   -0.4942727924   -2.1436500825
 H    0.0875889255   -3.2117728184   -2.5221773005
 H   -0.0390716715   -2.9057842588    1.4791339132
 H   -0.0075983390   -0.4294965504    2.0539691258