18

 C    0.1426129263    1.4995703399   -0.6192730212
 C   -0.0223437178    0.0740294808   -0.1432471593
 C    1.0979128636   -0.8758797679   -0.1423314627
 O    0.6604991622   -0.2554149254    1.0718708052
 C   -1.4471064059   -0.4541217254   -0.2072867839
 N   -1.6368092836   -1.8596008577    0.2428758890
 C   -2.5719203369   -1.4767345136    1.3384903062
 C   -2.3505662203   -0.0040699384    0.9667322250
 O   -2.7162055635    1.0495733924    1.3901158892
 H    1.1681160589    1.8369922686   -0.4530372075
 H   -0.0872991269    1.5860929558   -1.6869543271
 H   -0.5353515784    2.1618622509   -0.0713171750
 H    0.8889023195   -1.9408711720   -0.2076168241
 H    2.0714108001   -0.5499821849   -0.5075468381
 H   -1.8853363788   -0.2134940099   -1.1860531526
 H   -2.0716238759   -2.4418801445   -0.4621050859
 H   -3.6132085260   -1.8023643088    1.2214697409
 H   -2.2205217365   -1.7614536898    2.3360171021