16

 C   -1.3203058825   -0.0180911055    0.0625817198
 O    0.1011752644    0.0312154604   -0.0277982871
 C    0.6476501495   -0.6903744146   -1.0764433009
 C    1.8779101912   -1.5272797153   -0.7509817440
 C    0.5918131558   -2.2119422895   -1.0770994034
 C    0.6837430164   -0.0168664651   -2.4055163352
 O    1.0780929817   -0.5321354068   -3.4255340300
 C    0.2266641934    1.3910501515   -2.4206647392
 N   -0.1345137684    2.4870943596   -2.4916539265
 H   -1.8007171425    0.4110425616   -0.8250288206
 H   -1.6759484062   -1.0468488434    0.2006172964
 H   -1.5926479076    0.5791612044    0.9341234151
 H    2.6695184551   -1.5347021284   -1.4906702680
 H    2.1866979820   -1.4800563935    0.2863036946
 H    0.0337861186   -2.6599965406   -0.2636105847
 H    0.4944196091   -2.6905936449   -2.0444925462