17

 C    0.0189692337    1.5053858168    0.0870278766
 O    1.4708718875    1.5068137320   -0.0270245100
 C    1.5110224651    0.0778708885   -0.0177431394
 C    2.4974019172   -0.6902426903   -0.8131955257
 C    2.8592784601   -1.8006151708   -0.1621999125
 C    2.1998776867   -1.9519292951    1.1969912495
 C    1.4198344473   -0.6317763130    1.3596643786
 O   -0.0283295450   -0.7377299575    1.2492170398
 C   -0.0346693970   -0.0358872664   -0.0013094598
 H   -0.3308726565    1.9200730444    1.0384331861
 H   -0.4388260671    2.0439395395   -0.7503407198
 H    2.8245398542   -0.3937533504   -1.8020649977
 H    3.5373149917   -2.5512440241   -0.5542844833
 H    1.5001736491   -2.7958989067    1.2166767670
 H    2.9322602159   -2.1262192061    1.9941436750
 H    1.7141428779   -0.0474883758    2.2360642875
 H   -0.6780762506   -0.4989688152   -0.7511379620