16

 O    0.3131578551    1.2637880156    0.3142894739
 C    0.1375755147   -0.0473002556    0.0187229249
 C   -0.1234467474   -0.7274590775   -1.1479311466
 C   -0.1962145419   -2.1107424247   -0.7968613585
 C    0.0102262262   -2.2249363592    0.5557296160
 C    0.0686843370   -3.4081098671    1.4705599015
 C    1.4753717958   -3.4959735380    2.0415858401
 O    1.7830251738   -3.0925997663    3.1354175744
 N    0.2186517961   -0.9407034720    1.0443924043
 H    0.2416241876    1.7702653649   -0.5002943840
 H   -0.2561096101   -0.2918029479   -2.1259440752
 H   -0.3947250730   -2.9314610721   -1.4696210077
 H   -0.6397410985   -3.3281539282    2.3035245925
 H   -0.1575559492   -4.3096650237    0.8931879866
 H    2.2360988645   -3.9003922291    1.3373016515
 H    0.4464716694   -0.7031939890    1.9957821665