18

 C   -0.0565568367    1.5350259829    0.0021922654
 C   -0.0343347289   -0.0043034111    0.0261549362
 C    0.7276133714   -0.5407680528    1.2528072269
 C   -1.4228212277   -0.5613070242   -0.0187055001
 N   -1.9416222666   -1.3504966260   -0.9126117603
 C   -3.2209037974   -1.5285748030   -0.4291718594
 N   -4.1075402003   -2.3634177996   -1.0581124896
 N   -3.4922427437   -0.8883000343    0.6851568091
 O   -2.2662311187   -0.2389669483    0.9652302742
 H    0.9662322448    1.9231015756   -0.0043326853
 H   -0.5704768799    1.9118529776   -0.8867865565
 H   -0.5677217767    1.9308017713    0.8844520232
 H    0.4528901554   -0.3697175060   -0.8827840118
 H    0.2453822228   -0.2201936448    2.1808102344
 H    0.7671101195   -1.6337079248    1.2487384298
 H    1.7535782265   -0.1610491038    1.2503920678
 H   -3.9394597220   -2.4699091684   -2.0466342710
 H   -5.0759250520   -2.2171338302   -0.8162856732