19

 C    0.0326577455   -1.2594937919    0.1083717458
 C    0.0198875005   -0.0579604372    0.0868996988
 C    0.0085967670    1.4006007837    0.0535032256
 C   -0.8476011308    2.0154304569    1.1888604210
 O   -0.6267674891    1.5259628393    2.4886743833
 C    0.7011583001    1.3994587898    2.9836633471
 C    1.7880720681    2.2491280363    2.3312398147
 O    2.2500657994    1.7264251400    1.0986014583
 C    1.4305565018    2.0077956678   -0.0089914264
 H    0.0412956919   -2.3210643191    0.1291664432
 H   -0.4788501857    1.7228412387   -0.8796076230
 H   -0.7210492421    3.1101283439    1.1420649045
 H   -1.9022560379    1.8026121734    0.9906569824
 H    0.6497004235    1.6614772796    4.0479784658
 H    1.0167561574    0.3497928644    2.9067996807
 H    1.4660519928    3.2970753448    2.2198946918
 H    2.6555650267    2.2399963022    2.9999989598
 H    1.9591239536    1.6100076088   -0.8795007818
 H    1.3210394876    3.0983669287   -0.1406210213