20

 C    0.0714144507    1.6107407662    0.1045587581
 C    0.0768736354    0.0809233330    0.0506981023
 C    0.6700417492   -0.4965997051   -1.2513414493
 C    0.7483567862   -2.0301347038   -1.2261606390
 C   -0.6108088062   -2.7240116815   -1.4105941567
 O   -0.8362770336   -3.8075878245   -0.8994457409
 C   -1.5271822471   -2.0250940307   -2.2961858478
 C   -1.2181424297   -0.7929403558   -2.7757728870
 N   -0.0982273169   -0.0963480257   -2.4360839916
 H    1.0817377892    2.0187230212   -0.0169696360
 H   -0.5624457689    2.0436883989   -0.6770986062
 H   -0.3154743837    1.9668309875    1.0636278246
 H    0.6695730590   -0.3115683444    0.8857125827
 H   -0.9407190857   -0.3038842574    0.1841224443
 H    1.6821975009   -0.0917226880   -1.3741251748
 H    1.3872803455   -2.3729557262   -2.0508113146
 H    1.2003670240   -2.3809174011   -0.2958462584
 H   -2.4385742604   -2.5221240385   -2.6015256399
 H   -1.8652818070   -0.2919334774   -3.4908785314
 H   -0.0705035212    0.8774950032   -2.6887098786