19

 C    0.0557894832    1.5404749605   -0.0596223586
 O    1.4092482968    1.5544937041    0.4301465191
 C    1.4633683681    0.1110822128    0.4731438300
 C    0.0127279303   -0.0016800504   -0.0501247421
 C   -0.9812928673   -0.6445242637    0.9146110334
 O   -0.8102881422   -2.0556651588    0.9288240182
 C   -0.9566813262   -2.5941060326   -0.3588139883
 O   -0.0146027067   -2.0914514791   -1.2694115169
 C   -0.1403873848   -0.6823435134   -1.4085394400
 H   -0.6412013919    2.0378224638    0.6290053778
 H   -0.0337940000    2.0105154189   -1.0487622380
 H    2.2372037688   -0.2942008593   -0.1896283532
 H    1.6296309129   -0.2669830017    1.4889014016
 H   -0.8291733287   -0.2978259605    1.9406362821
 H   -2.0131273458   -0.3890597261    0.6144422006
 H   -0.7848224430   -3.6689298932   -0.2791101468
 H   -1.9800684223   -2.3933626715   -0.7325129423
 H   -1.1226383678   -0.4291044956   -1.8456883867
 H    0.6366872866   -0.3637563043   -2.1090571397