21

 C   -0.1094300455    1.6052075388    0.3791513523
 N   -0.0583284982    0.1767040173    0.1653375859
 C   -1.2694849437   -0.6209818729    0.4640071152
 C   -0.3547946005   -1.6842407195    1.0764318117
 C    0.7636944133   -0.6395192193    1.0837599578
 N   -0.7214204217   -2.6212443996    2.1277895180
 C   -0.2409803215   -3.1332728489    0.8163965625
 C   -1.2810027567   -3.9244189310    0.0600343325
 O   -1.5495085185   -5.1600338653    0.7001823367
 H    0.8764800437    2.0443704126    0.1930562725
 H   -0.8155297880    2.0596833403   -0.3237497623
 H   -0.4208922622    1.8835324483    1.4047270565
 H   -1.9249765849   -0.1676792525    1.2256217600
 H   -1.8699371359   -0.8849180780   -0.4130088298
 H    1.7473140060   -0.9266390677    0.6940948106
 H    0.8932000928   -0.1828180101    2.0811412678
 H    0.0161752026   -2.6747809827    2.8265703445
 H    0.7648030191   -3.5504143108    0.7899790850
 H   -2.1959873614   -3.3217375471   -0.0436875640
 H   -0.9231082208   -4.1654015630   -0.9464392142
 H   -1.7950150180   -4.9355298889    1.6058684807