21

 C   -0.1031349562    1.3713482479   -0.0731583050
 C    1.3319976867    0.9058047285    0.0306870442
 C    1.9524839671    0.8357225766    1.4296976565
 C    1.4834740086   -0.5198775968    2.0161440735
 C    0.1409752186   -0.8481876208    1.3020914563
 C   -0.0395844944   -2.2804810328    0.8639735994
 C   -0.1340904432   -2.4073032288   -0.4598231115
 C   -0.0709727187   -1.0805315472   -1.1825071873
 C    0.2031848700   -0.0976451289   -0.0453588491
 H   -0.5637107891    1.8279924069    0.7998326344
 H   -0.4255812281    1.7990546510   -1.0184135003
 H    1.9811387263    1.0714550266   -0.8233525102
 H    3.0437591439    0.8998976980    1.3914757438
 H    1.6108706195    1.6727852781    2.0506443749
 H    2.2146247669   -1.2947909657    1.7596755062
 H    1.3958544654   -0.5054952942    3.1070561367
 H   -0.7016755786   -0.5164240718    1.9254409826
 H   -0.0751243793   -3.1027304382    1.5712503928
 H   -0.2576115461   -3.3470697175   -0.9878752694
 H    0.7090911348   -1.0643979177   -1.9555573651
 H   -1.0175562044   -0.8655010028   -1.6986870533