15

 C    0.0572404595    1.4699938384    0.1213806546
 O    1.3822038957    2.0419365290    0.0781725099
 C    2.1765497111    1.4232671177   -0.8189102749
 C    1.9892839190    0.1156257409   -1.2195524264
 N    3.0715697507   -0.1364293813   -2.0448375750
 C    3.8128327487    1.0051859842   -2.0875517110
 N    3.3005475541    1.9710159572   -1.3404190533
 C    0.9643418983   -0.7014925347   -0.6317845865
 C    0.0422858223   -0.0440606257    0.0926060462
 H   -0.3916425849    1.8583552643    1.0379452620
 H   -0.5164193516    1.8734784723   -0.7326673683
 H    3.2525865236   -0.9824654538   -2.5581446364
 H    4.7043556878    1.0891801813   -2.6897281921
 H    0.9797498873   -1.7835267302   -0.7100333125
 H   -0.7405388616   -0.5597927897    0.6359250636