18

 O   -0.0115435289    1.3498697794    0.1561236876
 C    0.0084483519   -0.0238966037   -0.0234748629
 C   -0.5361085559   -0.7050935190   -1.2664548205
 C   -0.3434497991   -2.1198954447   -0.7683784465
 C    1.0594099817   -2.2905637486   -0.1013768291
 C    0.2782122787   -3.1382091738    0.9346423254
 N   -0.8873839845   -2.2016362599    0.6716599467
 C   -0.3213223976   -0.9106596994    1.1398123478
 C    1.1010677000   -0.9120204364    0.5753732101
 H    0.6613605827    1.7366030680   -0.4148190706
 H   -1.5865026911   -0.4572693578   -1.4474227375
 H    0.0481161392   -0.4962664633   -2.1702733034
 H   -0.7049142070   -2.9449816449   -1.3798721714
 H    1.9437138322   -2.6404963065   -0.6366739009
 H    0.0300643775   -4.1462151710    0.5904463558
 H    0.6265869280   -3.1623267782    1.9705130156
 H   -0.6008285219   -0.5350662973    2.1141519968
 H    1.9537309043   -0.5111285029    1.1062153269