20

 C   -0.2543631214    1.3089529590   -0.5360266528
 O   -0.1094575114   -0.0377414547   -0.1451556570
 C    0.6866621722   -0.7946884833   -1.0353941063
 C    0.7007234060   -2.2281448262   -0.5277034357
 N   -0.6494609172   -2.7559565585   -0.4416097268
 C   -1.0272078425   -3.9370661290   -0.9787851144
 O   -0.2698104034   -4.6986357976   -1.5660034557
 C   -2.5046889498   -4.3162419495   -0.8200738056
 O   -2.7477573814   -5.5409926384   -1.4444789263
 H    0.7170111976    1.8246857953   -0.5787239173
 H   -0.7346428791    1.3968132295   -1.5227264266
 H   -0.8828815304    1.8004432465    0.2101688799
 H    0.2683029729   -0.7546424750   -2.0543843953
 H    1.7144309980   -0.3988168640   -1.0755849016
 H    1.2632856923   -2.8746570387   -1.2037436945
 H    1.1839099675   -2.2564825092    0.4571439677
 H   -1.3358924316   -2.1632580662   -0.0006323280
 H   -2.7452994706   -4.3599260400    0.2547719431
 H   -3.1278171234   -3.5179598533   -1.2547584388
 H   -1.8774809144   -5.8091403966   -1.7876078081