16

 O   -0.1842831466    1.4325807526   -0.0009621724
 C    0.0107492284    0.0782690164   -0.0221897136
 C    0.0428325646   -0.9880848842    1.0526340275
 C   -1.0180260892   -1.0068773375   -0.0745998917
 C   -0.2486541326   -1.8697560215   -1.1248426543
 N    0.5315338515   -2.9251740766   -0.4405896199
 C    1.1474601706   -1.8342804385    0.3516963889
 C    0.9375171952   -0.8543057366   -0.8742198877
 O    1.8778209651   -0.4123099401   -1.7656613471
 H    0.6062489460    1.8486962429    0.3616726048
 H   -0.2234906236   -0.9273712230    2.0996685385
 H   -2.0795019838   -0.9431162817    0.1232394213
 H   -0.7136220250   -2.1012861379   -2.0828405018
 H   -0.0286657760   -3.5795500888    0.1054452002
 H    2.0882819747   -2.0327271035    0.8652845103
 H    2.2954860007   -1.1831758319   -2.1693068831