16

 C   -0.0383628280    1.5400323973    0.0470179370
 C   -0.0101047333    0.0110474148    0.0249530459
 C    0.7037069358   -0.5340194629   -1.2301275705
 C    0.7528840837   -1.9844243067   -1.2900842222
 C    0.7846400324   -3.1920955322   -1.3246645567
 C    0.8220401034   -4.6216112074   -1.3665537723
 O    1.3245144029   -5.2873221874   -2.2434995602
 C    0.1736456132   -5.2723830267   -0.2095657526
 N   -0.3320062893   -5.7889542582    0.6929314027
 H    0.9745471232    1.9573177569    0.0442971075
 H   -0.5661511435    1.9413779182   -0.8250389158
 H   -0.5473876601    1.9072764218    0.9424222693
 H    0.4987647618   -0.3723301900    0.9157432695
 H   -1.0295447246   -0.3881499241    0.0534432392
 H    0.2057446416   -0.1633488649   -2.1365528240
 H    1.7309852409   -0.1473494384   -1.2760425967