18

 C   -0.1470621101    1.4894205930    0.0740445444
 C    0.1357908274    0.0227261486   -0.0049942350
 C    0.2088692237   -0.8088051919   -1.2408935148
 C    1.2297224042   -1.9114187035   -1.1210266534
 C    1.0974702273   -2.1532649790    0.3729018375
 O    1.7635854805   -3.1749240363    1.0309307559
 C   -0.3157780473   -1.8662614949    0.7904904096
 C    0.7574772475   -0.8501239616    1.1006616041
 N   -0.9344936343   -0.9990518364   -0.2750734276
 H    0.7795215641    2.0729547595    0.0192026502
 H   -0.7946701392    1.7958423107   -0.7528170394
 H   -0.6529381598    1.7432922394    1.0119006092
 H   -0.0822862173   -0.3996259424   -2.2018315689
 H    0.9676378411   -2.8032589750   -1.6993837483
 H    2.2324006418   -1.5792482227   -1.4152167484
 H    2.6886203899   -2.9221381655    1.1240947592
 H   -0.9210648449   -2.5033015503    1.4210103981
 H    1.1877524153   -0.5437410418    2.0441650474