21

 C   -0.4832252393    1.3436641698   -0.4300038980
 O    0.1966655461    0.1711032897   -0.0185251269
 C    0.8052158883   -0.5500117000   -1.0397731527
 C   -0.0520723996   -1.3406591031   -2.0181012158
 C    0.8029370901   -2.0408222090   -0.9761183073
 O    2.0482476271   -2.5639937321   -1.3454142453
 C    2.7713711111   -1.5230146086   -2.0010529397
 C    2.2178434825   -0.1695789019   -1.4939223418
 C    2.3531980892    0.9392838823   -2.5402043502
 H    0.2077880469    2.1343308898   -0.7513532457
 H   -1.1831881224    1.1378277180   -1.2513455860
 H   -1.0449070313    1.7027091380    0.4358424194
 H   -1.1194433703   -1.3436682343   -1.8245520261
 H    0.2192798928   -1.3899113429   -3.0673776213
 H    0.3314214784   -2.5921087412   -0.1719089257
 H    3.8341757662   -1.6605152166   -1.7833201252
 H    2.6398150650   -1.5996419506   -3.0914538771
 H    2.7518839421    0.1233670607   -0.5814044642
 H    1.7341721908    0.7294899694   -3.4192117365
 H    2.0539916752    1.9122756591   -2.1415737354
 H    3.3915516112    1.0309944634   -2.8783414484