21

 C    0.0088545471    1.4889900651   -0.0413085747
 C   -0.0342472196   -0.0213510996    0.0052895459
 C   -0.8561982817   -0.7339121840    1.0477647435
 C    0.6572561691   -0.7891892477    1.1185880603
 C    1.4174499492   -2.0580763895    0.7158996461
 C    1.3133182184   -2.2760072501   -0.7956094764
 C    1.6309684545   -0.9958993295   -1.6002805223
 C    0.1330312567   -0.7234282870   -1.3379789878
 O   -0.0885665023   -2.1528156555   -1.1860215903
 H    0.9230629397    1.8528571187   -0.5261066199
 H   -0.8442750646    1.8933814912   -0.5997879296
 H   -0.0224855444    1.9151959847    0.9660754667
 H   -1.3700176746   -0.1246459846    1.7845243043
 H   -1.3748908443   -1.6364074889    0.7477180500
 H    1.1147421276   -0.2020842610    1.9092480715
 H    2.4753548872   -1.9662144887    0.9911761544
 H    1.0267715482   -2.9383969921    1.2404689830
 H    1.7479517192   -3.2242090986   -1.1232505759
 H    2.3620477969   -0.2922931747   -1.1956015116
 H    1.8429181813   -1.2150736220   -2.6478822108
 H   -0.4888975736   -0.2945875262   -2.1300497865