17

 O    0.2689294063    1.3072541849    0.4186205155
 C    0.0574715173   -0.0470245247    0.0948302887
 C   -0.7373478130   -0.8741774775    1.0779576346
 C   -1.3842699663   -0.3608692423   -0.1918953430
 C    1.1469077932   -0.6507631474   -0.7105815950
 C    1.7565339780   -1.8583358858   -0.5552617218
 O    2.7200701978   -2.0411249511   -1.4967676724
 C    2.7366064396   -0.9179863202   -2.2640307008
 C    1.8027929842   -0.0336711431   -1.8354831991
 H    1.0711609339    1.3539193230    0.9513679813
 H   -0.5382161892   -1.9365909120    1.1638966898
 H   -1.0063336050   -0.3821572050    2.0054068776
 H   -2.0791654057    0.4661294898   -0.1008294965
 H   -1.6034037503   -1.0689954693   -0.9822244785
 H    1.6267485986   -2.6677253483    0.1436347486
 H    3.4624618069   -0.9077286265   -3.0603593459
 H    1.5902092937    0.9408161954   -2.2451136830