15

 N   -0.1315248101    1.4813856668    0.1599885637
 C   -0.1174798248    0.0468250484    0.0441346360
 C   -0.5190352853   -0.8219546898    1.2125042983
 N   -1.6092373808   -0.2090473847    1.9855028054
 C   -2.4468952878   -0.1528238522    0.8222536348
 N   -3.6543690333    0.1399072139    0.6087315553
 C   -1.3966242668   -0.7479156983   -0.0628846869
 O   -1.5997920838   -1.5830231282   -1.1308370297
 H    0.7993776823    1.8313242323    0.3640865211
 H   -0.4303890576    1.9082669848   -0.7110286248
 H    0.6548266450   -0.4234779769   -0.5715904405
 H    0.0711228052   -1.6310692365    1.6222240803
 H   -1.3953632432    0.6958803933    2.3981575320
 H   -4.1076889022    0.4794394449    1.4596526155
 H   -2.4001055468   -2.0922618578   -0.9553964405