20

 O   -0.0667397359    1.1111095164   -0.9298661443
 C   -0.0718447679    0.0041016623   -0.0434901079
 C   -1.3756795524   -0.7540873271   -0.2550381329
 C   -1.4866138317   -1.9887874111    0.6594818341
 C   -2.7300596241   -2.7278633599    0.4750603808
 C   -3.7686788188   -3.3173605904    0.3072672101
 C   -4.9892366173   -4.0501202349    0.1189939247
 C   -5.9558294509   -3.6353156644   -0.9419776751
 N   -5.1859822807   -4.8729498235   -1.1021335594
 H    0.7519581098    1.5983159447   -0.7998743287
 H    0.7835587346   -0.6655082291   -0.2343530821
 H    0.0018798720    0.3317987015    1.0070252588
 H   -2.2164689420   -0.0781570496   -0.0688081753
 H   -1.4421920480   -1.0619817955   -1.3036365603
 H   -0.6324287787   -2.6565777231    0.4806663056
 H   -1.4069153357   -1.6758116609    1.7095922502
 H   -5.3918549426   -4.5210796534    1.0124174236
 H   -7.0197886037   -3.7751149395   -0.7725760252
 H   -5.6938731581   -2.7688570367   -1.5417394570
 H   -4.4039897281   -4.7070661362   -1.7315409497