20

 C   -0.0033505820    1.5305861921    0.0705214522
 C    0.0420896998    0.0128888525   -0.0048754997
 C    0.7669842114   -0.4952174778   -1.2505853597
 N    0.9621804823   -1.9320626595   -1.1430465102
 C    0.9892189276   -2.6490746304    0.0161032163
 O    1.2212125320   -3.8445756174    0.0410033942
 C    0.6483064659   -1.8713410257    1.2972792989
 C    1.5649934401   -2.2764716333    2.4424447218
 O    0.7271870457   -0.4604380837    1.1433616613
 H    1.0101304902    1.9412091990    0.1079090543
 H   -0.5190055773    1.9481820384   -0.7994752646
 H   -0.5327850991    1.8453295141    0.9729284175
 H   -0.9851466751   -0.3915140549   -0.0094754613
 H    0.1746164153   -0.2756809267   -2.1465306249
 H    1.7286131113    0.0295947809   -1.3473295426
 H    1.2227877582   -2.4584801476   -1.9646970916
 H   -0.3911442309   -2.1529177182    1.5445149404
 H    2.5915309382   -1.9614321195    2.2345643533
 H    1.2368982564   -1.8026603613    3.3707043641
 H    1.5468080200   -3.3611157109    2.5549552202