19

 C   -0.2682047254    1.5491057855    0.0514775735
 C    0.0037113242    0.0797159441   -0.0159740746
 C    0.0966337209   -0.6745086369   -1.1266739672
 C    0.2189708088   -2.1034847651   -0.7521806941
 C    1.2659934329   -3.2278087530   -0.8708911706
 C    1.3014791699   -3.2813886037    0.7038869081
 C    0.2361583847   -2.1659195764    0.7181139881
 C    0.1397416631   -0.7572088973    1.2666068706
 O   -0.8995987746   -2.6346174995   -0.0059322260
 H    0.4914009593    2.0673622174    0.6505703715
 H   -0.2876401105    2.0008300587   -0.9437972456
 H   -1.2341151150    1.7502425692    0.5323541316
 H    0.0307908634   -0.2955821777   -2.1399281920
 H    0.9320560292   -4.1270898297   -1.3928408381
 H    2.2124627125   -2.8894652019   -1.2978214190
 H    1.0063351147   -4.2188397972    1.1809480679
 H    2.2646880418   -2.9573502167    1.1054633876
 H    1.0397431118   -0.4773518657    1.8293915683
 H   -0.7130101019   -0.6084963939    1.9397037401