22

 C    1.1334966897   -1.3337849062   -1.4208499497
 C    0.3566205806   -0.4544921344   -0.4372117086
 C    0.2355477944    0.9815834568   -0.9577869382
 N   -1.0089820884   -0.9984989223   -0.3226139809
 C   -1.9084802689   -0.6414405461    0.8476039098
 C   -2.7821750051   -1.8390772099    0.3904360377
 C   -1.3020147851   -2.3130256130    0.3836155216
 C   -1.1806137473   -1.6683551316    1.7892507751
 O    0.1101143621   -1.4491551887    2.2914702423
 H    2.1292971337   -0.9179506331   -1.6039959620
 H    1.2647144401   -2.3483498283   -1.0311128171
 H    0.6020234761   -1.4010906320   -2.3760870221
 H    0.8961053018   -0.4378539552    0.5145618141
 H   -0.3143037163    1.6163161147   -0.2546524784
 H    1.2269937747    1.4240535630   -1.0987135080
 H   -0.2964789067    0.9995964833   -1.9144566453
 H   -2.2248970792    0.3829531624    1.0524949446
 H   -3.4560215580   -2.2891735493    1.1215934763
 H   -3.2220732901   -1.7240785952   -0.5976266937
 H   -0.9015664978   -3.2668841260    0.0383004504
 H   -1.8231465090   -2.1140367381    2.5635431741
 H    0.0328354388   -0.9538942908    3.1129115979