23

 C   -0.8553113233    1.2305656289    0.0342198369
 C    0.0939885498    0.0348837487   -0.0111251309
 C    1.1665123305    0.1066031037   -1.1140494421
 C    2.3025028630   -0.7943367648   -0.6229081998
 O    3.3029680029   -1.0733880697   -1.2339862836
 C    1.9575266374   -1.2762161898    0.7931486525
 C    3.1823564939   -1.5733214924    1.6525207896
 C    0.9083980255   -0.2499159240    1.2889337188
 C    1.5366637523    1.0033359921    1.9128936578
 H   -0.3139727453    2.1742564757    0.1569587327
 H   -1.4326264859    1.3024688219   -0.8934768966
 H   -1.5681780701    1.1422865473    0.8616130856
 H   -0.5097569009   -0.8642384452   -0.1969223926
 H    0.8228067860   -0.1989504850   -2.1062128096
 H    1.5669207616    1.1232768776   -1.2221518575
 H    1.4154485039   -2.2220255059    0.6252027174
 H    3.7680401749   -0.6702969944    1.8459993992
 H    2.8985579972   -2.0093294129    2.6152813675
 H    3.8352950381   -2.2772103382    1.1301134646
 H    0.2528819768   -0.7079854501    2.0383440541
 H    2.2165505209    1.5162098143    1.2225594413
 H    0.7676101625    1.7201771427    2.2132057887
 H    2.1119536984    0.7489335694    2.8074877258