19

 C   -0.4355704650    1.5355964435    0.3448589604
 C   -0.1252998526    0.0499498231    0.2327516719
 C    0.2849139947   -0.5009996578   -1.1409289325
 N    1.5860166295    0.1320470574   -1.4743862910
 C    1.5466953465   -1.0643315077   -0.6007481780
 C    1.2313980018   -0.5599430540    0.8138955774
 C    2.2318014400    0.3778147366    1.4677902661
 O    0.9842496379   -1.7042366003    1.6180796319
 H    0.3361031075    2.1321446655   -0.1479172362
 H   -1.3959859991    1.7667106074   -0.1297116847
 H   -0.5028527345    1.8546311448    1.3909858127
 H   -0.9345398010   -0.5579206156    0.6485547164
 H   -0.3614233886   -0.8761713944   -1.9254558980
 H    1.8490240318   -0.1865130233   -2.4061267537
 H    2.0781938968   -1.9747423203   -0.8494193767
 H    2.5076086642    1.1844866521    0.7857377199
 H    1.8136844185    0.8259113220    2.3780885882
 H    3.1339776648   -0.1763765165    1.7457511500
 H    0.6990050366   -1.3973724023    2.4855294059