15

 N   -0.0587027157    1.3252341691    0.3803444116
 C   -0.0197739448    0.1102358838    0.0103189031
 C   -1.3147504688   -0.6488360713   -0.1950612386
 C   -1.2208398852   -1.7438121691   -1.2266641607
 O   -0.5187339517   -1.4242320031   -2.4215263229
 C    0.0865023168   -2.3581559312   -1.5116299799
 C    1.3063272414   -1.8574935151   -0.7937779164
 O    2.3575840070   -2.4582448331   -0.7837414023
 N    1.1520576924   -0.6389834873   -0.1521921017
 H    0.8766992262    1.7140412554    0.5172986523
 H   -1.6065165690   -1.0975545059    0.7640310760
 H   -2.0875524811    0.0770931075   -0.4563076586
 H   -2.1133550676   -2.3518608445   -1.3693356318
 H    0.1746071115   -3.3792182779   -1.8710666810
 H    2.0173430685   -0.2413265772    0.1907659910