14

 C    0.0064306911    1.4470088287   -0.0599014413
 N   -0.0489342526    0.0026609860    0.0760247196
 C    0.6570181337   -0.6151875181    1.0927937354
 O    1.1868842004   -0.0034568114    2.0045529697
 N    0.7049355319   -1.9929602619    0.9768715761
 C    1.2119817636   -2.7877469469    2.0809278543
 H    0.8531579054    1.7872784719   -0.6716600440
 H   -0.9210493944    1.8149810783   -0.5081982890
 H    0.1182919087    1.8713053169    0.9379127588
 H   -0.1710745989   -0.5224827731   -0.7757516435
 H   -0.0019997922   -2.4248546788    0.4024696028
 H    0.4360384994   -3.0454753833    2.8147332722
 H    1.6570991802   -3.7119784294    1.7011280501
 H    1.9769158937   -2.2011674488    2.5898176490