20

 C   -0.0463527261    1.5520525529    0.0073858660
 C    0.0592804776    0.0228475946    0.0635523800
 C    0.7822053879   -0.4572430296    1.3265882678
 C   -1.3637692867   -0.5818042937   -0.0257333225
 C   -1.4124600666   -2.0352878912    0.0600985011
 C   -1.4664908798   -3.2327644001    0.1419943445
 O    0.7038208597   -0.4768303323   -1.1341062161
 C    1.9836879258   -0.1552250973   -1.3888933532
 N    2.5267212127   -0.5513978038   -2.4596102241
 H    0.9389174096    2.0241228873    0.0508920652
 H   -0.5369543733    1.8676200500   -0.9177574999
 H   -0.6282523940    1.9247941696    0.8556501359
 H    0.2049887665   -0.1776876691    2.2133760537
 H    0.8869960979   -1.5439287009    1.3118287596
 H    1.7730895261   -0.0061105535    1.4244294282
 H   -1.9719828207   -0.1444634391    0.7752040316
 H   -1.8043325512   -0.2556587400   -0.9747806771
 H   -1.5108092223   -4.2920972021    0.1989472218
 H    2.4691337820    0.4473445358   -0.6129488328
 H    3.4918137549   -0.2290122874   -2.4936355697