18

 O   -0.3419099658    0.0591256843    0.3046546880
 C   -0.0389203663    1.1952575595    0.0535831825
 C    1.3883839906    1.6772725291   -0.1718607960
 N    1.4309309265    2.7308384462   -1.1547872530
 C    1.4451583413    2.3628376042   -2.5962699507
 C    2.5737206199    3.3834788926   -2.8366165473
 O    2.1288473564    4.7428423847   -2.9919229343
 C    2.3289633288    5.0275795491   -1.5821147953
 C    2.6545643460    3.5520784423   -1.2997152826
 H   -0.7938405470    2.0095407102   -0.0263019746
 H    1.7267538984    2.0875251946    0.7914244861
 H    2.0226195536    0.8014431128   -0.3979067764
 H    1.7799067906    1.3284107644   -2.7702502123
 H    0.5050356581    2.5378074752   -3.1281408067
 H    3.3866710169    3.1212963882   -3.5160130171
 H    3.1666136513    5.7220690173   -1.4367626879
 H    1.4263930110    5.4139433050   -1.0981470014
 H    3.5015108099    3.2884724704   -0.6629998709