18

 O    0.2650585285    1.5270459199   -0.0941324461
 C    0.0742378746    0.1253797397    0.0110443707
 C    0.5537984435   -0.5721441850   -1.2050307343
 N    0.9581560293   -1.1106380605   -2.1442402990
 C    0.7035678331   -0.4559098205    1.2510530496
 C    2.1616365869   -0.8319371249    1.3454392193
 C    1.1206486419   -1.8885089718    1.5957235168
 C    0.5391305804   -1.7366113948    3.0070378461
 C    0.1225443026   -0.2684081507    2.6610296606
 H    1.2127328204    1.6953107759   -0.0268670656
 H   -1.0135859551   -0.0064739178    0.0557733559
 H    2.6869776426   -0.9265349252    0.4001298520
 H    2.7676054864   -0.4511779359    2.1646624129
 H    1.0636290832   -2.7723279079    0.9720009198
 H   -0.3248418798   -2.3786598550    3.1888340831
 H    1.2503723272   -1.8672294461    3.8283147620
 H    0.5684582531    0.5320278718    3.2585668765
 H   -0.9618955690   -0.1338953312    2.6564063698