15

 C   -0.1215373212    1.5237626559   -0.1521678516
 C    0.0750809357    0.0143234251   -0.0066565536
 O    0.7885768674   -0.3169321171    1.2157456500
 C    0.1340243180   -0.1704848260    2.3904985400
 O    0.6689899620   -0.3557236535    3.4398742398
 C   -1.2682195644   -0.7612167452   -0.0384643442
 O   -2.3098389292   -0.2779848532   -0.3818500563
 C    0.8678279833   -0.5443245700   -1.0979640943
 C    1.4548454006   -1.0235147913   -2.0297722910
 H    0.8485346079    2.0233631819   -0.1293467642
 H   -0.6191394525    1.7395461218   -1.0988476187
 H   -0.7481745885    1.9086702066    0.6560509010
 H   -0.9267142515    0.1227686781    2.2775042154
 H   -1.1627615244   -1.8235058526    0.2673023606
 H    1.9952172469   -1.4364279705   -2.8466020330