23

 C    0.4583757425    1.6018021137   -0.6274130022
 C    0.2291797506    0.2026056983   -0.2944203836
 C    0.0416348163   -0.9567522625   -0.0252241178
 C   -0.1963419651   -2.3516882234    0.3184106332
 C    0.4598407336   -2.8058614058    1.6582595727
 C   -0.4498879471   -3.9380864059    2.2095571705
 C   -1.6082318247   -4.1062193994    1.1931137159
 C   -2.9208793719   -4.5833675893    1.8114209093
 C   -1.6819489724   -2.7356594035    0.5027510807
 H    1.5209425053    1.8012332024   -0.8069398537
 H   -0.0881288324    1.8920423136   -1.5319421337
 H    0.1312800262    2.2648739019    0.1814577503
 H    0.2052001308   -2.9821383367   -0.4874496431
 H    1.4930675669   -3.1259932806    1.5020601998
 H    0.4912028608   -1.9597078626    2.3497115308
 H    0.0932274126   -4.8758301990    2.3592791449
 H   -0.8558666085   -3.6543450063    3.1870540929
 H   -1.2963070896   -4.8398577895    0.4361946509
 H   -3.2779495503   -3.8724531045    2.5659523750
 H   -3.7057047730   -4.6890419693    1.0547287522
 H   -2.8001789282   -5.5553184724    2.3021191409
 H   -2.1695244505   -2.0037675454    1.1595603748
 H   -2.2333745520   -2.7511583938   -0.4417715308