20

 C    0.0568965285    1.5470033786   -0.2213615617
 C    0.0406453736    0.0428021637    0.0859522821
 C   -1.3524680682   -0.5201798108    0.1151578227
 C   -2.1392941047   -0.9760644920   -1.1284425712
 C   -1.9409676348   -1.9169444678    0.0080642336
 C   -1.3724022532   -3.2942932275    0.0207565871
 O   -2.9415704497   -1.5976470181    1.0295110419
 C   -2.3546475605   -0.3477068203    1.2104300854
 N   -2.5812063906    0.5394100164    2.0681058633
 H    1.0800681988    1.9346487941   -0.2174142200
 H   -0.3802457146    1.7514983250   -1.2041529183
 H   -0.5226977106    2.0944024270    0.5268951846
 H    0.6320881291   -0.5004126085   -0.6616266258
 H    0.5200707158   -0.1370463033    1.0555704439
 H   -3.1280803512   -0.5812152109   -1.3409574852
 H   -1.5104268218   -1.1424925188   -1.9991345777
 H   -0.5596192658   -3.3739649994   -0.7067243636
 H   -0.9828563973   -3.5471697120    1.0112687712
 H   -2.1378538674   -4.0311876310   -0.2459470025
 H   -3.3362213857    0.2611040554    2.6974600602