17

 C   -0.2013278513    1.3172596868   -0.0085594919
 C   -0.5111495064   -0.1749704642   -0.1556329611
 N    0.0575021061   -1.1058861166    0.8071743221
 C    0.7945144562   -0.6809014347    1.7434319351
 N    1.3314214624   -1.5713212120    2.6628631194
 C    2.1932093856   -1.1755351596    3.6768353226
 N    2.6346345877   -2.2213199440    4.4653721302
 O    2.5540095679   -0.0262585501    3.8305725489
 H    0.8722552365    1.5204610919   -0.0822403724
 H   -0.7003395780    1.8750439610   -0.8066701548
 H   -0.5568596738    1.7158416670    0.9475686910
 H   -1.5996666729   -0.3230442978   -0.1376504107
 H   -0.1953898776   -0.5144307954   -1.1516840535
 H    1.0883990248    0.3487621046    1.9491403937
 H    1.1311892945   -2.5467457786    2.4980840620
 H    2.0509075234   -3.0361697667    4.5735532026
 H    3.0993910350   -1.9161881815    5.3063225467