25

 C   -0.1459371729    1.4976752763    0.2273092237
 C    0.0221593160   -0.0029023666    0.0559184397
 O    0.6572217571   -0.5200254002    1.2051705462
 C    0.8627681187   -1.9147163170    1.1529602723
 C    1.5389826391   -2.3606790340    2.4422441420
 C    1.8075760684   -3.8700518433    2.4807938875
 C    2.4793850633   -4.3189478464    3.7616069553
 C    1.6560464883   -4.6287302649    4.9869995715
 C    2.3503926108   -5.7421651893    4.2393507451
 H    0.8273505175    1.9803595631    0.3538927978
 H   -0.6376405444    1.9304750041   -0.6491252681
 H   -0.7529995203    1.7166939994    1.1103787255
 H   -0.9591319488   -0.4875776770   -0.0886209869
 H    0.6216729507   -0.2241560229   -0.8443127568
 H   -0.1007380386   -2.4398053757    1.0240860167
 H    1.4866690001   -2.1785563585    0.2802437463
 H    2.4805467651   -1.8087201418    2.5515830110
 H    0.9076411957   -2.0711599585    3.2902463631
 H    0.8609302836   -4.4154810190    2.3630955463
 H    2.4304773153   -4.1546346684    1.6211078441
 H    3.4398826039   -3.8440583455    3.9491253151
 H    2.0398589641   -4.3423718553    5.9599340414
 H    0.5762617157   -4.5590007593    4.8996982523
 H    1.7352707923   -6.4180571765    3.6537868444
 H    3.2106234393   -6.2147928427    4.7005702444