17

 O   -0.1590922660    0.2171340926    0.5516990891
 C   -0.1106093325    1.3531779874    0.1580205339
 C   -1.3030921028    2.2822812199   -0.1144926282
 C   -0.6906853830    3.4624844900   -0.8973544591
 N    0.7445562656    3.5000803607   -0.5660523263
 C    1.1158598959    4.0395749324    0.7733154136
 C    1.8891853886    2.7335581928    1.0854534837
 C    1.1697367898    2.1406251235   -0.1536800635
 H   -2.0991266587    1.7466921932   -0.6362733505
 H   -1.7097219902    2.5936701051    0.8556257460
 H   -0.7993675590    3.3011067680   -1.9763251859
 H   -1.1518769652    4.4258935815   -0.6646571630
 H    1.6965662688    4.9656280840    0.7272577884
 H    0.2580728455    4.2020361100    1.4412106978
 H    2.9669908929    2.8198598150    0.9424842386
 H    1.6912246061    2.2470818781    2.0415340404
 H    1.7812009843    1.5849774959   -0.8733622552