14

 O   -0.6838131569    0.6066136872    0.6505013807
 C    0.0870614476    0.8940108735   -0.2276306155
 C    1.2940443625    1.7978710593   -0.0267556377
 C    1.3565919399    2.9163029575   -1.0716287471
 C    2.6511333042    3.7438159604   -1.2041975411
 O    2.8203726396    3.2780846789   -2.5823822443
 C    1.6975448401    2.4956560896   -2.5089459119
 O    1.2587550426    1.7649681314   -3.3376893464
 H   -0.0344047349    0.5068792448   -1.2613462682
 H    1.2562534273    2.2049885892    0.9875481487
 H    2.1942505385    1.1724359065   -0.1109891423
 H    0.4537361609    3.5327503090   -1.0366781758
 H    2.5436410362    4.8291484522   -1.1719585716
 H    3.4892559923    3.4192061104   -0.5836104974