15

 C    0.1313708216    1.4508492920    0.3259129770
 N    1.1207822660    2.1524925304   -0.5015116694
 C    2.1841578649    1.4139415092   -0.9615994583
 N    3.3570210068    1.8512818351   -1.3983549669
 N    3.9466206450    0.7050205537   -1.8065720768
 N    3.2518251948   -0.4143257133   -1.6583493369
 C    2.1109199405    0.0103015526   -1.1156293917
 C    0.9181577582   -0.6994473904   -0.7186940439
 C   -0.0257684593   -0.0046144355   -0.0680292989
 H    0.3846766396    1.4994849103    1.4032544177
 H   -0.8305765301    1.9665246863    0.2186267466
 H    1.3299764621    3.0998324216   -0.2245860956
 H    4.8791522469    0.7044906847   -2.1812819762
 H    0.8000648447   -1.7510650321   -0.9538675419
 H   -0.9405175019   -0.4858185645    0.2618505954