19

 O   -0.0003327930    1.3874046756    0.1446237865
 C    0.0533818353    0.0023624103    0.0580347428
 C    0.6964555954   -0.9729041405    1.0712850026
 C    0.0403023655   -1.8563309275   -0.0082203062
 C   -1.2118601993   -0.8982693084   -0.0351495261
 C   -1.7600899993   -0.8826150159   -1.4563805779
 C   -1.4228452337    0.3007675210   -2.3354445162
 C   -0.4743497059   -0.8760849398   -2.2569830265
 C    0.5567870815   -0.8902855635   -1.1374535116
 H    0.9023878395    1.7244952410    0.1420150684
 H    1.7898262136   -0.9848039204    1.1197806864
 H    0.2531905891   -0.9982103897    2.0703817802
 H    0.0196729938   -2.9431712465   -0.0559858728
 H   -1.9036978216   -0.9099029109    0.8087882317
 H   -2.5977068694   -1.5220777634   -1.7101050760
 H   -1.9944752411    0.3913081222   -3.2542493213
 H   -1.1486687313    1.2422016244   -1.8772289457
 H   -0.3297810575   -1.5089395076   -3.1252761051
 H    1.6209204183   -0.8896829005   -1.3840367834