24

 C    0.1640651327    1.5599676338   -0.1513548603
 C    0.0246946963    0.0421152741   -0.0098723746
 C    0.8033418807   -0.5176046050    1.1878669874
 C    0.6855161631   -2.0386958870    1.3453918400
 O    1.1625537929   -2.7135004264    0.1788159817
 C    1.3752957634   -2.5806964320    2.6068709786
 C    0.9339398946   -1.9610653554    3.9175569521
 C    1.8035392198   -4.0008655755    2.5959622339
 N    2.8091815403   -2.9156650548    2.5375040870
 H    1.2103944849    1.8514106271   -0.2968540674
 H   -0.4070901124    1.9339838258   -1.0065151765
 H   -0.1990493911    2.0768219176    0.7439484083
 H   -1.0347332107   -0.2232452442    0.1012326600
 H    0.3572656899   -0.4476504143   -0.9325889464
 H    1.8688340944   -0.2508478944    1.1048409979
 H    0.4456669674   -0.0331545264    2.1025494238
 H   -0.3808808330   -2.2979201347    1.4183684073
 H    1.8162057183   -2.1509965626   -0.2475499507
 H   -0.1559982453   -2.0082792217    4.0280605924
 H    1.3848002200   -2.4970082487    4.7560180960
 H    1.2393292693   -0.9130981416    3.9961355767
 H    1.7979116742   -4.5686363988    3.5226264127
 H    1.6318136652   -4.5766104005    1.6929844008
 H    3.1138852450   -2.8432160845    1.5683167294