15

 N   -0.0639822732    1.3825945555    0.2511076833
 C    0.0139534038    0.0059945207    0.0725388221
 N   -1.1478789787   -0.6469077788   -0.0019166053
 C   -1.1046054910   -1.9814216905   -0.1103243552
 C    0.0648643184   -2.7122761839   -0.1603678736
 O    0.1582675352   -4.0807866604   -0.2792024448
 C    1.2855645823   -2.0183371903   -0.0904610473
 O    2.4590987874   -2.6875303254   -0.1382826245
 C    1.2608028379   -0.6415566202    0.0311886527
 H    0.6996543633    1.9193008864   -0.1314971826
 H   -0.9715323757    1.7518788815    0.0059074377
 H   -2.0656380627   -2.4937461719   -0.1657939882
 H   -0.7236814861   -4.4641188004   -0.3008844680
 H    2.2536849783   -3.6286412446   -0.2164866115
 H    2.1920038809   -0.0915944877    0.1009579254