19

 C    0.0687084708    1.4213560188   -0.0604590086
 N    0.1689591297   -0.0307920505   -0.0884035263
 C    0.4936582926   -0.6408051292    0.9667659229
 O    0.7930423494    0.0011893102    2.1390551781
 C    1.0117896884   -0.7876380248    3.3230846586
 C    1.0979774993   -2.2723614618    3.0063406065
 C    1.9548495796   -2.5023621174    1.7394292764
 C    0.6287214178   -2.1378348288    1.0215310539
 N   -0.1569024540   -2.5927615588    2.2354974826
 H    1.0515583832    1.8757711820   -0.2424007494
 H   -0.5958722815    1.7453313522   -0.8660488546
 H   -0.3045143327    1.8134103684    0.8928857083
 H    1.9394144623   -0.4241214750    3.7789998978
 H    0.1785241495   -0.6026989386    4.0097470580
 H    1.2800590216   -2.8554147553    3.9125901510
 H    2.8402131656   -1.8821485673    1.5696130866
 H    2.2050949037   -3.5574416401    1.6047038719
 H    0.3639912963   -2.5784523020    0.0625708191
 H   -0.2347882315   -3.6074261120    2.1751743472