21

 C   -0.0429947576    1.5314428474   -0.0364680567
 C    1.3059410438    0.8558210611   -0.0128358944
 C    0.0507173708    0.0225392933    0.0152636675
 C   -0.3407387198   -0.6897669504    1.3005998249
 C    0.5704822041   -1.8700091662    1.6852105671
 O    1.0848371976   -2.6442636847    0.6087650182
 C    0.2514052866   -2.8916778357   -0.4881231892
 O    0.3595799421   -1.9212884955   -1.4935737154
 C   -0.3476368645   -0.7148471180   -1.2517050122
 H   -0.3748770184    2.0517801594    0.8557545608
 H   -0.3683860364    1.9938770739   -0.9628014469
 H    1.8992946769    0.8520667552   -0.9206513488
 H    1.8934859267    0.9221573688    0.8967582696
 H   -0.3311897591    0.0111018637    2.1436789798
 H   -1.3798249594   -1.0302284038    1.2076536759
 H    1.4618131161   -1.4954303111    2.1988135309
 H    0.0354556621   -2.5198849339    2.3952333947
 H    0.6086871649   -3.8214458101   -0.9382990245
 H   -0.8010414871   -3.0128538667   -0.1747104470
 H   -1.4316318815   -0.9220634000   -1.2187575680
 H   -0.1554498080   -0.0900042167   -2.1289539061