10

 O   -0.2695578076    0.3168617191    0.7365824330
 C    0.2620193036    0.7747824971   -0.2390232031
 C    1.3836718229    1.7692334552   -0.1507760108
 O    2.3022356853    1.7680306519   -1.2451239991
 C    1.4664788751    2.9044153122   -1.1096672169
 C    0.4654916013    3.1145858332   -2.1357278200
 N   -0.3285092735    3.3147400510   -2.9508117677
 H   -0.0223477201    0.4959852326   -1.2745144671
 H    1.8142364055    1.9079963974    0.8392967871
 H    1.9591343774    3.8138345903   -0.7703823256