17

 C    0.0224416111   -1.1516213343   -0.0324724153
 C    0.0129023780    0.0511075521   -0.0051171198
 C   -0.0047438067    1.4820295273    0.0081844542
 C   -0.6871313327    2.4440858676    1.0500014106
 C   -0.0312443729    3.4006985160    0.0033250034
 C    1.2162286439    2.4673049204    0.0458105622
 C   -0.5788347209    2.4445540548   -1.0632217577
 C   -0.7019782713    2.4144511568   -2.5098557369
 O   -1.8571267574    2.4182316050   -1.6235575141
 H    0.0283496724   -2.2132582449   -0.0531568433
 H   -1.7771091419    2.4189932635    1.0847959081
 H   -0.2408837836    2.4434205596    2.0470851982
 H   -0.0453969081    4.4885520375   -0.0010789880
 H    1.7777966659    2.4679330322    0.9818998394
 H    1.8732914215    2.4636328601   -0.8267058358
 H   -0.5724355475    3.3235719783   -3.0945462042
 H   -0.5478366798    1.4822352878   -3.0502380010