16

 C   -0.9231800888    1.0182216358   -0.4858659556
 C   -0.2123669335   -0.2675101475   -0.2276004098
 C    0.4118001157   -1.2259306387   -0.9983202845
 N    0.5958232714   -1.3660342132   -2.3839479274
 C   -0.1096354153   -0.8472071732   -3.4243163741
 O   -1.0291061345   -0.0571719404   -3.3612806811
 N    0.9838156668   -2.2079795382   -0.2237219589
 C    0.7126109947   -1.8730441550    1.0152362358
 N   -0.0047018637   -0.7223614165    1.0673208669
 H   -0.2964487724    1.8840995299   -0.2358690601
 H   -1.1986067056    1.0784252705   -1.5377158504
 H   -1.8369775466    1.0899406567    0.1165676434
 H    1.2728853046   -2.0819330560   -2.6066374338
 H    0.2739415621   -1.2384135818   -4.3864270313
 H    1.0044892872   -2.4218492946    1.8975057140
 H   -0.3416994721   -0.2630869277    1.8971523970