19

 C   -0.0191898694    1.6566752375    0.2009717187
 C    1.4326772373    1.1758820324    0.0427539800
 O    1.1015940854    0.0173707928    0.9325321171
 C   -0.0073642078    0.1178946202   -0.0481288088
 C   -1.1409322068   -0.8238173207   -0.2890977944
 C   -1.6525835543   -0.4452067358   -1.7083609412
 O   -0.6321367794   -0.4087297843   -2.6961442832
 C    0.3640635279    0.6009209972   -2.4925032367
 C    1.0370892517    0.2775553998   -1.1661919739
 H   -0.2948083638    1.9457386187    1.2156098658
 H   -0.4423629299    2.3218936848   -0.5537399635
 H    2.3663206115    1.6973478189    0.2539673598
 H   -0.7729223092   -1.8552823850   -0.2896564728
 H   -1.9545970314   -0.7411226669    0.4392452497
 H   -2.3759300606   -1.1860647118   -2.0578942484
 H   -2.1652824780    0.5294604791   -1.6582233834
 H    1.0408712050    0.5219279510   -3.3470294762
 H   -0.0949727851    1.5998196252   -2.5134365194
 H    1.6806191568   -0.6012162729   -1.2496562291