19

 C    0.9124857290    0.8921196446    0.2911070902
 C   -0.2591139336    0.0111780688   -0.0661226530
 O   -1.2936499714   -0.0306272395    0.5522166920
 C   -0.0731631559   -0.8753998304   -1.3116062753
 O    0.1493591327   -0.0272249013   -2.4106685080
 C    0.3376911437   -0.7714120352   -3.6124542550
 C    1.4972815214   -1.7570060384   -3.4494385431
 C    1.2654420653   -2.5848242563   -2.1831102535
 O    1.0191183662   -1.7272902336   -1.0706650371
 H    1.7973046815    0.2695955192    0.4569018080
 H    1.1422203482    1.5502407046   -0.5527092230
 H    0.6830723168    1.4770529978    1.1819319453
 H   -0.9912653610   -1.4688736818   -1.4686355118
 H   -0.5907785284   -1.3114276767   -3.8610933638
 H    0.5276829363   -0.0402206361   -4.4017456733
 H    1.5737340232   -2.4091517704   -4.3264400353
 H    2.4356714490   -1.2011328107   -3.3532857270
 H    0.4081437067   -3.2639520690   -2.3221024329
 H    2.1379962004   -3.1877882456   -1.9208082634