14

 O   -0.1428362767    0.0336103157    0.0572740713
 C    0.0068332631    1.2138999803    0.0708104770
 C   -0.8470413524    2.4462665425    0.3822225344
 O    0.2476972693    3.2925443232   -0.0353800616
 C    1.1587253429    2.1948132069   -0.2539230761
 C    2.3114275935    2.1703879765    0.7198416879
 C    2.6977605149    3.3748006810    1.4638019687
 O    1.9572765258    2.3230235967    2.0926644038
 H   -1.7459934817    2.5755900129   -0.2316691460
 H   -1.0932347044    2.5688551746    1.4436737540
 H    1.5254169932    2.1524645944   -1.2885444173
 H    3.0577801671    1.4012697834    0.5180482193
 H    3.7264134068    3.4873350576    1.8016231496
 H    2.1388461484    4.2916001244    1.2971646652