16

 C    0.1048551195    1.4354425110   -0.3922572236
 C   -0.0235693604    0.1048150732    0.3571422269
 C   -1.4096426900   -0.4988637724    0.2176106098
 O   -1.7088230114   -1.0845572164   -1.0647376897
 C   -1.6070163418   -1.9692445793    0.0451849096
 C   -0.4865408902   -2.8850720376    0.0610287818
 N    0.3944798851   -3.6324892356    0.0955485542
 C   -2.4954652397    0.2384469127    0.8222488827
 C   -3.3771363598    0.8661998288    1.3440986853
 H    1.1141428774    1.8393959489   -0.2780877472
 H   -0.0887635546    1.2972438909   -1.4598453790
 H   -0.6038414217    2.1754971875   -0.0095052016
 H    0.7069802331   -0.6156605744   -0.0213671643
 H    0.1810099697    0.2450393251    1.4245195596
 H   -2.5461607581   -2.4055023072    0.3795096183
 H   -4.1618918070    1.4194846949    1.7994193872