15

 O   -0.0167146372   -0.0171781865   -0.0218333858
 C   -0.0480333555    1.1798836594    0.0365337156
 C   -1.2649495800    2.0545325547    0.1308334226
 C   -0.7925873843    3.4444570000    0.4012258950
 C    0.7260854287    3.3937180415    0.3331307841
 C    1.0806345254    3.0499976178   -1.0662247891
 C   -0.1986272619    3.0727107943   -1.8813713410
 N   -1.3202315080    3.1063560694   -0.9224609829
 N    1.1355404328    2.0106054670    0.0071432836
 H   -2.2165114410    1.6329867092    0.4337370333
 H   -1.3242337270    4.1620713141    1.0138839961
 H    1.3539990400    3.9472985230    1.0198586357
 H    2.0361592518    3.2903910073   -1.5228188491
 H   -0.2417207343    3.9859649897   -2.4849421740
 H   -0.3046635095    2.2154710190   -2.5532223941