20

 C    0.0181174680    1.3978410672    0.0258183666
 N   -0.0389695705   -0.0422508132   -0.0328237155
 C    0.4114372644   -0.7900834272   -1.1945791471
 C    0.0574636777   -2.2575732573   -0.8521742710
 C   -0.0607512193   -2.2502592911    0.6637682330
 C   -0.7283556190   -3.3227216793    1.4820663467
 C    0.7556111656   -3.1298371502    1.5915256930
 C   -0.2402836366   -0.8170762561    1.0805935081
 O   -0.5011074383   -0.4086094445    2.1971829327
 H    1.0387851871    1.7666388605   -0.1458057158
 H   -0.6401235476    1.8492644611   -0.7260297649
 H   -0.3071038820    1.7010486734    1.0226521944
 H   -0.0929875911   -0.4406534011   -2.1027170421
 H    1.4931825809   -0.6555083393   -1.3492223381
 H   -0.9011489312   -2.5240514031   -1.3094841922
 H    0.8096315612   -2.9548254528   -1.2283203009
 H   -1.3398468194   -2.9799786409    2.3096180207
 H   -1.0989333653   -4.1954040684    0.9545345630
 H    1.4090760488   -3.8635117683    1.1311168495
 H    1.1380246766   -2.6659406096    2.4938473399