19

 C    0.0072959685    1.5307461792    0.1300834925
 C   -0.2222025294    0.0406919803   -0.1523204656
 C    0.6588789534   -0.4995511075   -1.2721517403
 C    0.4209677167    0.1076297352   -2.6435196596
 N    2.0313773872   -0.8124879781   -0.8816980094
 C    1.1394688246   -1.9321202933   -1.2621998133
 C    0.8091272715   -2.9063423055   -0.1858917561
 O    0.4014723832   -4.0211145432   -0.4017007125
 H    1.0606934339    1.7188018697    0.3601466998
 H   -0.2734521153    2.1604881165   -0.7195574930
 H   -0.5886752188    1.8545817829    0.9882272400
 H   -0.0240677290   -0.5230941809    0.7625227020
 H   -1.2732318659   -0.1372683790   -0.4123720454
 H    0.6560870895    1.1769776174   -2.6451531978
 H    1.0442458890   -0.3748531433   -3.4027268584
 H   -0.6254449569   -0.0033821549   -2.9466255030
 H    2.6840862181   -0.6219365682   -1.6381863560
 H    1.2577542792   -2.3979346155   -2.2380419148
 H    0.9806718704   -2.5340839318    0.8469020608