15

 C    0.0925636689    1.5355121281    0.1667783307
 C   -0.0522272264    0.0462400734    0.0876650569
 C   -1.1950260730   -0.6636386131   -0.0563475544
 C   -2.5845738359   -0.1168429896   -0.1697643994
 C   -1.0998788357   -2.1283290225   -0.1109431798
 O   -2.0362700547   -2.8739342367   -0.2361699366
 O    0.1624704236   -2.6577197848   -0.0092674474
 N    1.3339354432   -1.8292144575    0.1432270825
 N    1.1875940155   -0.6095643437    0.1820188386
 H    0.7485281782    1.8871977324   -0.6364335337
 H   -0.8613103138    2.0552646437    0.0943977208
 H    0.5746955466    1.8114668162    1.1104471368
 H   -3.0391499317   -0.4514341890   -1.1079017971
 H   -3.2106855433   -0.5272441295    0.6291625420
 H   -2.6179721815    0.9708465925   -0.1255270900