15

 O   -0.0951438626    1.3308074032    0.2594715164
 N    0.0239410486   -0.0477340118    0.1673239471
 C   -1.1086157839   -0.6230183800   -0.0459826030
 C   -2.3940725223    0.0479143811   -0.1829769936
 C   -3.5177018613   -0.6400272307   -0.4041256060
 C   -3.5559956524   -2.1264503128   -0.5279268080
 N   -2.2498204282   -2.7326411539   -0.3829646335
 C   -1.0410374774   -2.1242093922   -0.1553666950
 O   -0.0158607413   -2.7661192109   -0.0545034483
 H    0.8154240099    1.6044048942    0.4160432743
 H   -2.4046615403    1.1268915581   -0.0986360640
 H   -4.4712329738   -0.1310811911   -0.5048057060
 H   -4.2493008959   -2.5327974025    0.2267347971
 H   -3.9935365775   -2.3954772369   -1.5033438073
 H   -2.1810851317   -3.7374534540   -0.4528771301