16

 O    0.1096731071    1.4381014612   -0.1472389471
 C   -0.0512190331    0.0606433946    0.0177449157
 C   -0.4813213253   -0.6923488847    1.2299772690
 N   -1.5957212519   -0.2202430346    2.1070047113
 C   -2.1018340743    1.1130445286    1.6744694944
 C   -2.4616645201   -0.0750732171    0.8812866111
 C   -1.3866644256   -0.6132445847   -0.0723860772
 C   -1.6691401485   -1.6901340637   -1.0239109351
 O   -2.7742996213   -2.1342578110   -1.2375502076
 H    0.9224963954    1.6951569453    0.3035711374
 H    0.6921831131   -0.5277390073   -0.5301609954
 H    0.0710304491   -1.5535640340    1.5884445067
 H   -2.8608078088    1.4690414474    2.3653743983
 H   -1.4265539697    1.8594927528    1.2853745380
 H   -3.4506500781   -0.5162592473    0.8585747846
 H   -0.7706641281   -2.0924476057   -1.5455619042