18

 C   -0.1110581549    1.5924629161   -0.1230671640
 C    0.0243869071    0.0789442691   -0.0563954377
 C    0.7412892494   -0.6367705324   -1.2076323388
 N    2.1450914798   -0.1899573104   -1.1894675929
 C    1.7175258661   -1.2825316077   -0.2710966452
 C    2.3076368312   -2.5760556287   -0.3161685598
 N    2.7843258334   -3.6320638319   -0.3135629083
 C    1.0767482599   -0.5540010237    0.9493104816
 N    1.8670619598    0.3621056654    1.7258625273
 H    0.8314480178    2.0597470426   -0.4183725139
 H   -0.8757550924    1.8803051630   -0.8523010834
 H   -0.3991847061    1.9948913726    0.8517855018
 H   -0.9505151936   -0.3854416631    0.1187052524
 H    0.3070749468   -1.0584488265   -2.1058590739
 H    2.6274753587   -0.6158741441   -1.9800883055
 H    0.5921970701   -1.2700931710    1.6160054733
 H    2.4513222576   -0.1340119166    2.3908765258
 H    2.4803826591    0.8900850374    1.1116650114