18

 C   -0.0430934665    1.5479800842    0.0207313913
 C    0.0671814114    0.0244110268    0.0319947878
 C    0.7350230168   -0.5085400210   -1.2481725545
 C    0.9619513096   -2.0055349090   -1.1743085108
 O    0.9248815357   -2.7746429092   -2.1076555091
 N    1.2568806773   -2.4359890209    0.1107089092
 C    1.2675550594   -1.5808192802    1.2206149564
 N    1.8077151579   -2.1666781397    2.3570394655
 N    0.7843805820   -0.4031132614    1.2343650455
 H    0.9517985211    2.0026744404   -0.0313485452
 H   -0.6289826630    1.8945929738   -0.8366297386
 H   -0.5240124236    1.8965378947    0.9383058647
 H   -0.9539488503   -0.3903051512    0.0789681152
 H    0.1510562369   -0.2972701171   -2.1463308736
 H    1.7167996405   -0.0294344883   -1.3701731392
 H    1.4175612142   -3.4261100254    0.2301187589
 H    2.6682287200   -2.6779038966    2.2101463016
 H    1.8810949106   -1.4968527000    3.1109126850