17

 C    0.3365075027    1.4703000416   -0.0837580622
 C   -0.0168213264   -0.0108336933   -0.0146200457
 O   -1.4183810491   -0.2055076311    0.0132796978
 C    0.7984618641   -0.8977655464   -1.0111508897
 C    1.7752668392   -1.2406743380    0.1465368873
 C    0.6809952809   -0.7647941501    1.1410381936
 O    1.0389194824    0.0348013481    2.2426847132
 H    1.4177239563    1.6305158324   -0.0698446140
 H   -0.0534449178    1.9050238900   -1.0130316954
 H   -0.0959592169    2.0023132911    0.7669553605
 H   -1.8174969601    0.3775470646   -0.6410246106
 H    0.2040966934   -1.7595369798   -1.3234397784
 H    1.2145349304   -0.4065227212   -1.8940301303
 H    2.1231669018   -2.2721888782    0.2317942300
 H    2.6377656538   -0.5694521640    0.1735909641
 H    0.0361581448   -1.6019780825    1.4403569463
 H    1.3660789106   -0.5380266431    2.9424193034