16

 C   -0.0138878796    1.4259389284    0.0569830353
 O   -0.1053772004    0.0170891595   -0.0640969612
 C    0.6187553064   -0.5354483788   -1.1392303209
 C    2.1617460486   -0.6498135641   -0.9190318674
 O    2.0894853584   -2.0837671061   -0.8552181547
 C    0.6598898029   -2.0792962227   -1.0124461161
 C    0.2050127511   -0.0107377191   -2.4367129557
 C   -0.1305327689    0.4180618615   -3.5086442929
 H    1.0240847813    1.7554747344    0.2098877077
 H   -0.4180072522    1.9354024684   -0.8265579180
 H   -0.6028955460    1.6998748191    0.9344159574
 H    2.7929904586   -0.3014843585   -1.7430158132
 H    2.4947486449   -0.2056827678    0.0270570906
 H    0.1332858889   -2.4312001764   -0.1184874792
 H    0.3348269190   -2.6395056587   -1.8944770907
 H   -0.4291427432    0.7921133809   -4.4570969910