16

 O   -0.0209631365    1.4794652648    0.0256110536
 C    0.1004630019    0.0729982590    0.1414496408
 C   -1.2442928023   -0.5883239909    0.0223811624
 C   -2.3307657750   -0.4836603946    1.1007200193
 O   -2.6557564782   -1.8922240723    0.9533519705
 C   -1.6231990742   -2.0861857208   -0.0332719680
 C   -2.1014085000   -1.7625597507   -1.4384050545
 N   -2.5802074017   -2.4163891105   -2.3902252781
 O   -1.8147593963   -0.4034003060   -1.3200124087
 H   -0.3946164723    1.6598958275   -0.8447955142
 H    0.7829227664   -0.3451896388   -0.6136583956
 H    0.5273148677   -0.1261426303    1.1294429992
 H   -1.9552841916   -0.2690571311    2.1075314940
 H   -3.1702262107    0.1749828852    0.8608502043
 H   -0.9956831661   -2.9592458405    0.1447175244
 H   -2.8051650612   -1.8191137000   -3.1882230595