19

 C    0.2068904182    1.7207439294    0.1237191184
 N    0.1283561482    0.2678875833    0.0557664063
 C    1.2396901547   -0.5693516553   -0.3598351949
 C    2.6587388145   -0.0240136022   -0.3326850300
 N    2.8545023496    0.4049746097    1.0525116936
 C    1.8189245721   -0.0808243957    1.9655029519
 C    0.7285887417   -0.6074168041    1.0489983199
 C    3.8911951093    1.1642218031    1.4870691640
 O    4.0689182064    1.4926127436    2.6429424697
 H    1.1603462524    2.1297219419    0.4829466378
 H    0.0139493496    2.1240180732   -0.8752168082
 H   -0.5882099683    2.0786659203    0.7846432618
 H    1.0144368733   -1.3310598674   -1.1011943594
 H    3.3572536863   -0.8223284227   -0.6200794923
 H    2.8097674662    0.8142761786   -1.0235588107
 H    2.1963383718   -0.8871452890    2.6079069354
 H    1.4978157340    0.7324355745    2.6245481702
 H    0.0924000054   -1.4012177556    1.4303202916
 H    4.5679221144    1.4619765044    0.6605509749