16

 O   -0.1094955768    1.3109529446   -0.1028039409
 N    0.0162509410   -0.0863143260   -0.0377920257
 C   -1.1221456399   -0.6463369562    0.0305173065
 C   -2.5126270387   -0.0382555750    0.0838950191
 C   -3.3846265327   -1.2256290709    0.4871363571
 C   -3.2472085930   -2.5112374623   -0.3082259684
 O   -2.0608931022   -2.4973467302   -1.1029003432
 C   -1.2846430652   -2.1356202184    0.0977063945
 C   -2.5239195177   -2.3737087044    0.9949798090
 H    0.8097393891    1.5979088855   -0.1277250432
 H   -2.5491187841    0.7620388299    0.8301038756
 H   -2.7879269326    0.4051736434   -0.8785742425
 H   -4.3432309784   -1.0537195356    0.9633859655
 H   -4.0711121306   -3.1338472910   -0.6362972660
 H   -0.3805076936   -2.7315198344    0.2033549658
 H   -2.5880351144   -2.8860015990    1.9440903967