20

 C   -0.0384421404    1.5082439057   -0.1015961354
 C   -0.0140767706   -0.0031564331   -0.0081956007
 C   -1.1859210875   -0.7173735817   -0.6505168850
 N    1.3219122998   -0.5940876268   -0.1152558034
 C    0.6523024803   -0.6287786441    1.1890306656
 C    1.1484318331   -0.0149275967    2.5102377167
 C    0.5183690079   -1.2195543666    3.2830801370
 C    0.1883213794   -1.8613360981    1.9208067829
 O   -0.2002123112   -2.9420840203    1.5668013062
 H    0.8646531395    1.9424911212    0.3320600565
 H   -0.0933485669    1.8200503034   -1.1506424037
 H   -0.9124650099    1.9182127502    0.4159524315
 H   -1.1810855277   -0.5473465297   -1.7335946659
 H   -1.1490274616   -1.7927453793   -0.4618265821
 H   -2.1364425042   -0.3354398002   -0.2628436750
 H    1.2689170816   -1.5243605812   -0.5312788930
 H    2.2374097921    0.0269645855    2.5783681541
 H    0.7372731145    0.9656719177    2.7569566569
 H    1.1931773017   -1.8082919765    3.9093351485
 H   -0.3746748799   -0.9766972196    3.8662842681