17

 C    0.8449951601    1.5406115173    0.2319286904
 C    0.3782157128    0.1036744792    0.0966589894
 O    0.8549580719   -0.6279570831    1.2291322603
 C    0.4712467678   -1.9795593398    1.2637890276
 C    1.1397197743   -2.7652027944    0.2065784841
 N    1.6724236242   -3.3240628192   -0.6525083851
 C    0.7788986685   -2.6074537873    2.6512882530
 N    1.3210047254   -1.7405999236    3.5326697694
 O    0.5099954455   -3.7683558129    2.8631741651
 H    1.9369683542    1.5895586808    0.2585197851
 H    0.4939083967    2.1283220553   -0.6209234763
 H    0.4532894064    1.9925648187    1.1476503390
 H   -0.7204352863    0.0446881286    0.0644333895
 H    0.7665594271   -0.3515225829   -0.8242855283
 H   -0.6155192290   -2.0882391021    1.1218710933
 H    1.5302625471   -0.7980694137    3.2508396502
 H    1.5634701833   -2.0716010208    4.4515202631