17

 C   -0.0397157217    1.5079047050    0.0426691695
 C    0.0162031222   -0.0059291699    0.0226728994
 O   -1.3418480842   -0.4932691358    0.0217311534
 C   -1.4862446601   -1.8155013349    0.0047518318
 N   -0.5182976251   -2.6909048470   -0.0108207007
 O   -1.1555046580   -3.9143642068   -0.0245216012
 N   -2.5165147241   -3.7667926372   -0.0175040457
 C   -2.7533245293   -2.4860721367    0.0007691150
 C   -4.1186569049   -1.8900948161    0.0142619902
 H    0.9759770053    1.9137768490    0.0451804097
 H   -0.5624930644    1.8903217384   -0.8382664754
 H   -0.5574651304    1.8668371229    0.9363739066
 H    0.5266009542   -0.3876753267   -0.8687067933
 H    0.5336573466   -0.4106955407    0.8997166434
 H   -4.2647186564   -1.2754438688    0.9082755058
 H   -4.2662600121   -1.2396995353   -0.8537601824
 H   -4.8728477575   -2.6783002692   -0.0007850262