19

 C   -0.0262147024    1.4121186525   -0.2992772017
 C    0.1008166273   -0.0533198147    0.1565758919
 C    0.8110488029   -0.1129951659    1.4956373310
 O    1.8750123176   -0.6379373600    1.6976065030
 C   -1.2752561544   -0.6905007049    0.2820392549
 N   -1.9474371975   -1.0611333580   -0.9735956899
 C   -1.5802974280   -2.1185163236   -0.0125171762
 C   -0.5629142619   -3.1408372376   -0.4592921806
 H    0.9564390418    1.8676719936   -0.4515047291
 H   -0.5799093372    1.4511415033   -1.2410126873
 H   -0.5681459153    2.0133275427    0.4401706838
 H    0.7069212491   -0.6094875792   -0.5616631393
 H    0.2600504732    0.3972659370    2.3236600458
 H   -1.8942863231   -0.2260364483    1.0515297578
 H   -2.9407557156   -0.8528872391   -0.9244776348
 H   -2.3949258523   -2.5380590124    0.5777935691
 H    0.1918899590   -2.6954984244   -1.1102598752
 H   -0.0575772940   -3.5913733488    0.4013959307
 H   -1.0538200091   -3.9422108022   -1.0216084340