16

 N    0.0417305908    1.4492002927    0.0863617278
 C    0.0536575319    0.0517405885   -0.0022712253
 C   -1.0042403113   -0.7899264263   -0.1885387843
 O   -0.5603773421   -2.0686412916   -0.3165851292
 N    0.8227677413   -2.0822140578   -0.1919398849
 C    1.1710188739   -0.8284711559   -0.0187727652
 N   -2.3587206692   -0.4836550044   -0.2651575095
 C   -3.1769302293   -1.1503812231   -1.2988115297
 C   -3.3380894500   -1.5097936668    0.1322711999
 H    0.6176509564    1.8008435831    0.8415752286
 H   -0.9059695759    1.7903906645    0.2008430066
 H    2.2186711549   -0.5859788994    0.0963803424
 H   -3.9005261766   -0.5055744946   -1.7876483892
 H   -2.6738804902   -1.8667342926   -1.9409434443
 H   -2.9492438623   -2.4702433340    0.4547982953
 H   -4.1827202224   -1.1295419223    0.6986586910