16

 C   -0.0365910793   -1.1646827825   -0.1562491480
 C   -0.0318926673    0.0320981716   -0.0299014566
 C    0.0219724628    1.4391113996    0.1207574060
 C   -0.9056635394    2.3463262211    0.8356685570
 C   -0.0900663317    3.2860026238    1.7115540246
 O    1.2772659793    3.0559819970    1.3486399614
 C    1.2449535572    2.4065794499    0.0939620968
 C    0.4456488113    3.2207769576   -0.9475607290
 N   -0.8193735839    2.4625266393   -0.6453776972
 H   -0.0509220526   -2.2203303382   -0.2697014920
 H   -1.8689713552    1.9872018703    1.1780997988
 H   -0.3606390716    4.3388593979    1.5539299280
 H   -0.2188322887    3.0544250305    2.7741509950
 H    2.2388449961    2.0347384727   -0.1470919495
 H    0.3939211579    4.3032400043   -0.7945546460
 H    0.7323593051    3.0068322453   -1.9794411394