17

 C    0.1088730651    1.1579106379    0.6664928410
 C    0.1251913912   -0.1097831164   -0.1648118754
 O    1.0992562880   -0.4718128055   -0.7830606240
 C   -1.1579865073   -0.9268585343   -0.1910255130
 C   -1.0654147788   -2.4362863607   -0.4001743475
 C   -0.8498367446   -2.9929816041    1.0169080580
 O   -0.7541985749   -1.8887514864    1.9224864399
 C   -1.8416833988   -1.2896332583    1.1616690504
 C   -2.2318146628   -2.6865058526    0.5556012538
 H    1.0127549770    1.7388741047    0.4791805814
 H   -0.7793024044    1.7628008392    0.4521298992
 H    0.0685762366    0.8831293692    1.7267818951
 H   -1.8830166536   -0.4716576613   -0.8759197399
 H   -0.7894262431   -2.9801780340   -1.2924294725
 H   -0.3364567644   -3.9147221492    1.2527151932
 H   -2.4524483642   -0.5982986097    1.7378141637
 H   -3.1505775910   -3.2494558886    0.4761091466