13

 O    0.0318352223    0.0586866414   -0.1992272601
 C    0.0831955618    1.2373722403   -0.1092077394
 C   -0.9974783630    2.3661865607    0.0056410351
 C    0.1557999827    3.3453656617    0.4165885470
 C    1.2366473046    2.2717607015    0.0529244738
 C    2.2858922994    1.9780400862    1.0075284220
 N    3.1003954847    1.7437693157    1.7932447254
 C   -1.6747196442    2.6734938539   -1.2402050399
 N   -2.1831922582    2.9243465730   -2.2477564814
 H   -1.7301047426    2.1553659011    0.7898086568
 H    0.2143196010    4.2668637923   -0.1587984693
 H    0.1340106350    3.5736057721    1.4815392888
 H    1.6718974166    2.4623813600   -0.9352643788