20

 C    0.2545232833    1.5415667895   -0.1431585460
 O   -0.3473537125    0.3389564369   -0.5641257836
 C    0.5504325264   -0.5448993473   -1.1844892593
 C    1.5805042617   -1.3224224340   -0.3152550827
 C    1.2292544151   -2.5935749122   -1.1396283218
 C   -0.0691595053   -1.8916269540   -1.6340878099
 C   -1.3119803441   -2.2905967123   -0.8529068394
 O   -1.6187331244   -3.6331847733   -1.2113468143
 H    1.0397461082    1.3693304270    0.6081536589
 H    0.7026389113    2.0875353177   -0.9886642385
 H   -0.5279589502    2.1609569064    0.3019953376
 H    1.0541668692   -0.0411852923   -2.0252195796
 H    2.6177088452   -0.9797281566   -0.3191438106
 H    1.2351784899   -1.3957926108    0.7198421400
 H    1.9394386394   -2.7725036737   -1.9504195009
 H    1.0859883288   -3.5258948730   -0.5911426367
 H   -0.2882557321   -1.9817607903   -2.7014652544
 H   -1.1310131949   -2.1999329064    0.2289689912
 H   -2.1373597386   -1.6080033408   -1.1003519430
 H   -2.4005627563   -3.9005470305   -0.7198791172