21

 C   -0.4431006821    1.3564436433   -0.1205593721
 C    0.0707674393   -0.0802493500   -0.0944459417
 C    1.0401915273   -0.4275536867   -1.2320716234
 O    1.8121004111   -1.5422154038   -0.7862333675
 C    1.7207105472   -1.6630175785    0.6464106510
 C    3.1290305199   -1.7810220084    1.2327813430
 C    0.9173398296   -0.4519951145    1.1344371221
 C    0.9776059240   -2.9804739670    0.8986240757
 O    0.1734873079   -3.1707714611    1.7735321057
 H    0.3859753028    2.0708455959   -0.0598474068
 H   -0.9980969876    1.5650441625   -1.0413784942
 H   -1.1146945800    1.5506943273    0.7213059578
 H   -0.7819480419   -0.7691488481   -0.1458504017
 H    0.5369579544   -0.7048026531   -2.1642680090
 H    1.7051414833    0.4248231225   -1.4448813942
 H    3.7107437342   -0.8929677225    0.9697124531
 H    3.0866586546   -1.8695479156    2.3227628550
 H    3.6460785105   -2.6581908580    0.8314320540
 H    1.5926563301    0.3704061606    1.3974440753
 H    0.3197715003   -0.7082537951    2.0113987694
 H    1.2558564949   -3.7736191997    0.1689733686