18

 C   -0.1479023483    1.5317683967    0.0995818707
 C    0.1211216050    0.0651775161    0.0434433164
 O   -0.7450746574   -0.8318318855    0.7376870067
 C    0.6678825584   -0.9149336304    0.9954231674
 C    1.2717687728   -1.7805790302   -0.1104722126
 C    0.6806913133   -0.7610273145   -1.1728282474
 C   -0.3647417664   -1.3011456429   -2.1514780952
 C    1.7428297389   -0.0396405251   -1.8642975124
 N    2.5781685141    0.5511045051   -2.4040870747
 H    0.7138350861    2.0970208901   -0.2661146376
 H   -1.0130731674    1.7908384499   -0.5208102345
 H   -0.3636158776    1.8352213063    1.1271465400
 H    0.9896313229   -0.7969547895    2.0234019541
 H    2.3625721714   -1.8000345726   -0.1115627315
 H    0.8783280188   -2.7972150949   -0.1780962171
 H   -1.1689165082   -1.7735850974   -1.5839873333
 H   -0.7856019440   -0.4975538344   -2.7628380868
 H    0.0783601976   -2.0412096368   -2.8237699221