17

 C    0.0266603740    1.4632348468   -0.3171098249
 C    1.5339536796    1.5020581163   -0.0139178753
 O    1.7826035275    1.7915210826    1.3767951220
 C    1.6744802077    0.3854521042    1.7516749608
 C    0.3802454846    0.0631081773    2.5056417735
 C   -0.6567272663   -0.2674185658    1.3833755291
 N   -0.0308537827    0.0162500448    0.0830864063
 C    1.4464383989   -0.0096462682    0.2767400107
 H   -0.5730934627    2.1482992099    0.2921607536
 H   -0.2358864999    1.5892560461   -1.3734346532
 H    2.2279328081    2.0152297252   -0.6814591336
 H    2.5865283777    0.0537005158    2.2572911409
 H    0.5204432259   -0.7862456976    3.1816459418
 H    0.0895900848    0.9245942920    3.1125305717
 H   -0.9258450929   -1.3291798200    1.4238133648
 H   -1.5857543555    0.3018629148    1.4757816433
 H    1.9997905913   -0.8227613942   -0.1926752417