23

 C   -0.0040541577    1.5857637436    0.0031189491
 C    0.0064581903    0.0537965681   -0.0020713300
 C    0.6361631257   -0.5040232255   -1.2886704859
 C    0.6598132281   -2.0441062753   -1.2999885535
 C    1.3141315375   -2.6014776629   -0.0432606546
 O    2.2146460871   -3.4085583237   -0.0846106844
 C    0.7539440927   -2.0554617098    1.2710104146
 C    1.4954322250   -2.6070962430    2.4871811318
 C    0.7377890798   -0.5098585528    1.2264409225
 H    1.0160381075    1.9853025211   -0.0384471904
 H   -0.5515090948    1.9821443804   -0.8583505981
 H   -0.4771531979    1.9765230858    0.9099744052
 H   -1.0370081593   -0.2947253761    0.0393977320
 H    0.0957648141   -0.1364672718   -2.1683788987
 H    1.6642988462   -0.1263483945   -1.3760948787
 H   -0.3731844284   -2.4183780953   -1.3357678933
 H    1.1880643865   -2.4395379790   -2.1708690374
 H   -0.2967689426   -2.3858947463    1.3061072405
 H    2.5443151407   -2.2957288696    2.4770050864
 H    1.0383889426   -2.2464058599    3.4139214973
 H    1.4828451553   -3.6993920077    2.4928449365
 H    1.7746461984   -0.1430014491    1.2281439790
 H    0.2773172732   -0.1318063765    2.1470064000