13

 N    0.0617206897    1.0799168733    0.2256973574
 C   -0.2394020059   -0.0978052933   -0.0966581552
 O   -0.3071954678   -1.0516786045    0.8685463662
 C   -0.6842773288   -2.3397677009    0.4621133679
 C   -2.1515771409   -2.4503746718    0.0594109740
 O   -2.8683007735   -1.5023375139   -0.1143840731
 C   -2.6693461128   -3.8965859327   -0.1449117986
 O   -3.7913515847   -4.1266534066   -0.4968962830
 H    0.0882381129    1.6743025924   -0.5998441353
 H   -0.4450137479   -0.4770579308   -1.1051397871
 H   -0.0700682937   -2.7124988031   -0.3763508678
 H   -0.4867032548   -3.0069604880    1.3090292398
 H   -1.9327528918   -4.7067134202    0.0565601250