19

 C    0.2897837601    1.5762186665   -0.0478151981
 C    0.1254930463    0.0687072968    0.0130399709
 N    1.0767024451   -0.7115756415   -0.8178594234
 C    1.2868939051   -1.7048856361    0.2708633855
 C    0.6246152923   -0.7270632750    1.2679848036
 N    1.7208249506   -0.1951315128    2.0766111791
 C    3.0240124611   -0.4836861247    1.4776131021
 C    2.7703843508   -1.7318875000    0.6280162451
 O    3.5838426325   -2.5511115206    0.2939847968
 H    1.3171552675    1.8716644169    0.1850316676
 H    0.0584123708    1.9493841137   -1.0510463011
 H   -0.3886095437    2.0716860412    0.6563384844
 H   -0.9241821061   -0.1974880155   -0.1842955206
 H    0.7208992829   -1.0887304353   -1.6880786619
 H    0.8477547549   -2.6956140401    0.1321268199
 H   -0.1755948075   -1.1036499611    1.9097560259
 H    1.5956831830    0.7747586435    2.3343295512
 H    3.4143341541    0.3016256758    0.8096819950
 H    3.7860958202   -0.6889354915    2.2359873880