19

 C    0.4093709051    1.6660197617    0.0400692828
 C   -0.0400116907    0.2107100423    0.0665448708
 C    0.0305083922   -0.4302161056   -1.3206717159
 O   -0.4030825134   -1.7774641418   -1.3263931048
 C    0.5354706997   -2.7274159965   -0.8723495474
 C    0.5598705585   -2.9157558688    0.6481263729
 O    0.7729359342   -3.9967405882    1.1417231077
 C    0.3041573973   -1.6808370623    1.5182448539
 O    0.8057165570   -0.4760137064    0.9846733205
 H    1.4507250017    1.7389768549   -0.2887907015
 H   -0.2124381669    2.2529598229   -0.6425278727
 H    0.3372527237    2.1017738449    1.0392304077
 H   -1.0812109119    0.1446326945    0.4218549253
 H   -0.6316501362    0.1067857943   -2.0085760595
 H    1.0609264998   -0.3555551710   -1.7033617804
 H    0.2737115786   -3.6920876024   -1.3154550097
 H    1.5567080862   -2.4702538969   -1.1996958285
 H   -0.7807389693   -1.6166874167    1.7054890987
 H    0.7993911744   -1.8524412986    2.4780007901