16

 C   -0.0134529939    1.5214881616    0.0411688995
 C    0.0154210552    0.0279449897    0.0124528089
 C    0.0044639177   -0.7869554027   -1.0904637869
 O    0.0390589695   -2.0873139668   -0.7028402800
 N    0.0749227794   -2.1498951405    0.6945967389
 C    0.0601297842   -0.8990691410    1.0869267885
 N   -0.0321147333   -0.4490132864   -2.4141083895
 C   -0.0296613892   -1.3721601018   -3.3091990382
 N   -0.1060006813   -1.0775868491   -4.6276321580
 H    0.8741161439    1.9376613663    0.5316277849
 H   -0.0492295533    1.9105047093   -0.9791370549
 H   -0.8887602238    1.9023454587    0.5799043312
 H    0.0820297291   -0.6910827294    2.1488185226
 H    0.0080816937   -2.4406780718   -3.0841304353
 H    0.0646811452   -1.7865794560   -5.3175469290
 H   -0.0443090233   -0.1121252501   -4.9093317629