18

 C    0.0483826761    1.5992222393    0.1017338941
 C    1.5499826981    1.4481320147   -0.0909743045
 C    2.1642172512    0.6262886127    0.9902301289
 C    1.7879485033    0.6344656753    2.4149376303
 C    0.7491221143    0.0437254967    3.0319706128
 C   -0.3357010562   -0.7106325478    2.4300385305
 C   -0.6801777751   -0.7332400558    1.1320199862
 C   -0.0200675111    0.0358345337    0.0410498826
 N    1.4922615470   -0.0661435899   -0.1274667852
 H   -0.2639441826    2.0573971279    1.0426303749
 H   -0.4684078637    2.0863954813   -0.7264410232
 H    2.1614191991    2.0036054557   -0.7951662036
 H    3.2414624348    0.5235556817    0.8568514331
 H    2.5089786245    1.1579602506    3.0404908542
 H    0.7090321520    0.1307744815    4.1154737974
 H   -0.9382913933   -1.2930784566    3.1233576890
 H   -1.5262492736   -1.3492217497    0.8381691569
 H   -0.4317041546   -0.2764555613   -0.9209388444