21

 C    0.0120908304    1.6036322126    0.0105718595
 C    0.0122827188    0.0726557288    0.0022871217
 C   -1.3971934764   -0.5286255558    0.0125936236
 C   -1.4011323836   -2.0597510519    0.0043340427
 C   -2.8281591887   -2.6444752683    0.0148616975
 C   -2.8663472497   -4.0985764178    0.0073573142
 C   -2.8903058003   -5.3069007266    0.0012743068
 C   -2.8824796392   -6.7453913739   -0.0065313921
 O   -3.8731304065   -7.4407153388   -0.0015212198
 H    1.0310865251    2.0023821359    0.0029452667
 H   -0.5088931712    2.0045561549   -0.8659781247
 H   -0.4919249789    1.9949955526    0.9012499198
 H    0.5530895890   -0.2898606088   -0.8817980379
 H    0.5699609903   -0.2993472008    0.8718305935
 H   -1.9400201218   -0.1671481558    0.8973692726
 H   -1.9569080269   -0.1576399887   -0.8576044478
 H   -0.8713841553   -2.4315898017   -0.8806209658
 H   -0.8545084293   -2.4410975432    0.8748578986
 H   -3.3729819052   -2.2820207107    0.8972998860
 H   -3.3897257253   -2.2725625327   -0.8530085320
 H   -1.8667757351   -7.1919498991   -0.0178553129