16

 O   -0.3775161228    0.5111487004    0.8062629874
 C    0.2319254849    0.8369176950   -0.1813205508
 C    1.4032897573    1.7543927848   -0.1721867630
 N    2.2937842829    1.6499487458   -1.3733976984
 C    1.5315492017    2.8342411073   -1.1895273851
 C    0.6279296039    3.5862543500   -2.1823962705
 C    0.3785540433    4.6559291271   -1.0900927244
 C    1.8920894263    4.3276413207   -1.1185086897
 O    1.8327682751    4.3508785543   -2.6012709768
 H   -0.0445384232    0.4791937389   -1.1978479112
 H    1.8439594807    1.9340399184    0.8057543442
 H    3.2700681545    1.7646399494   -1.1131909968
 H   -0.0287645271    3.2076296979   -2.9634322175
 H    0.1315151575    5.6421950150   -1.4818896715
 H   -0.2000632802    4.3763637008   -0.2067393125
 H    2.7301237254    4.8274722944   -0.6329441235