14

 N   -0.1831563903    1.5392910561   -0.0805829904
 C    0.0533775324    0.0994873820    0.0157772052
 C   -1.3020648444   -0.7144731169   -0.0300445734
 O   -1.4008842800   -1.4528121504   -1.2929042901
 C   -0.1630484779   -1.3481221602   -1.8135877326
 C    0.7197623742   -0.5678685395   -1.1561038692
 O    1.8621332903   -0.5497715588   -1.8207773646
 N    1.6174952248   -1.4232872861   -2.9922888232
 N    0.4277800417   -1.8487787682   -2.9260012926
 H    0.6892805197    2.0449957918    0.0425283336
 H   -0.5249647677    1.7761245650   -1.0088596890
 H    0.5636823123   -0.0836207883    0.9655342437
 H   -1.3451995981   -1.4487040934    0.7780472396
 H   -2.1573936070   -0.0405815031    0.0358015931