21

 C   -0.0747961554    1.6339955648   -0.0350660258
 C   -0.0406319713    0.1003080516    0.0336778970
 C    0.6511846304   -0.5019689520   -1.2165858998
 C    0.0013630420   -0.1532635862   -2.4732283573
 C   -0.5537705223    0.1385444000   -3.4992077919
 C    0.6406309732   -0.4479055437    1.3014111032
 O    2.0145646221   -0.0504810458    1.4103910752
 C   -0.0746032372   -0.1227938493    2.6154700879
 O    0.6003482719   -0.7155023041    3.7052709708
 H    0.9363477259    2.0603697184   -0.0364735921
 H   -0.5544994865    1.9569083650   -0.9621002909
 H   -0.6282306243    2.0708540858    0.8003701424
 H   -1.0756889723   -0.2650715837    0.0476495355
 H    1.6979769807   -0.1749261530   -1.2305006756
 H    0.6786644785   -1.5946509068   -1.1177485375
 H   -1.0331776911    0.3879397383   -4.4131515690
 H    0.6904165834   -1.5411037961    1.2264232172
 H    2.0396617462    0.9131153226    1.4441071438
 H   -0.1494741604    0.9713220403    2.7434268049
 H   -1.0951807127   -0.5213328849    2.6027223324
 H    1.5405405291   -0.5854605512    3.5250705498