15

 C   -0.1422608436    1.4113170038   -0.0489397462
 C    0.0421266965   -0.0852576562    0.0227548766
 O    1.0622887400   -0.6562710227    0.3079566245
 O   -1.1146007068   -0.7166218291   -0.2970527011
 C   -1.0838730204   -2.1325706112   -0.2597661018
 C   -1.7867210020   -2.8158515481    0.8737989134
 C   -2.3922244657   -2.8023501330   -0.5177327115
 H    0.7917622668    1.9042577649    0.2173834507
 H   -0.4443836265    1.7039749878   -1.0585390029
 H   -0.9387511198    1.7249375645    0.6317788148
 H   -0.1615251481   -2.5493777466   -0.6436408736
 H   -1.3631600848   -3.7363707303    1.2589759373
 H   -2.2503430974   -2.1791700351    1.6185253516
 H   -3.2487572394   -2.1574634227   -0.6773523445
 H   -2.3948886688   -3.7154623860   -1.1019011074