22

 C   -0.0359261852    1.5637954706    0.0526532799
 C    0.0836199159    0.0370146500   -0.0317115717
 C    0.7387309872   -0.4975377721   -1.3192968406
 C    2.1418524434    0.0800342037   -1.5185909026
 C    0.5734234637   -2.0231389645   -1.3951199433
 C   -0.7351389168   -1.9209404112   -2.0719353233
 C   -0.2772672573   -0.4773409929   -2.5182912754
 C    0.4571051120   -1.2157020090   -3.6446965434
 N    0.4232443078   -2.4769122963   -2.8283320339
 H    0.9437086195    2.0503479421    0.0741019697
 H   -0.5918141316    1.9733222081   -0.7976207911
 H   -0.5664977680    1.8562705175    0.9641006841
 H    0.6615925214   -0.3229101138    0.8304515335
 H   -0.9138440508   -0.4083414954    0.0657090595
 H    2.7210274249   -0.0010188928   -0.5912484221
 H    2.7001502964   -0.4478591317   -2.2943653022
 H    2.1085975682    1.1399685658   -1.7923437137
 H    0.9299732838   -2.7743976192   -0.7005700537
 H   -1.6853655995   -2.4234718403   -1.9506986864
 H   -0.9014461640    0.3972927837   -2.6966935333
 H   -0.1700055214   -1.3745473763   -4.5261485379
 H    1.4465400804   -0.8702336660   -3.9612754525