10

 O   -0.0234462184    1.3002506472    0.0092988738
 N    1.3299817897    1.7571899857   -0.0009863546
 C    2.0760868861    0.6922920595   -0.0140690760
 N    1.3104418403   -0.4382558670   -0.0131351110
 N    1.3702453520   -1.8028593193   -0.0213778844
 C    0.0696270277   -2.0884087053   -0.0106034370
 N   -0.8191268847   -1.0375594299    0.0037150988
 C    0.0183452692   -0.0326648703    0.0014195349
 H    3.1534963973    0.7252374788   -0.0241238342
 H   -0.2645913890   -3.1155809495   -0.0132221205