13

 N   -0.0153389406    1.3590757817   -0.0396313224
 C    0.0466041656   -0.0123770492   -0.0752693780
 O    1.1045950712   -0.6113226785   -0.1658466801
 C   -1.2536736133   -0.7134447883   -0.0313382274
 C   -1.3815959296   -2.0901261072    0.0400936616
 N   -2.7026433766   -2.3487108708    0.0578552738
 N   -3.4700113585   -1.2375510355   -0.0027440830
 C   -2.5919043981   -0.2445976972   -0.0569986331
 H    0.8652583389    1.8365196346    0.0717283682
 H   -0.8363435921    1.8273935771    0.3047920990
 H   -0.6273473554   -2.8587649048    0.0773279062
 H   -3.1543987671   -3.2467062644    0.1061662096
 H   -2.9531267843    0.7715335926   -0.1284268946