19

 C   -0.0113759681    1.5167714595   -0.0257828731
 C    1.3131538684    0.7662530205   -0.0060016322
 C    1.9638789640    0.5314430917    1.3611068189
 C    0.8471988326   -0.0795471214    2.2752414163
 C   -0.0730718627   -0.7166406936    1.2794507913
 C   -0.7258757882   -1.8583447042    1.0894362903
 C   -1.1702814004   -1.9279253886   -0.3557536994
 O   -0.6103747329   -0.7642354045   -0.9921686083
 C   -0.0092632597    0.0171454225   -0.0019165138
 H   -0.3397053958    2.0920726435    0.8363552514
 H   -0.2768062262    1.9545952152   -0.9826345558
 H    1.9430269277    0.8295745582   -0.8858063792
 H    2.7802819230   -0.1908529888    1.2508256203
 H    2.3915435647    1.4421258708    1.7942885743
 H    1.2441401355   -0.7788601111    3.0143456975
 H    0.3328309383    0.7148243019    2.8295563922
 H   -0.8729022130   -2.6697147095    1.7904862777
 H   -0.7920948860   -2.8305947829   -0.8577180240
 H   -2.2643329012   -1.9184003892   -0.4825078242