16

 C   -0.0353096851    1.4586838016    0.0499772980
 C    0.0677687995   -0.0390426298   -0.0584349581
 C    0.7702905266   -0.6960212963   -1.2015065834
 N    1.4116711625   -0.6279436778    0.1285609070
 C    1.3577420088   -1.9530812163    0.6702056378
 N    1.7775385496   -2.2191797599    1.8320690370
 N    0.7912306424   -2.7913672084   -0.2993866186
 C    0.4368295047   -2.1364992330   -1.4737417272
 O   -0.0021403948   -2.6452491736   -2.4736381113
 H    0.8363746608    1.9406948116   -0.3990389366
 H   -0.9372032845    1.8170388507   -0.4564447148
 H   -0.0886093703    1.7596643874    1.1006658852
 H   -0.7570430766   -0.5999009850    0.3784186810
 H    1.1940798246   -0.1065678879   -2.0068550345
 H    1.6516954295   -3.2044081632    2.0616333456
 H    0.6451580122   -3.7813874901   -0.1740783170