22

 C    0.1785883137    1.5957031052   -0.0610567127
 C   -0.0135291559    0.0770656700   -0.0071846917
 C    0.6736297549   -0.5517975404    1.2098289433
 C    0.6801377964   -2.0916257693    1.2424143554
 C   -0.7220145904   -2.7078812952    1.1811874734
 O    1.3958042545   -2.6284156611    0.1189973311
 C    1.3209539515   -2.5466255306    2.5786083421
 N    2.2870305309   -3.4937066609    2.4434513440
 O    0.9660452967   -2.0856322951    3.6479548921
 H    1.2399753890    1.8605814237   -0.1266970163
 H   -0.3271336622    2.0297420995   -0.9290781624
 H   -0.2247610777    2.0775496058    0.8363006132
 H   -1.0856954912   -0.1484646199    0.0142525182
 H    0.3771609792   -0.3811572885   -0.9237069555
 H    1.7212183495   -0.2129468298    1.2472699671
 H    0.2200830999   -0.2003006701    2.1411227119
 H   -1.2286159717   -2.4208775326    0.2576462183
 H   -0.6509078106   -3.7992753383    1.2034465931
 H   -1.3107036254   -2.3800622205    2.0404417750
 H    2.1759468759   -2.0797192110   -0.0199289848
 H    2.4268794481   -3.9215240154    1.5435431474
 H    2.6550255847   -3.9239639453    3.2757502080