14

 N    0.0892060668    1.3073276477   -0.0414922912
 C    0.0176940046   -0.0544688072   -0.0613129428
 O    1.0404256633   -0.7436094441   -0.1315152295
 C   -1.2946486044   -0.6890435825   -0.0257870984
 C   -2.6013058348   -0.2226807923    0.0124667308
 N   -3.3867773411   -1.3108823150    0.0359706212
 N   -2.7053905598   -2.4918293669    0.0125321551
 C   -1.4379026123   -2.1137547388   -0.0270278631
 O   -0.4386605680   -2.9901051939   -0.0631830984
 H    1.0069882877    1.7109168552    0.0578702710
 H   -0.7001988736    1.8680275924    0.2277982128
 H   -3.0172182854    0.7733019248    0.0149407001
 H   -4.3913413637   -1.3419716844    0.0590159433
 H    0.3748374907   -2.4381778149   -0.1059347410