22

 C    0.2771314117    1.4835623734   -0.2196941156
 C    0.0622390491   -0.0263951461   -0.1067746964
 C   -1.4236832249   -0.3919522765    0.0252422591
 O   -2.0806839592    0.0063045899   -1.1541208914
 C   -3.5173651643   -0.0581858142   -1.1405281440
 C   -4.1176192090    1.1311949579   -0.3898433789
 C   -3.9474678443   -0.1018192348   -2.6012250843
 C   -1.5855499035   -1.8479431653    0.2588209711
 N   -1.7160385297   -2.9821979907    0.4383996222
 H    1.3399755120    1.7117754371   -0.3379712741
 H   -0.2603625128    1.8866491725   -1.0807303384
 H   -0.0778338190    2.0035385684    0.6771162278
 H    0.4557975347   -0.5387130545   -0.9907844271
 H    0.5918839859   -0.4302515637    0.7625184222
 H   -1.8396593558    0.1208977696    0.9069571842
 H   -3.8212868306   -0.9943360431   -0.6495094358
 H   -5.2101634894    1.0673695681   -0.3945236079
 H   -3.7975438462    1.1622603750    0.6560349663
 H   -3.8234418822    2.0707135436   -0.8682097803
 H   -3.5068890218   -0.9663876525   -3.1035504947
 H   -5.0364661478   -0.1690257656   -2.6778423152
 H   -3.6192928731    0.8038213417   -3.1213236488