25

 C   -0.2954125405    1.5031572792   -0.4909797233
 C   -0.0653911182    0.0099963209   -0.2428461884
 C    0.7102113973   -0.6760595245   -1.3739482840
 C    0.9321878261   -2.1700952883   -1.1349443377
 C   -0.2971591919   -3.0959624384   -1.3952721312
 C    0.3655745864   -3.6372180039   -2.6988344508
 C   -0.2495312616   -3.1407289546   -4.0046415265
 C    1.6953332219   -2.9360692023   -2.2663553820
 O    2.4454688223   -2.2155514380   -3.2156455391
 H    0.6549765516    2.0371643833   -0.6018205877
 H   -0.8745978482    1.6687553587   -1.4064952926
 H   -0.8428224006    1.9663065244    0.3359511704
 H    0.4828278129   -0.1267077293    0.6985259709
 H   -1.0318014787   -0.4918456000   -0.1052370831
 H    0.1685972044   -0.5142684619   -2.3177904073
 H    1.6858867882   -0.1868332148   -1.4946136990
 H    1.3885166200   -2.2972359307   -0.1470607164
 H   -0.4393535035   -3.8603157136   -0.6276822513
 H   -1.2517282059   -2.5795158057   -1.5389250591
 H    0.4486459640   -4.7276536285   -2.7429849254
 H   -0.4192207450   -2.0573465401   -4.0001032590
 H    0.3943879804   -3.3755201214   -4.8583676953
 H   -1.2228723622   -3.6125758528   -4.1751154184
 H    2.3989577292   -3.6583614656   -1.8432633436
 H    1.8686546616   -1.5645999122   -3.6275361199