18

 C   -0.2073846935    1.4824747618   -0.0478657246
 C    0.1088391798    0.0000328204   -0.0240674520
 O    1.0943804156   -0.2952783886   -1.0361020510
 C    1.9754197664   -1.2344648047   -0.5791132688
 O    2.8603846661   -1.6983524531   -1.2415908176
 N    1.6425514840   -1.5357586343    0.7268795489
 C    0.7283236681   -0.5631237086    1.2604108456
 C    1.0552313504    0.2468161179    2.4882147292
 C   -0.0465247576   -0.8006475507    2.5153342693
 H    0.6864185379    2.0742528650    0.1655221038
 H   -0.5843888485    1.7646270508   -1.0339411285
 H   -0.9782479579    1.7242145331    0.6909111104
 H   -0.7905483297   -0.5812640225   -0.2697331550
 H    2.3510699891   -1.9752526095    1.2924173237
 H    1.9820271068    0.0202461674    3.0057952772
 H    0.7722274297    1.2927884373    2.5224986849
 H   -1.0764207537   -0.4588151545    2.5545211654
 H    0.1353094969   -1.7226821672    3.0574511091