13

 O    0.3677088094    0.8964569943   -0.7786502440
 C   -0.0139461949    0.1227605158    0.3234164854
 C   -1.4179540495   -0.4211707177    0.2128763473
 N   -1.8844210332   -1.1785734028    1.2188150714
 C   -3.1194769283   -1.6188453654    1.0522724489
 C   -3.8482114675   -1.2967038144   -0.0981599117
 N   -3.3288576345   -0.5421465977   -1.0579651770
 N   -2.0857412077   -0.0976454928   -0.8927180177
 H   -0.3895622859    0.9042126752   -1.3828054542
 H    0.6657749816   -0.7334503562    0.4587316397
 H    0.0449798633    0.7074396194    1.2550999749
 H   -3.5465332332   -2.2376134375    1.8382191483
 H   -4.8629094297   -1.6467943401   -0.2560306614