21

 C   -0.1108027722    1.5209822838    0.0368089613
 C    0.0046752384   -0.0047067850    0.0285161425
 C    0.7525797848   -0.5572986731    1.2459592922
 O    0.0327837419   -0.1563827877    2.4060906725
 C    0.5215469476   -0.7737691314    3.5880565905
 C    0.2133568033   -2.2704727400    3.5558121014
 O   -1.1722150027   -2.5241676354    3.7833261488
 C    0.6639544511   -2.8424992941    2.2321124941
 C    0.9167469706   -2.0552692187    1.1880187569
 H    0.8789263733    1.9911269253    0.0216529661
 H   -0.6627932504    1.8758709500   -0.8385276275
 H   -0.6305961564    1.8636996596    0.9344335598
 H   -0.9918007970   -0.4619188968    0.0035633203
 H    0.5296280871   -0.3404941615   -0.8740211383
 H    1.7582497178   -0.0913089824    1.2739494265
 H    1.6050372020   -0.6029160860    3.6976801454
 H    0.0023590921   -0.3019962756    4.4264260347
 H    0.7334462914   -2.7675732726    4.3830489760
 H   -1.6432227538   -2.0586230908    3.0815238394
 H    0.7434903863   -3.9229597995    2.1538784331
 H    1.2519532349   -2.4681483182    0.2393016844