21

 C    0.0030411790    1.4793213945    0.0334744974
 C    0.0064731268   -0.0364036979    0.0199063524
 C    0.7125056855   -0.7248318335   -1.1836724410
 C    0.4655964910   -2.1670147400   -0.7641677154
 C    0.4500691123   -2.1815698364    0.7651577475
 C    0.6961705602   -0.7491507590    1.2180805431
 C   -0.8488272964   -2.1820642425    0.0001164279
 O   -1.6837528894   -3.2893449170    0.0651803070
 C   -1.3721904436   -0.7501486411    0.0079018127
 H    1.0250946568    1.8751005749    0.0407620702
 H   -0.5033119451    1.8854447446   -0.8493626480
 H   -0.5102538191    1.8692331006    0.9194353285
 H    0.2432942595   -0.4660312423   -2.1401455415
 H    1.7756088739   -0.4636476289   -1.2416372517
 H    0.7960164344   -3.0294584126   -1.3284291237
 H    0.7621644694   -3.0557239695    1.3207492433
 H    1.7594492433   -0.4949906351    1.2949011546
 H    0.2142418518   -0.5114677195    2.1730814787
 H   -2.1340443631   -3.3741727716   -0.7824315888
 H   -1.9724960550   -0.5272225752    0.8968001153
 H   -1.9622862322   -0.5029561124   -0.8835922484