23

 C    0.0114965466    1.3433080873   -0.0496674484
 O   -0.0305259014   -0.0484256906    0.1535054389
 C   -1.3255290219   -0.6316335185    0.0509860153
 C   -1.7958327327   -0.7445213259   -1.4025488433
 C   -1.2335188870   -1.9763704055    0.7309225741
 C   -0.3389066450   -3.1911616738    0.3254649104
 C   -1.1082483346   -3.6391664319    1.6008216790
 C   -0.7891518005   -2.2415430695    2.2011367341
 C   -2.3819211745   -3.0033029595    0.9732085778
 H    1.0330368988    1.6686250515    0.1643833893
 H   -0.2332870026    1.6325891871   -1.0823836764
 H   -0.6767615521    1.8747368189    0.6271037751
 H   -2.0443383222   -0.0089319623    0.6136666317
 H   -2.7778228087   -1.2250166080   -1.4500564047
 H   -1.8855429869    0.2385401023   -1.8729609850
 H   -1.0872560354   -1.3419189799   -1.9840567805
 H   -0.5968176455   -3.7034377332   -0.6061512596
 H    0.7401772759   -3.0503973761    0.4221402645
 H   -1.0387387830   -4.6038842679    2.1041359247
 H    0.2563605249   -2.0287991497    2.4351837678
 H   -1.4600992224   -1.8792642038    2.9862287628
 H   -3.1725101193   -2.6987031904    1.6660071776
 H   -2.7941510803   -3.5003782107    0.0900391748