15

 C   -0.2784153197    1.4947872110    0.0305094074
 C    0.1118275819    0.0343241371    0.0036155708
 O    1.3691426508   -0.1904416712   -0.7296074397
 C    1.9780303090   -0.7952059094    0.3518308825
 O    3.0726726890   -1.2493128730    0.4157510096
 C    0.7708712444   -0.5897504136    1.2372328228
 C    0.6942067852   -0.2073908404    2.6666531494
 N    0.2649570797   -1.5392122392    2.2173839384
 H    0.5208012755    2.1029140189    0.4628623053
 H   -0.4824481334    1.8551531960   -0.9818171547
 H   -1.1865455735    1.6336688056    0.6271211191
 H   -0.6720665612   -0.5903627668   -0.4379674696
 H    1.6012054389   -0.1980633591    3.2634518797
 H   -0.0564421829    0.5272473393    2.9474998715
 H   -0.7500399836   -1.5898809549    2.1586474775