20

 C    0.1114747012    1.4678433667   -0.2830528626
 C    0.0214674759   -0.0368304842   -0.0547157252
 C    1.0750418267   -0.8746040222   -0.8521695522
 C    1.7302213796   -1.2846593093    0.4796657244
 C    0.6988743688   -0.4963493855    1.2576080172
 N    0.8165079264   -1.9317552334    1.3938480194
 C   -0.2285387943   -2.8561328343    0.9483500731
 C    0.3269677956   -4.1732820765    0.6533941823
 C    0.7846177380   -5.2529513972    0.3926095076
 H    1.1397895628    1.8247581251   -0.1554455072
 H   -0.2136082761    1.7334437638   -1.2943749443
 H   -0.5203999958    2.0129241875    0.4270042380
 H   -1.0195387192   -0.3602417129   -0.1703609489
 H    0.7094559530   -1.6899237964   -1.4839133219
 H    1.7253795074   -0.2357542342   -1.4547503481
 H    2.7934589686   -1.4083720594    0.6540059765
 H    0.8067610315    0.1136452745    2.1498700049
 H   -0.9560945235   -2.9369402419    1.7653495994
 H   -0.7888234341   -2.5057625677    0.0684088795
 H    1.1866170877   -6.2101111424    0.1700669481