20

 C    0.1614758668    1.4865124280    0.0463767283
 C   -0.0785091161   -0.0306769879    0.0099854046
 O    0.5625004885   -0.5950168272   -1.1508892522
 C    1.6519651014   -1.4355367844   -0.7712875383
 C    1.5616122492   -1.5339862474    0.7252124509
 C    0.5886751785   -0.7468325740    1.1644526797
 C   -1.5784273877   -0.3181982296   -0.0589522566
 C   -2.2746288711   -0.3835005488   -1.3642774011
 N   -2.0676767524   -1.6049264625   -0.5578520975
 H    1.2311444681    1.7036600157    0.1105207657
 H   -0.2398231118    1.9504946242   -0.8586994220
 H   -0.3335690131    1.9373108660    0.9130272353
 H    1.5545933597   -2.4086185995   -1.2738810670
 H    2.6061393648   -0.9948594356   -1.1025086972
 H    2.2196699358   -2.1549829717    1.3196392757
 H    0.2848259140   -0.5957193611    2.1924789132
 H   -2.1252130316    0.0578127837    0.8043713319
 H   -3.3072841856   -0.0571767676   -1.4489954935
 H   -1.6701987522   -0.2587157662   -2.2571345315
 H   -1.2728359654   -2.1042265541   -0.9539826184