18

 C   -0.0314312812    1.5060527370    0.0482762464
 C   -0.0255739698   -0.0034682733   -0.0746156008
 C    0.7456339082   -0.6282638850   -1.1874729256
 N    1.2864853377   -0.6170726833    0.1859335863
 C    1.4136987019   -1.8472302395    0.8790695384
 O    2.4748455400   -2.3716137018    1.0512877414
 O    0.2888940336   -2.3840996588    1.4306725715
 C   -0.9589592929   -2.1788135446    0.7543871726
 C   -1.2354567015   -0.7018047766    0.5144953482
 H    0.8939891154    1.9310459550   -0.3466923653
 H   -0.8764371388    1.9332711753   -0.5029359982
 H   -0.1238050780    1.8072223380    1.0970819589
 H    0.4139488137   -1.5801755409   -1.5938043570
 H    1.2828746271   -0.0030871531   -1.8951010576
 H   -0.9537460174   -2.7473105266   -0.1843078476
 H   -1.7164438189   -2.6236377195    1.4024566029
 H   -1.4735701903   -0.2251333702    1.4724485109
 H   -2.1135861386   -0.5843800222   -0.1305944053