23

 C    4.1396995511   -5.5963855389   -0.1385084326
 C    2.6425321484   -5.3468935125   -0.3373853364
 C    2.0358586516   -4.4415796603    0.7446494317
 C    0.5740931219   -4.1380376807    0.4780157439
 C   -0.5580055347   -4.9542481096    1.0265041378
 C   -0.3640985121   -6.1652359395    1.9152487275
 N   -0.3413282574   -3.5752532711    1.4751034213
 C    0.1146719762   -3.2975899865    2.8283638317
 H    4.5450803907   -6.2417305443   -0.9240209753
 H    4.7029132075   -4.6565972249   -0.1556478133
 H    4.3369596862   -6.0805869611    0.8245537235
 H    2.4737704742   -4.8930429997   -1.3227061997
 H    2.1056105690   -6.3037780431   -0.3496332058
 H    2.1791052451   -4.9070057272    1.7244801412
 H    2.5938799777   -3.4949865527    0.7749857507
 H    0.4228818038   -3.6999948667   -0.5107613065
 H   -1.4441129497   -5.0441063955    0.3965496659
 H    0.5691695725   -6.1493014212    2.4807053474
 H   -1.1868876053   -6.2532928768    2.6339016206
 H   -0.3648936128   -7.0753312527    1.3056642786
 H    0.8224352370   -4.0193431872    3.2601176706
 H    0.5935542388   -2.3128577881    2.8418495519
 H   -0.7576325997   -3.2503117297    3.4887650652