17

 C   -0.1503917088    1.5889487350   -0.0689651879
 C    0.0170082680    0.0782089186   -0.0392573709
 O   -1.2087464309   -0.5492163757   -0.3293784319
 C    1.2066686917   -0.6669649866   -0.7177244176
 C    2.1659071549   -0.1312488531    0.3741948762
 C    0.8855891043   -0.6374141874    1.0876755837
 N    0.9920361385   -1.8684025535    0.2001484006
 C    0.5935944977   -0.7009954904    2.4974162338
 N    0.3117920338   -0.7100742556    3.6192318288
 H    0.7739671958    2.1369258807    0.1131920326
 H   -0.5474700592    1.8912766792   -1.0425141447
 H   -0.8703442838    1.8992187118    0.6983813527
 H   -1.8931247887   -0.1627511658    0.2276408043
 H    1.3970027640   -0.7910261456   -1.7830885039
 H    3.0344486765   -0.7639428849    0.5467708254
 H    2.3972186359    0.9305937697    0.4091900449
 H    0.0455056001   -2.2232943165    0.0430200338