17

 N    0.5363469302    0.1835489726   -0.8432345236
 C   -0.0608027788    0.1258220609    0.3752031666
 O    0.2323921500    0.8603005456    1.3007257253
 C   -1.1670694147   -0.9307314324    0.5250787223
 C   -0.8567180799   -2.2990422116   -0.0823335149
 C   -1.9552653093   -3.4064718318    0.0150161723
 N   -1.9423806505   -3.4511735117   -1.4518952101
 C   -1.0337718713   -2.4485376762   -1.6148074855
 O   -0.5870302487   -1.8926395109   -2.5924380337
 H    1.2371906487    0.8944826415   -0.9757221179
 H    0.2608504461   -0.3994659494   -1.6267657638
 H   -1.3409449915   -1.0257177740    1.5993227591
 H   -2.0881378555   -0.5279459711    0.0833027054
 H    0.1233531980   -2.6569523520    0.2452363859
 H   -1.6476635091   -4.3393054379    0.4955533610
 H   -2.9048808438   -3.0653739620    0.4389307698
 H   -2.5004802898   -3.9596604697   -2.1216076683