19

 C   -0.1433502667    1.5325696487    0.0778057758
 C    0.0243843795    0.0257014467    0.0016608337
 C    0.7171483503   -0.5971952606   -1.2468038871
 C    2.0230120112   -0.2745370071   -0.4847339845
 N    1.2204084844   -0.5291506789    0.7770033878
 C    0.9684202333   -1.9806219680    0.6250303626
 C    0.5930674602   -2.1064020463   -0.9201247265
 C   -0.7252222161   -2.6699272302   -1.1718714573
 N   -1.7766600331   -3.1140209799   -1.3603616145
 H    0.7370615351    2.0876074108   -0.2544507409
 H   -0.9879648378    1.8404177193   -0.5468702390
 H   -0.3583407959    1.8293043955    1.1084417411
 H   -0.9156620029   -0.4505750313    0.3002175729
 H    0.5116493103   -0.2930705692   -2.2739946109
 H    2.8877001490   -0.9312187638   -0.6193031119
 H    2.3406199198    0.7648524750   -0.5436304273
 H    1.8646237305   -2.5541977471    0.8689541316
 H    0.1524239115   -2.2997303661    1.2751809736
 H    1.3313904073   -2.6992811074   -1.4676701191