19

 C   -0.0724583396    1.6180635487    0.4790598804
 C   -0.0474805860    0.1412633700    0.0659043102
 C    0.8737872271   -0.6968258064    0.9745083763
 O    2.2244925935   -0.2719974373    0.9142559626
 C   -1.4501008408   -0.4631676490    0.0241691782
 C   -2.2538283152   -0.3870326912   -1.2343626338
 N   -1.7116937116   -1.6723650221   -0.7887933655
 C   -2.1640616054   -0.4427345365    1.2883590421
 N   -2.7106377146   -0.3847916426    2.3056200315
 H    0.9386307733    2.0339746269    0.4571563839
 H   -0.6897706671    2.2111046632   -0.2019050188
 H   -0.4763717417    1.7388185011    1.4900703829
 H    0.3536920326    0.0701984837   -0.9539651782
 H    0.4893637087   -0.6846663035    2.0047768427
 H    0.8672985644   -1.7403310250    0.6411577732
 H    2.3299178330    0.4852622039    1.4967926997
 H   -3.3343724319   -0.3028848960   -1.1783407377
 H   -1.7918921127    0.1237482279   -2.0753743438
 H   -0.8690604160   -1.9031731157   -1.3112904358