18

 C   -0.0008784429    1.0565608291    0.4997384410
 O   -0.1838086529    0.0193211337   -0.4464061516
 C   -1.3818299463   -0.6661147835   -0.2760764137
 C   -1.4957196736   -2.0082088103   -0.9586693055
 C   -1.4150700327   -1.9243607351    0.5399653646
 C   -0.3421679417   -2.5013850666    1.4745284174
 C   -1.5345838133   -2.8684387958    2.4015378898
 O   -1.6753747333   -3.3999595373    3.4684960895
 N   -2.4264498162   -2.3294659049    1.4991373226
 H    0.9614163191    1.5239299882    0.2800311813
 H   -0.7928489227    1.8163620315    0.4198369175
 H    0.0100881002    0.6771540565    1.5308965200
 H   -2.2729830751   -0.0330356540   -0.2642443798
 H   -2.4410461135   -2.2585026654   -1.4291599402
 H   -0.6147649350   -2.3663045380   -1.4814376346
 H    0.2012400831   -3.3654617414    1.0883911472
 H    0.3594081208   -1.7832374538    1.9011468003
 H   -3.4329719740   -2.2582912731    1.5060935941