20

 C    0.6741285171    1.3161119935   -1.7165496564
 N    0.3636305728    0.0255339463   -1.1222619019
 C    0.8671451016   -0.1762973133    0.2250249817
 C   -0.4082279826   -0.8503169561   -1.8295115254
 O   -0.8847985548   -0.5891551351   -2.9247310270
 C   -0.7325438327   -2.2107392750   -1.2170858594
 C   -2.0787156999   -2.2791367609   -0.5303161112
 C   -0.1679121482   -3.3898683232   -1.8810567362
 O    0.3321641728   -2.9571465178   -0.6080701867
 H    1.7600592142    1.4659914409   -1.7516680126
 H    0.2640584486    1.3396753820   -2.7245791970
 H    0.2356863096    2.1302558812   -1.1254097215
 H    0.4787220726    0.6044017552    0.8925520561
 H    0.5853406495   -1.1503464176    0.6127562404
 H    1.9626140178   -0.1115839175    0.2365613415
 H   -2.8648131392   -1.9674664074   -1.2239351928
 H   -2.2799714537   -3.2989769850   -0.1929508499
 H   -2.1107997778   -1.6158644361    0.3406816057
 H   -0.7223816429   -4.3269730302   -1.8678597835
 H    0.5121504752   -3.2603483739   -2.7202349539