21

 C    0.2008930903    1.6841829819    0.2755184973
 C   -0.0921084394    0.1977214026    0.0270781436
 C    0.6162434309   -0.4046583798   -1.2001558606
 C    2.1503237470   -0.5962268310   -1.0470111267
 O    2.0277397112   -2.0220064672   -1.1433525857
 C    0.5929470283   -1.9541749424   -1.3614026722
 C   -0.1782966457   -2.8323192745   -0.3975506152
 C    0.2280027247    0.3393175659   -2.4593953176
 O   -0.4733114897   -0.1060754087   -3.3324247474
 H    1.2774153357    1.8768862921    0.3403739463
 H   -0.2062196259    2.3256213450   -0.5114086815
 H   -0.2468703044    2.0039470962    1.2208140136
 H    0.2169892011   -0.3741277654    0.9085081251
 H   -1.1735346134    0.0476463106   -0.0761009241
 H    2.7665111075   -0.1740745892   -1.8531670867
 H    2.5682993655   -0.2784108850   -0.0828581222
 H    0.3466305559   -2.2362845184   -2.3917375476
 H    0.0450091973   -2.5953140284    0.6457200167
 H   -1.2561111434   -2.7321327050   -0.5631406934
 H    0.0928628415   -3.8787184518   -0.5691645398
 H    0.6495237351    1.3669229325   -2.5422790519