20

 C   -0.4047204439    1.4268173762   -0.1078542954
 C    0.1006405023   -0.0160417791   -0.1016069314
 C    0.7144528327   -0.4963068258   -1.3947553394
 N    0.7774193821    0.3541672555   -2.3485529767
 O    1.4048688335   -0.1771423764   -3.5020707752
 C    1.1918389115   -1.9181796347   -1.5210738045
 O    0.6964725608   -2.6032012297   -2.6359058362
 C    2.6003501956   -2.2547927466   -1.0603578855
 C    1.3979925514   -2.7946599702   -0.3221832942
 H    0.4037159164    2.1287294379   -0.3264956050
 H   -1.1756791569    1.5704057346   -0.8688362656
 H   -0.8291164027    1.6792583340    0.8683073990
 H    0.8438649224   -0.1423772544    0.6984703323
 H   -0.7142320497   -0.7058529600    0.1555951462
 H    1.3083937472    0.5414435868   -4.1348970515
 H    0.9338376987   -2.0643721564   -3.4034245000
 H    3.1517879097   -2.9361160137   -1.6979478081
 H    3.1945902735   -1.4802975676   -0.5874338104
 H    1.1790859981   -2.4107872782    0.6667979913
 H    1.1458231674   -3.8379967922   -0.4704767696