17

 C    0.0752796653    1.5210350829    0.0064049092
 C   -0.0032464413   -0.0023591204   -0.0103317958
 O   -1.3449520696   -0.4818423479    0.0344669703
 C    0.7095719694   -0.6339642631   -1.2243292532
 O    2.1024123487   -0.3493786699   -1.3398380743
 C    1.7152978286   -1.6042533461   -0.7698847721
 C    1.7038864200   -1.6122145593    0.7505588835
 O    2.0709809258   -0.3589544332    1.3353865626
 C    0.6840022239   -0.6536474049    1.2013123940
 H    1.1204356363    1.8369216112    0.0146726484
 H   -0.4038828909    1.9443382971   -0.8848566932
 H   -0.4281161473    1.9205223530    0.8917508847
 H   -1.8642647879    0.0274007994   -0.5966710822
 H    0.1584498926   -0.7187910910   -2.1602242814
 H    2.0022946735   -2.4927355564   -1.3241376719
 H    1.9901007358   -2.5028419475    1.3016304774
 H    0.1112626072   -0.7453173139    2.1213012440