17

 C    0.0370401909    1.5998421515    0.0100378567
 C    0.0683853786    0.0788883953   -0.0283375240
 C    0.8184773354   -0.6850202370   -1.1384401345
 C    2.3060290606   -0.7497098110   -0.7712150838
 C    1.2655267270   -1.7632419026   -0.2177734531
 C    0.9898529236   -0.6789123451    0.9547290415
 O    0.6412174298   -0.8588398832    2.2636741769
 C    2.4185641451   -0.2415845700    0.6217202248
 O    3.3209407172    0.0477321644    1.3664445475
 H    1.0385734137    2.0258883232   -0.1099699849
 H   -0.5972587443    2.0004974648   -0.7872453341
 H   -0.3657941795    1.9505589431    0.9655802182
 H   -0.9420425605   -0.3379274813    0.0479223143
 H    0.5317705510   -0.7846524502   -2.1773352860
 H    3.0862263247   -0.9399143417   -1.4939637867
 H    1.3130826580   -2.8403223075   -0.2512921840
 H    1.4539974288   -0.7784663826    2.7847747011