16

 C   -0.1093090403    1.5679606064    0.0781556349
 C   -0.0293855604    0.0595401252    0.0232724114
 C    0.4210093387   -0.6485940997   -1.2101645416
 O    0.7605184628    0.1578613799   -2.3033893684
 C    1.7218459432   -0.3142583013   -3.1461312577
 O    2.0130322665    0.2557253572   -4.1486173673
 C    1.3226332248   -0.6648842094    0.0275436932
 C    2.5437983118    0.0852130976    0.0218023853
 N    3.5371870220    0.6783848023    0.0127666491
 H    0.6762001829    2.0350452935   -0.5175014254
 H   -1.0746092227    1.9063979283   -0.3097209751
 H   -0.0130343711    1.9165280196    1.1102742378
 H   -0.7948041350   -0.4618918954    0.5903913655
 H   -0.0477669846   -1.5901561163   -1.4827624171
 H    2.1727034081   -1.2589528733   -2.7924728622
 H    1.3830040534   -1.6046088348    0.5664927775