20

 C    0.0247953000    1.4545207224    0.3085807857
 C   -0.0738443436   -0.0693555344    0.2621123455
 C   -1.5216085325   -0.5544464388    0.2382975199
 O   -2.4727115180    0.1587549702    0.5055208329
 N   -1.6903297654   -1.8542415878   -0.1484402632
 C   -0.7864846664   -3.0227383685   -0.1814532664
 C   -2.0161082568   -3.9249155134    0.0047369292
 C   -2.7867829093   -3.5177207325    1.2384566910
 C   -2.8825829407   -2.6701540630    0.0030138854
 H    1.0675070102    1.7723697743    0.3979846057
 H   -0.3954588333    1.9011911415   -0.5966712961
 H   -0.5396649284    1.8480092674    1.1563637533
 H    0.4612782085   -0.4758278418   -0.6044548335
 H    0.4118975405   -0.5092729224    1.1445704749
 H   -0.2947937842   -3.1427367374   -1.1529583808
 H   -0.0316778853   -3.0526387177    0.6130456675
 H   -2.1762998290   -4.8618051103   -0.5089952094
 H   -3.6595577610   -4.1274891104    1.4503057118
 H   -2.2717608824   -3.1397547748    2.1176069025
 H   -3.8008662031   -2.4304700427   -0.5159662861