19

 C   -0.1122455222    1.5061352979   -0.1198241082
 C    0.0821533965    0.0004862790   -0.0808796130
 O    1.0935977481   -0.5209115375   -0.4909037088
 C   -1.0761855698   -0.7970881571    0.5107555869
 C   -0.9020390601   -2.2913086186    0.3674759054
 C   -1.6692599197   -3.2531788037    1.2382018204
 O   -2.5855083566   -2.6637051215    2.1330832585
 C   -2.0265530053   -3.1308646668   -0.2229140340
 O   -3.2426312794   -2.5183574221   -0.5272622524
 H    0.8118359652    1.9925523153   -0.4339645026
 H   -0.9121269070    1.7559697112   -0.8266253561
 H   -0.4234991768    1.8865804784    0.8588654030
 H   -1.1740628808   -0.4962082637    1.5630061936
 H   -2.0061443185   -0.4668729047    0.0300273430
 H    0.1097025920   -2.5890345667    0.1132931850
 H   -1.1636912498   -4.1373584716    1.6201709778
 H   -3.1667581048   -3.3589058487    2.4605403245
 H   -1.7849658781   -3.9290096702   -0.9177285467
 H   -3.6424589929   -2.2862047888    0.3232375537