17

 C   -0.2999045752    1.4294691241   -0.0512541620
 C    0.0854449143   -0.0381005170    0.0111942165
 O    0.9070498995   -0.4195505018   -1.0955774184
 C    2.2359212170   -0.3805473545   -0.6495401386
 C    2.1900569925   -0.3297972382    0.8260023402
 O    0.8359955680   -0.3409351561    1.1903685162
 C    2.7383880075   -1.5951464144    0.1472111736
 C    1.9999494797   -2.8796210747    0.1684347713
 O    2.5483081133   -3.9548565239    0.2224027231
 H    0.5956429621    2.0579022768   -0.0450246663
 H   -0.8643625147    1.6287570097   -0.9662042214
 H   -0.9196157601    1.6898773226    0.8110726784
 H   -0.7951537848   -0.6892557950    0.0062180732
 H    2.9222302313    0.1701644200   -1.2822581862
 H    2.8369656465    0.2645139614    1.4607773389
 H    3.8176210625   -1.7075727229    0.1846161599
 H    0.8962703307   -2.7997254360    0.1314375917