19

 C   -0.4162884767    1.4392363989    0.2390105060
 C    0.0198045063    0.0047791925   -0.0185230039
 O   -1.0730775170   -0.7889996101   -0.4287710249
 C    1.2127078922   -0.2198630398   -0.9697094035
 O    1.9834489681   -0.8943388466    0.0508057084
 C    0.9523527262   -0.6986388852    1.0426623480
 C    1.4539738482    0.0947110468    2.2454237121
 C    0.4112514273   -2.0325902657    1.5201783280
 O   -0.6770560573   -2.1620699973    2.0280233380
 H    0.4253615501    2.0983742758    0.4671944311
 H   -0.9220411918    1.8211317165   -0.6528437808
 H   -1.1249241657    1.4850348308    1.0728705937
 H   -1.5756679689   -1.0324645879    0.3600229125
 H    0.9793270799   -0.8733211922   -1.8157516094
 H    1.7168944378    0.6874047350   -1.3211520084
 H    1.8829754027    1.0475544299    1.9277121734
 H    0.6384851522    0.2796678778    2.9506120840
 H    2.2372053778   -0.4686595232    2.7635017182
 H    1.1045458985   -2.8886063963    1.3689915175