25

 C   -0.0449070370    1.6091109318    0.0649206620
 C   -0.0110225821    0.0800698711    0.1818025346
 C   -1.3966990325   -0.5486162236    0.0569858039
 C   -2.0315638109   -0.6550974530   -1.3680546898
 C   -1.2267689088   -1.9725174565   -1.5450077962
 C   -1.4962701819   -2.1167138295   -0.0139594079
 C   -0.6812577111   -3.0277967881    0.8750023489
 C   -3.0310642458   -2.3031319707   -0.0083015664
 C   -3.4365296251   -1.1938176782   -1.0359587139
 H    0.9543841211    2.0390190389    0.1861181963
 H   -0.4276459264    1.9265506630   -0.9108449381
 H   -0.6922808599    2.0495884854    0.8314733882
 H    0.6772603186   -0.3225831467   -0.5696861841
 H    0.4140426973   -0.1946947453    1.1565121468
 H   -2.0522998662   -0.0914545326    0.8115940825
 H   -1.9660293628    0.1600379946   -2.0903092444
 H   -1.6424313820   -2.7382588283   -2.2086123529
 H   -0.1742950421   -1.8172707406   -1.7854817409
 H    0.3899003000   -2.8102894860    0.8076146243
 H   -0.9768218001   -2.9243707258    1.9260705594
 H   -0.8240609128   -4.0784870559    0.5960178109
 H   -3.3214696993   -3.3077537560   -0.3326970378
 H   -3.4596506560   -2.1376331951    0.9855444667
 H   -4.0832908304   -0.4280801701   -0.5973918060
 H   -3.9458685639   -1.6003772426   -1.9147473762