22

 C    0.0953174958    1.5258159926   -0.3079032559
 C    0.0318006683    0.0521844416    0.0136496045
 N    1.3027363648   -0.6959635054    0.0519666389
 C    0.5091532231   -0.5550758980    1.2842208949
 C    1.1368713177    0.2272656078    2.4203143912
 O    0.1333348211    0.8354452463    3.2361314728
 C    2.0876327791   -0.6519546398    3.2379620254
 C    2.8063567860    0.1101816174    4.3430527398
 O    3.6118134567   -0.8175610454    5.0573417259
 H    0.9974068779    1.9853031716    0.1008626211
 H    0.1073677481    1.6793609929   -1.3922669728
 H   -0.7749898951    2.0485722420    0.1017943932
 H   -0.8150045500   -0.4611091208   -0.4422316681
 H    1.1919625931   -1.6248655345   -0.3441962391
 H   -0.0393712544   -1.4367831883    1.6243314294
 H    1.7009779937    1.0653917063    1.9998100451
 H   -0.3866688594    0.1281009833    3.6341382168
 H    1.5257597787   -1.4816507057    3.6909395597
 H    2.8261080384   -1.1006283745    2.5643113155
 H    3.4196112292    0.9115025091    3.8986460399
 H    2.0657629039    0.5913689675    4.9974190240
 H    4.0435822434   -0.3461218862    5.7755112478