19

 C   -0.0087983525    1.4958043295    0.0110073808
 C    0.0792588463   -0.0071825344   -0.0176309416
 C   -1.1480879715   -0.8519402535    0.4215888919
 C   -0.5715291152   -2.2736354871    0.3247711551
 C   -0.4400183730   -1.4759444171    1.6013655485
 C    0.8841522310   -0.9004080446    1.0128285775
 C    0.8646077577   -1.9575858994   -0.1572794537
 C    0.7405272603   -0.8018048577   -1.1767287142
 O    0.0597702226   -0.9839346348   -2.3903074018
 H    0.9744236685    1.9549034908   -0.1389252082
 H   -0.6702570518    1.8608961885   -0.7837615186
 H   -0.4069404055    1.8550653730    0.9667226514
 H   -2.2013287587   -0.6306698116    0.3016887076
 H   -1.1832821597   -3.1454558754    0.1326314960
 H   -0.7820549458   -1.6841946991    2.6061924666
 H    1.7751980347   -0.5761048382    1.5436150424
 H    1.5803087976   -2.7711688114   -0.2629919193
 H    1.7226605041   -0.3833159926   -1.4237447154
 H   -0.7964854691   -1.3723192447   -2.1761371948