14

 O   -0.9318158166    1.2823033221    0.2744553319
 C    0.1868706942    0.8787284106    0.0289021642
 C    1.3879613610    1.7383977298    0.0166938809
 C    1.2429908417    3.0645567749    0.2962136010
 N    2.3009332136    3.9110743247    0.3028650483
 C    3.5714920284    3.4557247252    0.0246653701
 C    3.7975430716    2.1563089758   -0.2617553231
 C    2.7110437694    1.1678271672   -0.2918646682
 O    2.8922274842   -0.0169218746   -0.5490910507
 H    0.3899553181   -0.1813056358   -0.2075401178
 H    0.2674153050    3.4806016119    0.5227816034
 H    2.1582017793    4.8852729302    0.5136337949
 H    4.3506999740    4.2076093499    0.0545731132
 H    4.8004679861    1.8099338282   -0.4787900380