18

 O    0.1194478127    0.0663430086    0.4372183332
 C    0.1370163290    1.2617378053    0.2201509377
 N    1.2165637707    1.9539150717   -0.2259845722
 C    1.5358680718    3.3699208968   -0.1328707716
 C    2.5209662866    3.6019883187    1.0116533468
 C    2.6279672859    2.5184462074    2.0866675763
 C    3.0206395655    1.2317268122    1.3034621474
 C    2.6568820178    1.5758399919   -0.1440475926
 C    3.0035641295    3.0827094114   -0.3200134634
 H   -0.7587219414    1.9118700457    0.3110510094
 H    0.9017635104    4.1350941405   -0.5640528652
 H    2.7065439296    4.6405218620    1.2635548110
 H    3.3838177252    2.7852971988    2.8301986795
 H    1.6827305003    2.3883295058    2.6236363444
 H    4.0978662413    1.0437840577    1.3695471032
 H    2.4924483076    0.3414417991    1.6494359202
 H    2.9713951929    0.8649667762   -0.9076844009
 H    3.7294218344    3.5264460702   -0.9850230333