18

 O   -0.1510661577    1.4796839433   -0.1265632325
 C    0.0415580693    0.0764190877   -0.0191928561
 C   -1.3658739248   -0.5321307810    0.0995787572
 C   -1.4442026246   -1.9696640016    0.5643517055
 N   -2.2545419262   -2.2866535612    1.4848582038
 O   -0.7421030651   -2.9384393469   -0.1107514896
 C    0.6763871911   -2.7961516193   -0.3195351568
 C    1.0718528032   -1.7712655141   -1.3505012705
 C    0.7926935349   -0.4789023113   -1.2068611295
 H    0.7146035714    1.9001928953   -0.1417792395
 H    0.5958717200   -0.1580492177    0.9072077752
 H   -1.9405866745    0.0607594526    0.8118425134
 H   -1.8536800903   -0.4553132006   -0.8794510800
 H   -2.2141050482   -3.2974352572    1.6385397772
 H    1.1536297218   -2.5809099983    0.6478277623
 H    0.9979403485   -3.7930461287   -0.6261817896
 H    1.5882072389   -2.1274069802   -2.2366804269
 H    1.0540591424    0.2401881193   -1.9797129037