17

 C    0.1690965101    1.4752080000    0.0844886980
 C    0.0379571479   -0.0490258341    0.0157051542
 C    0.5158677159   -0.5933180869   -1.3206033364
 O    1.9290271067   -0.3473252050   -1.5553388280
 C    2.2327833422   -1.7554649215   -1.5520799123
 C    0.7357420459   -2.1209016240   -1.4369510162
 O    0.3187719894   -2.8398982585   -0.3012149662
 H    1.2063008751    1.7769494289   -0.0870623748
 H   -0.4520746499    1.9635957475   -0.6750006653
 H   -0.1402644784    1.8538355441    1.0631371952
 H    0.6129589382   -0.5189151222    0.8196347096
 H   -1.0057368119   -0.3547286535    0.1590749420
 H   -0.0809825447   -0.1637740801   -2.1374245942
 H    2.7527388843   -2.0673452004   -2.4662424396
 H    2.8202870301   -2.0556917281   -0.6742966368
 H    0.3174702017   -2.5501600355   -2.3557212967
 H    0.4637701074   -3.7769966908   -0.4621840125