17

 C   -0.3478895813    1.4955421109   -0.0061917224
 C    0.0352525981    0.0168773294   -0.1035819953
 C    1.1151687519   -0.3337250940   -1.1533742662
 C    2.1360927149   -1.1398769244   -0.4020841406
 C    1.8645614028   -1.2467639922    0.9105869665
 C    2.6815056673   -1.9501367032    1.9218740618
 O    3.7015225938   -2.5495801741    1.6659602807
 C    0.6075296302   -0.5169202692    1.2244513207
 O    0.1194336366   -0.3579626627    2.3196134552
 H    0.5385683009    2.1215924824    0.1430023881
 H   -0.8536315644    1.8351767051   -0.9147076774
 H   -1.0154661647    1.6496753845    0.8453921379
 H   -0.8716753880   -0.5689375115   -0.2997348804
 H    0.7222915202   -0.8940333614   -2.0101859270
 H    1.5841939906    0.5650254248   -1.5769728262
 H    3.0099195724   -1.5774473804   -0.8737644414
 H    2.2834145987   -1.8890049739    2.9539055660