19

 O   -0.1032945378    1.3711539937    0.1496196038
 C    0.0220422990   -0.0445927043    0.0508932213
 C    0.8083424646   -0.5713508090    1.2719435437
 C    2.1901299463    0.0114301466    1.4364836870
 O    2.6206048267    0.9612172448    0.8225463151
 C   -1.4055581688   -0.6477744946   -0.0314023922
 C   -1.3856809481   -1.6933967813   -1.1735642970
 C   -0.1089029508   -1.3735506826   -1.9109405621
 C    0.6483259035   -0.4957816575   -1.2590011193
 H    0.7985881915    1.7201131291    0.1680227832
 H    0.2613821122   -0.3299392806    2.1967555958
 H    0.8981650482   -1.6658408370    1.2536658957
 H    2.8234592083   -0.4884982864    2.2023976164
 H   -1.7385858924   -1.0671939814    0.9216766228
 H   -2.0763433330    0.1782535628   -0.2790190848
 H   -1.3688954013   -2.7227659003   -0.7897922652
 H   -2.2701260093   -1.6272821482   -1.8175007780
 H    0.1472418778   -1.8368321049   -2.8582218450
 H    1.6154587433   -0.1250077588   -1.5786260812