18

 C   -0.4210166632    1.5045970836    0.0041050092
 C    0.0231608920    0.0491761151    0.0917321593
 C    0.6393999523   -0.6031260798   -1.2123545278
 N    1.9187539245   -0.6969478331   -0.4716705571
 C    3.0705311173   -1.4060299813   -0.1606456395
 C    3.1846908440   -1.2329298717    1.2123635889
 N    4.1943225368   -1.6907650265    2.0610676723
 N    2.1062569887   -0.5461124021    1.7518243314
 C    1.3888454783   -0.2619787551    0.6887909030
 H    0.3617321837    2.1275680686   -0.4399584667
 H   -1.3263224869    1.6017129391   -0.6044483922
 H   -0.6409705331    1.8996570078    1.0003981568
 H   -0.7742709785   -0.5713816294    0.5130323923
 H    0.2131850310   -1.5773036162   -1.4675670876
 H    0.6894320859    0.0307598388   -2.1023475134
 H    3.7352312606   -1.8363961903   -0.8892934265
 H    5.1165844837   -1.6724188083    1.6482886892
 H    4.1852583328   -1.1842205096    2.9363660882