21

 C   -0.0013750518    1.4572729030    0.1435516340
 C    0.0481656072   -0.0527589387    0.0691319995
 O    0.6957976909   -0.4199124781   -1.1242984045
 C    0.7906324699   -1.8309307283   -1.2628317634
 C    1.5212111221   -2.4427135437   -0.0645622666
 C    0.8493443607   -1.9601986589    1.2216642198
 C    1.6085697114   -2.2977659785    2.4981968210
 O    0.9487679938   -1.7932905455    3.6399612678
 O    0.7428050123   -0.5327682156    1.2020842799
 H    1.0158601119    1.8562030404    0.1429185897
 H   -0.5399552653    1.8545138473   -0.7195167644
 H   -0.5080267065    1.7707183259    1.0591452673
 H   -0.9692128329   -0.4923232789    0.0719374075
 H   -0.2189891997   -2.2671327715   -1.3511701666
 H    1.3217401356   -2.0156448201   -2.1999560609
 H    1.4997918593   -3.5367134705   -0.1230249494
 H    2.5676749746   -2.1181677477   -0.0720642844
 H   -0.1662733037   -2.3864951723    1.2928222867
 H    1.6735244512   -3.3849267865    2.6131864489
 H    2.6345706193   -1.9035837962    2.4147941340
 H    0.7536241396   -0.8699323655    3.4395828840