16

 O    0.1244673127    1.4226134124    0.2124351607
 C    0.0583139938    0.0121759492    0.2441404335
 C   -1.3393600920   -0.5151801405   -0.1474310564
 C   -1.3968839020   -2.0135980311   -0.0936484776
 C   -2.0078540077   -2.7144200431    0.9564286961
 N   -2.0295300014   -4.0407350931    1.0125972135
 N   -1.4419630228   -4.7265380266    0.0330352807
 C   -0.8678085880   -4.0314934685   -0.9473214372
 N   -0.8102234918   -2.7024915753   -1.0714582425
 H    0.0750519858    1.7043731815   -0.7067163015
 H    0.8124876282   -0.4544433804   -0.4051950822
 H    0.2864767171   -0.2774985307    1.2752657530
 H   -2.0853415248   -0.0731866447    0.5194299789
 H   -1.5611231635   -0.1947456388   -1.1716975396
 H   -2.5001583865   -2.1955866166    1.7740917859
 H   -0.3996218170   -4.6234100838   -1.7290676152