18

 C    0.2426019273    1.3923486630   -0.8885412538
 C    0.1175696414    0.0074121410   -0.4594048221
 C    0.0080383210   -1.1366905476   -0.0978690205
 C   -0.0505786205   -2.5170023089    0.2969188915
 N   -0.7461691986   -2.8764223699    1.5419509950
 C   -1.3035265663   -3.3681043752    0.2781726592
 C   -2.6492694081   -2.8664532362   -0.1791416491
 C   -3.2437802054   -1.6670610427    0.5202903571
 O   -3.2110658793   -3.4536082258   -1.0778646834
 H    1.2660535973    1.6142679484   -1.2098369389
 H   -0.4249936669    1.6109906447   -1.7290864086
 H   -0.0072170761    2.0822529892   -0.0752001025
 H    0.8511749160   -3.0794077883    0.0586111375
 H   -0.2458646979   -3.6178694503    2.0248733745
 H   -1.1404470331   -4.4044739809   -0.0095761710
 H   -2.5891321995   -0.7981698676    0.4007212167
 H   -4.2290974535   -1.4592333444    0.1019599702
 H   -3.3108763978   -1.8561532585    1.5958890081