15

 C    0.0500404631    1.6664406862   -0.0891215976
 C    0.0474239542    0.1411205262   -0.0737150890
 O    0.8310563916   -0.3833883610   -1.1489846264
 C    1.7906970066   -1.2555178230   -0.6719508741
 O    2.5542459139   -1.8281521027   -1.3915408918
 C    1.6480503493   -1.2918639445    0.8047037405
 C    0.6561330248   -0.4786726892    1.1619095391
 C   -1.3770717469   -0.4300289856   -0.2318383135
 O   -2.3655299154    0.1200070041    0.1669088846
 H    1.0534206669    2.0483364959    0.1110819060
 H   -0.2801437398    2.0274920053   -1.0659989182
 H   -0.6431210247    2.0382505831    0.6684040080
 H    2.2958160386   -1.8898087894    1.4285254067
 H    0.2830864653   -0.2642342570    2.1548174602
 H   -1.3927128274   -1.4194250485   -0.7362885543