17

 O   -0.0773459273    0.3785557774    1.0498942428
 C   -0.0433364048    1.3384917444    0.3118115775
 C   -1.2870965395    1.8801405054   -0.3822880535
 N   -1.2612544473    3.2738936855   -0.8001027383
 C   -0.1177054834    3.7923964195   -1.0108034873
 N    1.1101756631    3.1888881080   -0.8526128955
 C    1.2421366875    2.0592971220    0.0330461434
 C    2.2450405507    2.0975537665    1.1773111632
 C    2.5047222663    1.2236087838   -0.0125385743
 H   -1.4514908855    1.2429767999   -1.2673907402
 H   -2.1417595489    1.6963183131    0.2762444702
 H   -0.0615852060    4.8130425765   -1.3913914740
 H    1.9157967924    3.7918046453   -0.9251622691
 H    2.8224959135    3.0099374658    1.2859163195
 H    1.9376047751    1.6205183992    2.1007404417
 H    2.3764412764    0.1541062105    0.1058292804
 H    3.2611873977    1.5308517771   -0.7270544467