18

 C    0.2343349880    1.4612175932    0.2904695289
 C   -0.0493583768    0.0117969175   -0.0279370027
 C    0.6242930238   -0.7330804213   -1.1521303451
 C    1.6309837955   -0.1042835026   -2.0884352815
 N    0.9303888060   -1.0447418821    0.2325305038
 C    2.1890366038   -0.8846319076    0.8165275540
 N    2.1182934841   -0.4347387196    2.1234518101
 O    3.2365193030   -1.1487535945    0.2616168139
 H    1.2478266657    1.7593629276    0.0165926947
 H   -0.4719745703    2.1026486970   -0.2472586909
 H    0.1149684751    1.6552961832    1.3610655818
 H   -1.0691943203   -0.2919283860    0.2106694306
 H    0.0270692461   -1.5119971135   -1.6267744122
 H    2.2008801206    0.6993586767   -1.6209545430
 H    2.3507095815   -0.8542750352   -2.4244923556
 H    1.1116203742    0.2981907778   -2.9648939669
 H    1.2626623087   -0.6090428602    2.6269711206
 H    2.9665321514   -0.5789313804    2.6494860295