14

 O    0.2043858316    0.9048147558    0.9098207407
 C   -0.0693941239    0.0934239961   -0.2236213917
 C   -1.4351135520   -0.4065662127   -0.1508496007
 C   -2.5620516299   -0.8323252063   -0.1208483307
 C   -3.8803006455   -1.3255700002   -0.0839655704
 N   -4.9289843638   -0.8962143140   -0.7298016127
 C   -5.9515373967   -1.7337100730   -0.3304841425
 C   -5.4650876591   -2.6425446540    0.5514445990
 O   -4.1394764325   -2.3989161871    0.7219747187
 H    1.1094847704    1.2218006743    0.8242051080
 H    0.0457807790    0.6577403929   -1.1631632295
 H    0.6183329348   -0.7661880026   -0.2799139166
 H   -6.9569409782   -1.6216813870   -0.7038275665
 H   -5.8807913142   -3.4632019323    1.1103998150