12

 C    0.0550332061    1.3532388970    0.0094144249
 N    1.3176944611    1.8110562024   -0.0005630141
 N    2.0479515625    0.6962730139   -0.0138740868
 N    3.3825479917    0.7105632576   -0.0269106055
 N    3.9598845880   -0.4389166375   -0.0389833684
 C    3.2015472388   -1.5847280770   -0.0379089170
 N    1.8961522501   -1.6670767078   -0.0255402816
 C    1.2690325601   -0.4792029568   -0.0127673435
 C   -0.0443641703   -0.0468650099    0.0025280133
 H   -0.7520090004    2.0715239171    0.0213581161
 H    3.7804295935   -2.5016438845   -0.0486953684
 H   -0.9281143911   -0.6614998646    0.0077694809