16

 C    0.2519646479    1.4922682340    0.2649239332
 C   -0.1355029452    0.0346247369   -0.0331630024
 O   -1.5274384362   -0.0925299033   -0.1901225643
 C    0.6099087044   -0.4752402602   -1.2497658503
 N   -0.1218553871   -0.7913129625   -2.3219442897
 C    0.5713687927   -1.2269415631   -3.3740143439
 N    1.8928179347   -1.3676473931   -3.4268919895
 C    2.5185971865   -1.0227206567   -2.2968785051
 N    1.9428258956   -0.5725455536   -1.1868967824
 H    1.3268042400    1.5807430218    0.4410071127
 H   -0.0300807070    2.1380133353   -0.5724787462
 H   -0.2876662896    1.8272928073    1.1537982205
 H    0.1904828158   -0.5870639444    0.8147735925
 H   -1.6776236027   -0.3503055050   -1.1116194928
 H    0.0050955857   -1.4916174500   -4.2643214923
 H    3.6020409547   -1.1199998634   -2.2866978599