20

 C   -0.3165854157    1.5477031706    0.0570879864
 C    0.0752716291    0.0711658623   -0.0033538603
 O    0.8210681376   -0.2063511370   -1.1958395450
 C    2.2265838045   -0.4010627591   -1.0778602326
 C    2.6388440729   -0.8885122893    0.3112853439
 C    1.5029822981   -1.7824424715    0.8851513916
 C    0.8060393296   -0.4391797327    1.2452752758
 C    2.2256323201    0.1835860692    1.3511850049
 H    0.5566925976    2.1970154203    0.1689537659
 H   -0.8330585962    1.8314833699   -0.8638419371
 H   -0.9903096059    1.7331056337    0.9010797427
 H   -0.8460598327   -0.5201617252   -0.1107127799
 H    2.4904291267   -1.1422273615   -1.8426184379
 H    2.7675277636    0.5293344849   -1.3183330532
 H    3.6679410200   -1.2566060388    0.3062073273
 H    0.9843193751   -2.4576003876    0.1991877660
 H    1.8245004512   -2.3287616176    1.7751020758
 H    0.1474882644   -0.3960029738    2.1165082283
 H    2.6710155506    0.0021179756    2.3328297786
 H    2.3640321596    1.2349292476    1.0827900687