15

 O   -0.0584495641    1.3718398287   -0.0565067790
 C    0.0163402245   -0.0343527631   -0.0309318528
 C    0.1585736982   -0.6180962588    1.4085996115
 C   -1.3677320325   -0.4105272755    1.5602444914
 C   -1.4113390791   -0.6482652971    0.0196573642
 N   -1.3011897934   -2.0902261349   -0.2389579371
 C   -0.3811367844   -2.6482361165    0.4303578672
 O    0.4534559275   -2.0269857428    1.3044148759
 H    0.8196348802    1.7250908988    0.1220134526
 H    0.6934299395   -0.4369471132   -0.7943936036
 H    0.8715809832   -0.1969447478    2.1181646399
 H   -1.9171402361   -1.1067719835    2.1955805698
 H   -1.5907002562    0.6239546303    1.8170996286
 H   -2.1957492743   -0.1974960857   -0.5864747649
 H   -0.1734079931   -3.7130634890    0.3695900562