20

 N   -0.0915326443    1.4951739249    0.0579583174
 C   -0.0391181084    0.0422503946   -0.0246933939
 C   -1.4488959057   -0.5519555034    0.0713741743
 C   -1.4200013467   -2.0857183885    0.0004303029
 C   -0.6702372168   -2.5606887818   -1.2521884523
 N    0.6775168386   -1.9928858248   -1.3887934259
 C    0.6950432538   -0.5316246543   -1.2870345484
 C    0.1176808689    0.0626234323   -2.5076862662
 N   -0.3642296579    0.5614690161   -3.4324917252
 H    0.8412184389    1.8958443080    0.0125083828
 H   -0.6081180792    1.8728342509   -0.7326874490
 H    0.5471126438   -0.3157004979    0.8332722430
 H   -1.9148143456   -0.2036805487    0.9977353437
 H   -2.0562743866   -0.1574533636   -0.7554160687
 H   -0.9224286467   -2.4868779247    0.8943154452
 H   -2.4402348071   -2.4863485653    0.0016873833
 H   -0.5743325684   -3.6505332560   -1.2647844078
 H   -1.2377683907   -2.2826223659   -2.1495558458
 H    1.2852607042   -2.3673307416   -0.6668714752
 H    1.7440235258   -0.2118854903   -1.2506567243