23

 C   -0.0666420599    1.6363107290   -0.3454970563
 C   -0.0371468203    0.1998658631    0.1881693818
 C   -1.3863234458   -0.4856100908    0.0670365050
 O   -1.8759477561   -0.5762124719   -1.3078273361
 C   -2.1385529330   -1.9695806276   -1.1307271943
 C   -0.8674764576   -2.7235306433   -0.8934873592
 C   -1.5498333822   -2.0021803274    0.2596785704
 C   -1.9854389730   -2.6791993334    1.5298868740
 C   -0.8518082311   -2.8407360748    2.5530148558
 H    0.9170084499    2.1082462518   -0.2647296035
 H   -0.3669214494    1.6456435805   -1.3969166918
 H   -0.7808080088    2.2523658778    0.2121940911
 H    0.7187564671   -0.3822325505   -0.3499811267
 H    0.2527237843    0.1945206284    1.2472536573
 H   -2.1359673052    0.0531746815    0.6664128290
 H   -3.0520203116   -2.3735262796   -1.5529806143
 H   -0.9664144097   -3.8048305822   -0.8525025278
 H    0.0578603561   -2.3658001114   -1.3355733678
 H   -2.8090917587   -2.1097285664    1.9809255333
 H   -2.3970735783   -3.6665106167    1.2854883718
 H   -1.2055301763   -3.3479013369    3.4560010988
 H   -0.0279630752   -3.4276447241    2.1344441104
 H   -0.4462222851   -1.8692540451    2.8547939291