22

 C    0.0229936290    1.5268015485   -0.1038898337
 C    0.0341018310   -0.0080525347    0.0210936200
 C    0.6522832947   -0.4132273293    1.3724680820
 C   -1.4132078147   -0.5303303230   -0.0408777699
 C    0.8189205105   -0.6464732970   -1.1547751417
 C    2.2722523703   -0.2553102097   -1.2771319557
 C    2.9504409321   -0.1883266603   -2.5783070797
 O    2.5649803355    1.0046516656   -1.8955562179
 H    1.0316716833    1.9450560038   -0.0585537909
 H   -0.4191612386    1.8415055723   -1.0551002003
 H   -0.5674757926    1.9719444720    0.7046204383
 H    0.0513402116   -0.0233510527    2.2010344774
 H    0.6977594910   -1.5031864443    1.4798451748
 H    1.6662297169   -0.0194510451    1.4942227386
 H   -1.8892477912   -0.2648706820   -0.9913931746
 H   -1.4488637436   -1.6211818134    0.0584598879
 H   -2.0179227049   -0.1017761421    0.7656863259
 H    0.7706713156   -1.7402822718   -1.0558292229
 H    0.3188302998   -0.3921667413   -2.0974503599
 H    2.8990880958   -0.4646498682   -0.4092838699
 H    4.0232003310   -0.3660476893   -2.6435643566
 H    2.3896317574   -0.4088375679   -3.4861790711