20

 O   -0.2482426079    1.4885339148    0.1049505706
 C   -0.0102057218    0.0914783201    0.0167392696
 C   -1.3717489146   -0.5823907691   -0.1066103360
 C   -1.3706545975   -2.0994605461   -0.0347692212
 C   -0.1997410242   -2.9121145482   -0.4048685997
 O   -0.5312856194   -2.6873567258    0.9728408343
 C   -2.7442262841   -2.7124509396   -0.1193231524
 C   -3.0211034351   -4.0490828963    0.4522747653
 N   -3.5529540208   -2.8382539636    1.1077778032
 H    0.5977399374    1.9294868992    0.2245706349
 H    0.6146039047   -0.1437377821   -0.8592777125
 H    0.5060401235   -0.2907852502    0.9087018543
 H   -2.0110898687   -0.1993669491    0.6981299952
 H   -1.8461768935   -0.2733567365   -1.0457614962
 H   -0.3533898372   -3.9306565121   -0.7568019907
 H    0.7219046528   -2.4404657009   -0.7388289138
 H   -3.3202458088   -2.3835594776   -0.9823933662
 H   -3.7686907698   -4.6881232234   -0.0086314852
 H   -2.1986648854   -4.5657066048    0.9371988191
 H   -2.9576004397   -2.6267848787    1.9074294376