19

 C    0.1572892927    1.6948265942    0.3312897607
 C    0.0979918790    0.2038684837    0.1390962300
 O   -1.2455765526   -0.3229349470    0.2168089784
 C   -0.8297762278   -1.3767613094    1.1245362371
 C    0.6349416753   -0.8995615481    1.0998595996
 C    1.4924377389   -1.5013129599   -0.0407475009
 C    0.9129858076   -0.4615650596   -1.0380725739
 C    0.0350901979   -0.9894015205   -2.1427385058
 O   -0.1440012789   -2.1579342539   -2.3762481960
 H    1.1934168955    2.0478047616    0.3368116229
 H   -0.3732455163    2.2051969960   -0.4807268640
 H   -0.3167610772    1.9795153217    1.2752689288
 H   -1.3383128187   -1.2829387910    2.0911269155
 H   -1.0168545992   -2.3740935078    0.7101528392
 H    1.1132130631   -0.6882260616    2.0557671421
 H    2.5658325427   -1.3857511739    0.1216550493
 H    1.2811932550   -2.5400528314   -0.3028758657
 H    1.6496979650    0.2228155189   -1.4742789368
 H   -0.4673022719   -0.2021368520   -2.7483433904