21

 C    0.0562764630    1.4959749408    0.0322693948
 C    0.0410157447   -0.0162744517   -0.0019919876
 O    0.6623069662   -0.4506157449   -1.1888906729
 C    0.4890755461   -1.8474022543   -1.3772797900
 C    0.9006837396   -2.6477186352   -0.1526011880
 C    0.3788789546   -4.0681479540   -0.1172350983
 C    2.2482542386   -2.3506132905    0.4724396730
 C    0.9831482949   -1.8616477773    1.1351629703
 O    0.7340421527   -0.4813420493    1.1372808945
 H    1.0881817256    1.8506511858   -0.0252963654
 H   -0.5068235489    1.8947288428   -0.8144697669
 H   -0.3901724227    1.8519103309    0.9634335483
 H   -0.9928317985   -0.4112540458    0.0170362546
 H   -0.5685910116   -2.0613367148   -1.6089860003
 H    1.0867753045   -2.1178634900   -2.2540582806
 H    0.7793771636   -4.6566905647   -0.9516927887
 H    0.6703189552   -4.5732891225    0.8086424625
 H   -0.7150693720   -4.0945744256   -0.1838916012
 H    2.7966291810   -3.1694699213    0.9264028504
 H    2.8572473104   -1.5812983033    0.0106750704
 H    0.6581710029   -2.3362754753    2.0580450010