16

 C   -0.0503966084    1.3911327589   -0.0304852633
 N   -0.0128059174   -0.0549677118    0.0177146352
 N    0.0198832138   -0.7715813453   -1.1194157035
 C    0.0345459073   -2.0452142897   -0.7127210877
 C    0.0578801612   -3.1708316828   -1.6572141754
 O    0.0788911832   -3.0887757033   -2.8619579909
 C    0.0326271824   -2.1442501534    0.7010123628
 C    0.0077882157   -0.8356658450    1.1383457767
 N   -0.0834101451   -0.2627806518    2.4085753799
 H    0.9383136970    1.8256010104    0.1581827893
 H   -0.3782065142    1.6781438060   -1.0287092355
 H   -0.7544303208    1.7637437168    0.7180974364
 H    0.0551039415   -4.1622840230   -1.1473650355
 H    0.0537955244   -3.0367556317    1.3058402411
 H   -0.0763176943   -0.9644989699    3.1365040905
 H    0.6380335837    0.4230708656    2.6003203398