19

 C    0.0057040990    1.4994540044   -0.0303443982
 C   -0.0589945608   -0.0098964410    0.0421411282
 C   -0.8498376795   -0.6473465057    1.1859752978
 C    0.6720410476   -0.7192114558    1.1364203957
 N    1.3357424895   -1.9448809883    0.7993772225
 C    1.1150275582   -2.6756421064   -0.3317775331
 O    1.6373815713   -3.7562740322   -0.5293997851
 C    0.1108285889   -2.0742598899   -1.3104882948
 N    0.0423724773   -0.6168032418   -1.2634382627
 H    0.9074373383    1.8187047609   -0.5613112338
 H   -0.8639723493    1.8992608104   -0.5663702800
 H    0.0078880086    1.9441676743    0.9684964380
 H   -1.3156216476    0.0021164959    1.9198800277
 H   -1.3835542869   -1.5732266830    1.0008634150
 H    1.2388193437   -0.1226144179    1.8433443306
 H    1.8962496632   -2.4070088163    1.5007347235
 H    0.4178343181   -2.3899762750   -2.3101932192
 H   -0.8526578074   -2.5749172551   -1.1026095550
 H   -0.7098667724   -0.2869732376   -1.8595194970