23

 C   -0.2153395128    1.5421500203    0.0051131668
 C    0.0265497081    0.0343429633    0.0010713330
 C    0.9127663404   -0.4833966470   -1.1792966473
 C    2.0206316928   -1.3201084620   -0.4553719872
 C    1.2096070766   -1.9159580449    0.7177100736
 C    0.7935858235   -0.5262319210    1.2537695251
 C    2.1536539344    0.1524464260    1.3097939222
 C    2.8908684165   -0.3118214243    0.2919832961
 C    4.2461288499    0.1120251362   -0.1684611341
 H    0.7302817297    2.0928815852    0.0397710032
 H   -0.7504595242    1.8563350503   -0.8977492940
 H   -0.8164277269    1.8481958547    0.8691148331
 H   -0.9466904235   -0.4694109715   -0.0377852417
 H    0.3360212488   -1.1096935935   -1.8670408190
 H    1.3425545886    0.3354852025   -1.7643952523
 H    2.5549300044   -2.0171822306   -1.1040153811
 H    0.3633602153   -2.5338126027    0.3965740867
 H    1.8291923879   -2.4765380321    1.4223061392
 H    0.2064495122   -0.5010667396    2.1736597247
 H    2.4243079477    0.9490195628    1.9929637877
 H    4.6747660957    0.8751413786    0.4876515647
 H    4.9406746724   -0.7372014998   -0.2042035108
 H    4.2102943425    0.5233859691   -1.1861532885