16

 C   -0.0986460286    1.5142719877    0.1325444736
 C    0.0622636546   -0.0045376128    0.0570121082
 N    0.7623520697   -0.5482134649    1.2077986840
 N    2.0405717000   -0.8805418067    1.1711654412
 C    2.3178245701   -1.2420603610    2.4264077972
 C    1.1470486226   -1.1042656337    3.1968474887
 N    0.9590702882   -1.3021883586    4.5608334529
 N    0.1692805199   -0.6615276314    2.4039529540
 H    0.8779403175    2.0054909081    0.1614489160
 H   -0.6434047869    1.8763967140   -0.7446020473
 H   -0.6568776639    1.7951577038    1.0290613424
 H   -0.9141647462   -0.4944622686    0.0048891654
 H    0.6476194427   -0.2990478156   -0.8157677011
 H    3.3024122808   -1.5776103493    2.7096894975
 H    1.4730140680   -2.0901885742    4.9296951408
 H   -0.0207088385   -1.3692022768    4.8029554065