16

 O   -0.5327518260    0.6161218659   -0.6858355288
 C    0.1090882334    1.0446069525    0.2396322551
 C    1.3396514116    1.8956746306    0.0892768002
 N    1.5549319815    2.8892080438    1.1871557726
 C    2.8279873975    3.3938116096    0.5851590878
 C    3.5885895883    2.0533208549    0.5485384790
 C    2.6865053795    1.1271548218    0.2479251456
 C    2.3802510747    3.7027379034   -0.8730826819
 C    1.4734275684    2.7779727525   -1.1777958506
 H   -0.1581397954    0.8201913808    1.2956660222
 H    0.8526182957    3.6233638731    1.0783872911
 H    3.2951582066    4.2068185251    1.1394659709
 H    4.6545658414    1.9453017734    0.6876558425
 H    2.8036685936    0.0677687660    0.0740293378
 H    2.8021155888    4.4740753670   -1.5026281291
 H    0.9505174605    2.5853703495   -2.1028496744