21

 C    0.0339116140    1.4220343578   -0.2959305626
 C    0.0027277096   -0.0564451656    0.1235283816
 C    0.7701793372   -0.2921257582    1.4335837627
 C   -1.4212125757   -0.5668608675    0.1928816182
 C   -2.4458750037   -0.0301895447    1.1822655121
 O   -3.5327891370   -0.9500050358    1.1696630682
 C   -3.0865505544   -2.2190654867    0.7072006655
 C   -1.8496996915   -1.9368921727   -0.1125210065
 O   -2.0462361605   -0.8853228271   -1.0653967423
 H    1.0641567053    1.7602318059   -0.4441980066
 H   -0.5132163264    1.5730575556   -1.2308415414
 H   -0.4169250295    2.0630530976    0.4701927952
 H    0.4873967266   -0.6399977577   -0.6687776558
 H    1.8183804334   -0.0000460719    1.3169583655
 H    0.3555917886    0.2993704043    2.2566305719
 H    0.7446557963   -1.3456157370    1.7300427545
 H   -1.9985866946    0.0462275377    2.1858052980
 H   -2.8409867094    0.9518383945    0.9026101421
 H   -2.8310506654   -2.8944678801    1.5410348470
 H   -3.9013153532   -2.6703297573    0.1311461502
 H   -1.1683260996   -2.7340526210   -0.3992719976