17

 C    0.0729497527    1.5780480905   -0.0947333544
 C   -0.0425057398    0.0691568663    0.0660590119
 C   -1.4860963082   -0.4901004742    0.0364793923
 C   -1.5038717765   -1.5026159850    1.1569968579
 C   -0.3538880813   -1.5672964277    1.8308109257
 C    0.6618304676   -0.6304052129    1.2585560289
 O    1.5981560988   -1.2970030591    0.3157707029
 C    0.9704919653   -0.7363902496   -0.7644138397
 O    1.2286799001   -0.8868666736   -1.9164415493
 H    1.1092233762    1.9157940420    0.0036320021
 H   -0.2846101365    1.8821733992   -1.0833626603
 H   -0.5297409913    2.0945461494    0.6595539859
 H   -2.2195080648    0.3090474545    0.2056650243
 H   -1.7380217640   -0.9374816483   -0.9321643396
 H   -2.3806870622   -2.1055634962    1.3685364684
 H   -0.1451779203   -2.2217825862    2.6682447979
 H    1.2377463543   -0.0336439991    1.9680660251