20

 C   -0.0926332444    1.6422150069   -0.3051747600
 C   -0.2840482583    0.1339660953   -0.4702519357
 C    0.9895023744   -0.5520405850   -0.9992662897
 O    2.0820980852   -0.3347778637   -0.1345195945
 C    0.7732210251   -2.0282606142   -1.1854811799
 N    1.4121661719   -2.9211061618   -0.5463612141
 C    0.9025235163   -4.2196447109   -1.0098566710
 C   -0.1865231039   -3.8536430451   -2.0540446477
 O   -0.1666636500   -2.4045837322   -2.0838911080
 H    0.7446320003    1.8487546325    0.3659442238
 H    0.1198267562    2.1211825587   -1.2677167028
 H   -0.9917085317    2.1080317597    0.1089719269
 H   -0.5385235245   -0.3221907117    0.4942295989
 H   -1.1083268874   -0.0798169842   -1.1597343404
 H    1.2223212182   -0.1253962568   -1.9889294882
 H    2.3475211974   -1.2078239253    0.1904952615
 H    1.7168856770   -4.8097304025   -1.4426703019
 H    0.4995061957   -4.7892641604   -0.1663431700
 H    0.0303836907   -4.2167421477   -3.0618792529
 H   -1.1921289083   -4.1741782818   -1.7693360842