15

 C    0.0773689749   -3.6859668237    0.2628762196
 C    0.0533700465   -2.4857687309    0.1322939143
 C    0.0249286274   -1.1332806050   -0.0151795887
 C   -0.0008523039    0.0694370623   -0.1452792162
 C   -0.0175262839    1.5172013819   -0.3088386752
 C    1.3683098260    2.1461159305   -0.2465655426
 C    1.5241430026    3.5227024926    0.2815635621
 N    2.0319172299    2.3659489918    1.0417850186
 H    0.1005616466   -4.7411152622    0.3772890574
 H   -0.4852808415    1.7681038422   -1.2710664447
 H   -0.6549537267    1.9676061117    0.4651393324
 H    2.0434530645    1.8051092944   -1.0280072789
 H    2.2894741916    4.1809232020   -0.1191333977
 H    0.6317842334    4.0329170410    0.6371050690
 H    1.3982407927    2.1411586314    1.8056721006