13

 O    0.0405073382    1.3363113961   -0.0028417796
 C   -0.0296131663   -0.0069065345   -0.0057252920
 C   -1.2238108917   -0.6598228301   -0.0026833568
 O   -2.4360154398   -0.0231694967    0.0036791802
 C   -1.1699057964   -2.0724016149   -0.0063792133
 C    0.0142192263   -2.7505650572   -0.0126175771
 C    1.2770053330   -2.0696650813   -0.0158434608
 O    2.3969001777   -2.4963204843   -0.0212718839
 O    1.1437021951   -0.6295705589   -0.0118508945
 H    0.9718575825    1.5928918205   -0.0054878129
 H   -2.2818107581    0.9281853835    0.0045263465
 H   -2.1132367155   -2.6093952077   -0.0040511554
 H    0.0566962751   -3.8311369745   -0.0154445406