15

 C   -0.1258116871    1.5174382448    0.1149365758
 C    0.0399735154    0.0371084548    0.0825110671
 O   -1.1753988830   -0.7712423244   -0.0160465866
 C   -0.6663954316   -1.6600499914    0.9299143379
 O   -1.2313091972   -2.5643407830    1.4470682172
 C    0.6688187899   -0.9670986606    1.0084935692
 C    1.1979999821   -0.7577796821   -0.4397057634
 C    1.0984924781   -1.8036647968   -1.5014011643
 O    1.9735925160   -1.9891622573   -2.3092414502
 H    0.8369428562    2.0026037833    0.2952094874
 H   -0.5178628636    1.8787038030   -0.8408849544
 H   -0.8229022220    1.8066527817    0.9063503885
 H    1.3150236009   -0.8734073400    1.8688624700
 H    2.1425580277   -0.2201122610   -0.4593134396
 H    0.1658078682   -2.4011289509   -1.5047667647