14

 C    0.1324434832    1.5932710557   -0.0834318136
 C    0.0447907869    0.1150197067    0.0154175602
 N   -0.4277844185   -0.7301362527   -0.8443061452
 C   -0.2486169028   -1.9801030319   -0.2603336535
 C    0.3295454340   -1.8026427829    0.9486293705
 O    0.7533686298   -2.6195696323    1.9356464250
 C   -0.1982300423   -3.3939628003    2.5672493199
 O    0.0995606221   -4.1958767327    3.3878047043
 O    0.5251874561   -0.4716908961    1.1534146416
 H    1.1727349442    1.9303726723   -0.0305204643
 H   -0.2960450476    1.9054976390   -1.0359561591
 H   -0.4139566920    2.0775122672    0.7323483990
 H   -0.5279893100   -2.8978012916   -0.7510722320
 H   -1.2130331131   -3.1650594002    2.1995380474