16

 C    0.1138907371    1.4601778588    0.0081640031
 C   -0.0004635981   -0.0478289539    0.0367542628
 O    1.0244204737   -0.7515688743    0.0688361092
 C   -1.2978093013   -0.6656691403    0.0270690207
 C   -1.3858587280   -2.0623139109    0.0549080228
 O   -0.3997243978   -2.9418348678    0.0900892301
 N   -2.6888353045   -2.4183117534    0.0404580236
 C   -3.4796203384   -1.2629846143    0.0024231640
 C   -2.6537940633   -0.1803030569   -0.0065765650
 H    1.1658654996    1.7473412813    0.0038832536
 H   -0.3821530375    1.8656360297   -0.8802143765
 H   -0.3816998230    1.8966469159    0.8822064454
 H    0.4113201444   -2.3575720859    0.0912545385
 H   -3.0197879044   -3.3680919521    0.0547145546
 H   -4.5535371569   -1.3418618810   -0.0141613009
 H   -2.9691835117    0.8511167749   -0.0336768360