17

 C    0.1446395553    1.4903982653   -0.1066443566
 C    0.0355852020    0.0026692173   -0.0712425087
 C   -0.0767888238   -0.9444377831   -1.0660545958
 C   -0.0861206098   -0.7177238057   -2.5530526981
 C    1.2962965117   -0.2807055570   -3.0000437148
 O    1.5738955137    0.8328969346   -3.3704592002
 N   -0.1538420454   -2.2127053407   -0.5273923587
 C   -0.1023103114   -2.0442212883    0.7717565448
 N    0.0104134362   -0.7253541895    1.1012016012
 H    0.9907684040    1.8499554364    0.4907052783
 H    0.3043186438    1.8275906174   -1.1328182527
 H   -0.7597912570    1.9806614703    0.2749556338
 H   -0.3427679357   -1.6662445939   -3.0354907037
 H   -0.8068368820    0.0480277677   -2.8541014444
 H    2.0756679024   -1.0707373033   -2.9158746795
 H   -0.1429104920   -2.8246567456    1.5168268696
 H    0.0670373580   -0.3446200420    2.0314780055