15

 O   -0.2007896347    0.0657112706   -0.8708900753
 C   -0.1270461023    1.1805072360   -0.3951715511
 N   -1.0857673189    2.1632406911   -0.4054012134
 C   -0.6628316267    3.3753234709    0.2589557436
 C    0.7324841719    3.0253451455    0.7070325889
 C    1.0348457277    1.7803390030    0.3359287163
 C    2.2767303824    0.9625275026    0.5325862698
 C    3.3244326729    1.6722025436    1.2610925280
 N    4.1378163666    2.2542217671    1.8390970865
 H   -1.9846571166    2.0293871671   -0.8356872061
 H   -0.6624091301    4.2429172828   -0.4164619938
 H   -1.3071722907    3.6297152156    1.1127946339
 H    1.3626424117    3.7172511091    1.2501983711
 H    2.0269370322    0.0346826794    1.0622593041
 H    2.6634645047    0.6394386555   -0.4420494924