23

 C   -0.4328212063    1.3225896266   -0.2727592814
 O   -0.0431891859   -0.0154563871   -0.0307204225
 C    0.8469526356   -0.5221409219   -0.9757496548
 C    0.3021544093   -0.9819831866   -2.3059148381
 C    0.8155536961   -1.9899491170   -1.2897856963
 C    2.2415192243   -2.4970736013   -1.4249245241
 C    3.1626383445   -1.2363477268   -1.4711413051
 C    3.7414741584   -0.9535957016   -2.8638759261
 C    2.3010981999   -0.0686876879   -0.9051189610
 H    0.4144266458    2.0194790205   -0.1988995245
 H   -0.8901597593    1.4374213770   -1.2661117126
 H   -1.1685671744    1.5845683095    0.4914704883
 H   -0.7764488983   -0.9368985364   -2.4141043852
 H    0.8520560726   -0.7991641487   -3.2228844423
 H    0.0742854823   -2.6216607558   -0.8132904423
 H    2.4850667326   -3.1140215806   -0.5528227456
 H    2.3856212391   -3.1293679830   -2.3088468935
 H    4.0151286080   -1.3981302874   -0.8036756306
 H    2.9619464992   -0.7740847375   -3.6112973235
 H    4.3898032037   -0.0708390797   -2.8456645741
 H    4.3413485099   -1.8006055239   -3.2139621124
 H    2.4922390983    0.8676954890   -1.4416134770
 H    2.5337687345    0.1101654107    0.1506944948