18

 C   -0.4712734663    1.0414590776    0.1925012872
 O    0.5978634287    0.1540614668   -0.0876753828
 C    0.9957299563   -0.5748386409    1.0248228007
 C    0.1558220677   -1.6427928021    1.6543810140
 O   -0.6656644757   -2.2954192801    0.6927320564
 C    0.5166260446   -2.8177027638    0.0084263199
 C    0.4994365743   -2.6365456241   -1.4945763271
 C    1.4481287431   -2.0029288342    0.9137732630
 H   -0.1962877701    1.7731850553    0.9668698729
 H   -0.6931178234    1.5756054963   -0.7341200161
 H   -1.3644100571    0.4946653032    0.5201633982
 H    1.5753658906   -0.0032762147    1.7557057128
 H   -0.1381926715   -1.6969606518    2.6973281716
 H    0.6051707583   -3.8822104652    0.2640070019
 H    0.4296060555   -1.5817170889   -1.7578955929
 H    1.4158276792   -3.0535478838   -1.9269156467
 H   -0.3502888984   -3.1760894269   -1.9260997887
 H    2.4104928541   -2.3415647126    1.2745771957