18

 C   -0.0847078800    1.5290263848   -0.0267201436
 C    0.1186408363    0.0320187952    0.0376256582
 O    1.2069414000   -0.4567970136   -0.8006646129
 C    1.7706928840   -1.1957497118    0.2816233427
 C    2.2585397235   -2.5788415611    0.0082515819
 C    2.2304536701   -0.2682265510    1.3522244042
 C    0.7457262828   -0.6239080968    1.2787474179
 C    0.0326356735   -1.2391856405    2.3415276407
 N   -0.5593981778   -1.7434702202    3.2002308521
 H    0.8052457846    2.0738693405    0.2978352932
 H   -0.3150540038    1.8285561813   -1.0537074534
 H   -0.9260830641    1.8188625280    0.6108260409
 H   -0.8010824580   -0.4974741747   -0.2372505391
 H    3.1309218239   -2.5427688561   -0.6536304221
 H    2.5549679799   -3.0728905936    0.9371171636
 H    1.4830886823   -3.1758027972   -0.4793926472
 H    2.7442110128   -0.7302131118    2.1886451417
 H    2.5555720498    0.7370656987    1.1033970413