20

 C   -0.6690920642    1.2348501375   -0.0572090078
 C    0.1469199036   -0.0480083722   -0.1062157524
 C    1.5738362987   -0.0413909118   -0.7206417069
 C    2.0281295936   -1.0410735954    0.3736828946
 C    0.7684108215   -0.6493936686    1.2137143741
 C    1.1035050645    0.3886212873    2.3054708256
 O    1.9396574931   -0.1464800743    3.3092625536
 C    0.0320957422   -1.7467868822    1.8286660477
 N   -0.5459352636   -2.6071389915    2.3438357142
 H   -0.1124179781    2.0632178121    0.3920474801
 H   -0.9451493827    1.5395430411   -1.0723586756
 H   -1.5961360878    1.1007035643    0.5101340470
 H   -0.4452763966   -0.8353103807   -0.5827644583
 H    1.6649409979   -0.3624407076   -1.7598231815
 H    2.0582310058    0.9342313463   -0.6184478364
 H    1.9849823336   -2.0777352730    0.0347212343
 H    2.9819313804   -0.8690438441    0.8744046172
 H    1.6631124856    1.2140633660    1.8562590536
 H    0.1742868492    0.8007156799    2.7239345378
 H    1.4483813834   -0.8354416631    3.7718733391