18

 C    0.0006729289    1.5529496141    0.0161061854
 C    0.0297456031    0.0279187597   -0.0092544105
 C    0.6630902726   -0.5306047992   -1.2873234849
 N    0.8894347063   -1.9676477771   -1.2722612185
 C    1.1400433320   -2.5079942247   -0.1399265939
 N    1.3495606690   -3.8460849505    0.0162778411
 C    1.2487198664   -1.7592242757    1.1827328579
 O    1.7357105612   -2.2787511439    2.1743375278
 N    0.7986532180   -0.4823459183    1.1279574659
 H    1.0130406757    1.9633292846   -0.0532656025
 H   -0.5864804363    1.9338412955   -0.8242794701
 H   -0.4593947597    1.9255979783    0.9379628636
 H   -1.0039504993   -0.3477394975    0.0540349056
 H    0.0116236566   -0.2905402808   -2.1348543835
 H    1.6178517714   -0.0126534510   -1.4721835603
 H    1.5484191085   -4.3801850060   -0.8137426324
 H    1.7983275121   -4.1109819289    0.8801827440
 H    0.7683006435    0.0082349015    2.0111662953