18

 C    0.5540372532    1.0261545264   -0.6505835051
 N    0.2095473874   -0.2510483287   -0.0742960178
 C   -1.0686918788   -0.9042045093   -0.3496349437
 C   -0.9466908756   -2.1773792956    0.5290025798
 N    0.4883568436   -2.3207168095    0.8277711279
 C    1.0245316666   -1.2132988058    0.4656122611
 N    2.3896464163   -0.9721636534    0.7168549183
 C    3.3318865608   -0.6154070174   -0.2219758900
 O    3.1079971808   -0.2288551151   -1.3434807716
 H    1.4357244108    1.4344968841   -0.1559924437
 H    0.7664009382    0.9646963110   -1.7250143110
 H   -0.2787606756    1.7201616743   -0.4902952958
 H   -1.9069198806   -0.2565904936   -0.0725682309
 H   -1.1636276962   -1.1416712270   -1.4208097377
 H   -1.5086586318   -2.0702759550    1.4668534593
 H   -1.3262795645   -3.0695933475    0.0242607569
 H    2.7317488957   -1.5248897770    1.4912227034
 H    4.3534663396   -0.7093355809    0.1945946005