17

 C    0.0911044851    1.4968602014   -0.1833512267
 C   -0.0088355004    0.0106408046   -0.0689849560
 C   -1.0931066012   -0.7689065509    0.0603899103
 C   -2.5439912382   -0.4282991612    0.1334493979
 C   -0.6637578197   -2.2022198953    0.1353081863
 O   -1.3692059498   -3.1842720128    0.2541450188
 N    0.7084986014   -2.1823795675    0.0413016814
 C    1.2387414007   -0.8484742084   -0.0907425831
 H    0.6968867347    1.9168676926    0.6294424870
 H    0.5789943464    1.7900560576   -1.1214406251
 H   -0.8907011593    1.9738667799   -0.1517884303
 H   -2.7243437091    0.6471253408    0.0680257271
 H   -3.0941414906   -0.9243030612   -0.6736421492
 H   -2.9768319683   -0.7985985027    1.0691904397
 H    1.2596131866   -3.0225264611    0.0655803516
 H    1.8007176747   -0.7115401539   -1.0271209270
 H    1.9190741869   -0.5843377017    0.7331225773