19

 C   -0.0371420854    1.5839747183    0.0385260918
 C    1.5195963842    1.5726793509   -0.0437405934
 C    1.5115960974    0.0458570747    0.1502123983
 C    2.4624837806   -0.9963975137   -0.4456895591
 O    2.6041237820   -1.6754612608    0.8233355823
 C    1.7942254644   -0.6666512915    1.4922647082
 C    0.4497500668   -1.1370009806    1.9812059241
 C   -0.5345407570   -0.7566052796    1.1608925924
 C   -0.0316684473    0.0159958245   -0.0285466640
 H   -0.4212893738    1.9628814438    0.9882399166
 H   -0.5533396269    2.0968345661   -0.7758009158
 H    1.8859627605    1.8600436115   -1.0342084058
 H    2.0633575604    2.1586404594    0.7027682244
 H    2.0445542999   -1.6501090955   -1.2223597284
 H    3.4225831855   -0.5934222131   -0.7972791205
 H    2.3859659527   -0.1415353048    2.2536529412
 H    0.3218776217   -1.7044954524    2.8963044656
 H   -1.5882231241   -0.9642203264    1.3215455937
 H   -0.4008290516   -0.3716601809   -0.9836703316