22

 C   -0.1034650307    1.5659234428    0.0094331178
 C    0.0432799799    0.0414662386   -0.0147483766
 C    0.7162236367   -0.4689643294   -1.2937238826
 C    0.6135173235   -1.9995135964   -1.3646877683
 N    0.9971960936   -2.7279445105   -0.1530287207
 C    2.3059723078   -2.4778246079    0.4303384482
 C    1.0760211187   -1.9938526183    1.1199857888
 C    0.8116731244   -0.4894047517    1.2149595629
 O    2.0708156908    0.1671122509    1.3824588993
 H    0.8647844486    2.0635297465   -0.1170890387
 H   -0.7476917474    1.9066847507   -0.8069577987
 H   -0.5492406303    1.9150779025    0.9487866537
 H   -0.9637219328   -0.3981999586    0.0392923804
 H    0.2374792049   -0.0393531604   -2.1811862415
 H    1.7610219448   -0.1361816553   -1.3065016229
 H   -0.4312132657   -2.2667429035   -1.5722208079
 H    1.2105597598   -2.3949588974   -2.1940228707
 H    2.8288298727   -3.3570091098    0.7987258141
 H    2.9483318154   -1.7159356158   -0.0028168015
 H    0.7024342265   -2.5679804445    1.9644460986
 H    0.1940815408   -0.3164600605    2.1092593069
 H    1.8958632480    1.0944290779    1.5723541396