18

 C   -0.2257202147    1.0987370680   -0.3139349877
 O    0.5476870280   -0.0322634499    0.0519602852
 C    0.9723087654   -0.7740233651   -1.0313348994
 C    1.4571461414   -2.1444060807   -0.7801050132
 C    0.1163046128   -1.9913637605   -1.4981014125
 C   -1.1644127857   -2.3199337703   -0.7629883037
 C    0.1422259414   -2.1889220719   -2.9644263788
 O    1.1345995800   -2.0973870218   -3.6534367464
 H    0.3428774623    1.7742831813   -0.9684324961
 H   -1.1503046333    0.8067419804   -0.8299708562
 H   -0.4782596210    1.6242326579    0.6090914975
 H    1.4339567565   -0.2062211234   -1.8391708867
 H    2.2843300250   -2.5046468863   -1.3812754146
 H    1.4087547905   -2.5029311513    0.2422283806
 H   -1.1655779164   -1.8581811487    0.2270186817
 H   -2.0400578088   -1.9489025065   -1.3079450212
 H   -1.2872389128   -3.4006223524   -0.6330914698
 H   -0.8502983906   -2.4045587388   -3.4222736987