16

 C    0.1887166254    1.1892671878    0.6598795109
 C   -0.0223673283   -0.1020906137   -0.0868020980
 C   -1.3964222260   -0.6100982347   -0.3100505707
 N   -0.6062800513   -0.0954548505   -1.4408864568
 N    1.4049076039    1.8719981579    0.2240979148
 C    2.0563389478    1.8621577956   -0.9545638221
 N    3.0895746665    2.6730938177   -0.8789902483
 N    3.0579924489    3.1876002964    0.3785370343
 N    2.0584427510    2.7192302218    1.0487275406
 H   -0.6689869978    1.8579702291    0.5171585018
 H    0.2999825844    1.0160640539    1.7335519149
 H    0.7820589626   -0.8249032686    0.0302286600
 H   -1.5761538655   -1.6804047991   -0.3224088356
 H   -2.2288735188   -0.0149152440    0.0565768595
 H   -0.9277094346    0.8408683656   -1.6792782646
 H    1.7633957919    1.2658612047   -1.8029016605