23

 C   -0.0113508252    1.6015281675   -0.0650140260
 C    0.0600330545    0.0831565550    0.0062639207
 C    1.0302075050   -0.6779354734   -0.9306963452
 C    1.2832241093   -1.7099336010    0.2013168267
 C    2.6774272471   -2.2343004068    0.3896611176
 O    2.9527277499   -3.3691877759    0.6917505902
 C    0.7221615509   -0.6438367534    1.2330776303
 C    1.8211542535    0.1803446081    1.9122751786
 C   -0.2367049869   -1.2077826397    2.2763652708
 H    0.9770411176    2.0629817574    0.0264454144
 H   -0.4351331350    1.9202848949   -1.0238682305
 H   -0.6477214176    2.0127524448    0.7267289626
 H   -0.9490808602   -0.3268258562   -0.1202400668
 H    0.6389117321   -1.0629117660   -1.8748736131
 H    1.9315926516   -0.0919600392   -1.1442224737
 H    0.6034029365   -2.5638049289    0.1433784061
 H    3.4839743084   -1.4806653915    0.2276892656
 H    2.5396203196    0.5993980157    1.2016314415
 H    1.3822049050    1.0162644450    2.4670184938
 H    2.3806848481   -0.4318467231    2.6279623915
 H    0.2878449873   -1.8563230060    2.9872373885
 H   -0.7081352572   -0.4003005914    2.8495783795
 H   -1.0325524043   -1.7969454057    1.8092655469