17

 N    0.6331345709    0.0191828564   -1.3395929449
 C   -0.4654477394   -0.4864494945   -1.9705205489
 O   -0.6626457969   -0.3965480394   -3.1668953217
 C   -1.4913528093   -1.0994851155   -1.0302305853
 C   -2.0724999569   -2.4472374170   -1.3475846130
 C   -1.1937449465   -2.2768828564   -0.1290986474
 C    0.2015733146   -2.8414601510   -0.0058010468
 N    0.3764535996   -4.0923880218   -0.5010563636
 O    1.1041187794   -2.2176653523    0.5339859912
 H    1.3695173853    0.3601621878   -1.9395732951
 H    0.9033715371   -0.3741601751   -0.4452294156
 H   -2.1636389366   -0.3530954854   -0.6164408597
 H   -3.1342213693   -2.6126577335   -1.2036454513
 H   -1.6545109383   -2.9449907954   -2.2169343809
 H   -1.6872897864   -2.2536522186    0.8391597784
 H   -0.3841326010   -4.6136374861   -0.8993758798
 H    1.2800474336   -4.5278751421   -0.4094978055