25

 C   -0.0416515754    1.5654988619    0.0110058188
 C   -0.0017369339    0.0351167211    0.0027183923
 C   -1.3981472639   -0.6012193990    0.0117652878
 C   -1.3817510907   -2.1099509817    0.0038336605
 C   -0.7528153547   -3.0655271281    1.0671946938
 C   -1.3802071329   -4.0062355182   -0.0060426756
 C   -1.3782746621   -5.5118240066   -0.0138629637
 C   -2.6184844981   -3.0584761334    0.0084823717
 C   -0.7694541697   -3.0543776024   -1.0790466011
 H    0.9661010851    1.9927887374    0.0041951575
 H   -0.5732827489    1.9525384387   -0.8656125339
 H   -0.5574715626    1.9433989630    0.9009548649
 H    0.5477370647   -0.3134863856   -0.8809197783
 H    0.5632866820   -0.3225809997    0.8728148544
 H   -1.9504978027   -0.2544847339    0.8966158788
 H   -1.9659803031   -0.2454226262   -0.8595846272
 H    0.3391086932   -3.0719118305    1.1440649203
 H   -1.2205451093   -3.0716156222    2.0573565861
 H   -1.8817322938   -5.9118878461    0.8733551671
 H   -1.8958056857   -5.9027189723   -0.8970608856
 H   -0.3554363584   -5.9048479653   -0.0240261264
 H   -3.2293675286   -3.0627034682    0.9173145142
 H   -3.2433809040   -3.0532693909   -0.8907693996
 H   -1.2524762054   -3.0502163699   -2.0618491707
 H    0.3211456886   -3.0598575021   -1.1728866562