21

 C    0.1260680391    1.5610678751   -0.0178354123
 C    0.0263660767    0.0275444011    0.0019165339
 C   -1.4583284318   -0.3932214975   -0.0482537099
 C    0.7724388581   -0.6043995852   -1.1581116966
 C    1.5599924670   -1.6156430318   -0.8016226163
 C    1.5413593668   -1.8470250970    0.6853231443
 O    2.8408195959   -1.9383964020    1.2725692870
 C    0.7253532544   -0.6221565041    1.2418549509
 O    1.6052077255    0.3022993740    1.8511582260
 H    1.1656289871    1.8906690255    0.0067069143
 H   -0.3472584376    1.9553052211   -0.9240358374
 H   -0.3830528136    1.9980881446    0.8466575907
 H   -1.9264649294   -0.0621000657   -0.9814234058
 H   -1.5688632202   -1.4809253880    0.0108508243
 H   -2.0143624644    0.0536987731    0.7829952065
 H    0.6155050433   -0.2653851889   -2.1781546291
 H    2.1510886544   -2.2335510674   -1.4692247272
 H    1.0563094517   -2.7939555006    0.9485170627
 H    3.3797563485   -1.2593054281    0.8495809563
 H   -0.0265975173   -0.9568606302    1.9713883640
 H    2.2337099757   -0.2346380379    2.3519132638