19

 O   -0.0964167337    1.4939127360   -0.1255106654
 C    0.0263088284    0.0915547147    0.0561748609
 C   -1.3753822246   -0.5030210278   -0.0059462745
 C   -1.4059875217   -2.0414323848    0.0459501109
 C   -0.8877427242   -2.6599053094    1.3374950860
 C   -1.7724258775   -3.4814605775    1.9078864334
 C   -3.0389682633   -3.5004538339    1.1160785298
 O   -3.6807228120   -2.2030298564    1.0424047925
 C   -2.8274646141   -2.6046381610   -0.0315173827
 H    0.7777557929    1.8859234756   -0.0438252934
 H    0.6578790383   -0.3575800782   -0.7293781880
 H    0.4973351141   -0.1406974606    1.0242542450
 H   -1.9793487133   -0.1040553079    0.8143369540
 H   -1.8405933224   -0.1654523598   -0.9396869968
 H   -0.8265226435   -2.4294682097   -0.8057552215
 H    0.0884852031   -2.4201507895    1.7438084485
 H   -1.6296108190   -4.0381883987    2.8257449625
 H   -3.7169797811   -4.3482358719    1.1112706641
 H   -3.3174545363   -2.7308904290   -0.9937371753