21

 C    0.0258804728    1.5353219522    0.0082594365
 C   -0.0015744155   -0.0047957235    0.0079425534
 C    0.7161991646   -0.5226596685    1.2739865374
 C   -1.4702324468   -0.4834320726    0.0208573251
 C    0.6913527669   -0.5619738691   -1.2184725862
 C    0.9044143303   -1.8672655916   -1.6323079044
 C    1.6048941330   -1.7594300167   -2.8503764211
 N    1.8225266965   -0.4917972151   -3.1882532123
 N    1.2594112137    0.2092798174   -2.1834972962
 H    1.0507903155    1.9223257117    0.0217787351
 H   -0.4931053832    1.9500184811   -0.8629852989
 H   -0.4786065153    1.9176127469    0.9005821874
 H    0.2201061560   -0.1470555296    2.1757672623
 H    0.7070482898   -1.6155721601    1.3125000486
 H    1.7603074187   -0.1959095711    1.2959841900
 H   -2.0078182447   -0.1282172995   -0.8635822373
 H   -1.5283578837   -1.5754684885    0.0312106590
 H   -1.9873745101   -0.1075563106    0.9106179403
 H    0.5964039522   -2.7670331837   -1.1245402477
 H    1.9588294456   -2.5522022057   -3.4934297267
 H    1.2973601237    1.2131072167   -2.2167971443