17

 O    0.0951345125    1.3974616012   -0.1506900952
 C    0.0257734987   -0.0176080882   -0.0343271159
 C    0.7225861911   -0.5131031512    1.2183011469
 C    0.0445062186   -1.2088973010    2.1336630600
 C   -1.4081328089   -1.5651947693    1.8542367158
 C   -1.5082651668   -2.0226445728    0.3614191657
 C   -1.4440406098   -0.5130068853   -0.0368596360
 C   -2.0445214296   -0.2488968264    1.3558742376
 O   -2.7738872874    0.5755784967    1.8233086804
 H   -0.3255959799    1.7797628235    0.6289745811
 H    0.5339372182   -0.3854319804   -0.9345022116
 H    1.7645124644   -0.2390857471    1.3500583455
 H    0.4924095462   -1.5280889278    3.0690615856
 H   -1.8877554262   -2.1379818392    2.6465858046
 H   -0.6935170278   -2.6572490585    0.0079326570
 H   -2.4745522704   -2.4706738255    0.1186401936
 H   -1.9765516130   -0.1491339587   -0.9164616051