21

 C    0.0197367208    1.5831593398   -0.0045968694
 C    0.0768172938    0.0556887968   -0.0110539479
 C    0.7718884833   -0.5216526163   -1.2530705639
 C    0.7871576563   -2.0529488406   -1.2347080139
 C    1.2693903287   -2.6152613859    0.0806996301
 C    1.7583214026   -4.0342705104    0.0676765933
 C    1.2450052057   -1.8744352993    1.2016027619
 C    0.7274362126   -0.4945711858    1.2636352551
 O    0.7846847177    0.1556872328    2.2909054608
 H    1.0263445846    2.0102640018   -0.0682514817
 H   -0.5609917777    1.9530419695   -0.8553202167
 H   -0.4320992897    1.9467115792    0.9199070732
 H   -0.9544743730   -0.3352664522    0.0043377052
 H    0.2787524532   -0.1593812092   -2.1616974815
 H    1.8051212448   -0.1515644686   -1.2868433741
 H   -0.2238689971   -2.4441341483   -1.4297515879
 H    1.4103676067   -2.4425634968   -2.0491465008
 H    2.6263119857   -4.1398778395   -0.5954873131
 H    2.0391119857   -4.3800139529    1.0650628039
 H    0.9856113290   -4.7061659646   -0.3276593820
 H    1.6055870465   -2.2720301693    2.1464871694