21

 C   -0.2008892427    1.4748256856   -0.1500179366
 C    1.2461208405    1.1767456661    0.1603127255
 C    0.2578828879    0.0475012096    0.0160092542
 C   -0.1694611297   -0.7586284053    1.2299481465
 C   -1.5355103393   -1.4151886660    1.0974966962
 C   -1.5128750753   -2.7105492279    1.4181532240
 C   -0.1331156755   -3.1735664350    1.7503742817
 C    0.8515333151   -3.0915605778    0.5990968438
 C    0.7425744049   -1.9451788165    1.5732508531
 H   -0.8069060450    1.9074892807    0.6399412485
 H   -0.4544869297    1.8264210331   -1.1440164691
 H    1.9826191232    1.3228966265   -0.6219960889
 H    1.6074812214    1.4096583233    1.1569886644
 H    0.3337163879   -0.5342336007   -0.8985355489
 H   -0.1868431633   -0.0645948173    2.0854775782
 H   -2.4039738557   -0.8635378973    0.7549165090
 H   -2.3691132220   -3.3761221672    1.4072267543
 H    0.0306302347   -3.9023201140    2.5365693157
 H    1.7509458250   -3.6958284991    0.6614853455
 H    0.4452536030   -2.9879038786   -0.4016059382
 H    1.5880213845   -1.7684186620    2.2273639610