19

 C   -0.1820628579    1.4926985299    0.0273793333
 C   -0.0566985149   -0.0296977781    0.0335507148
 O   -1.3008570758   -0.6615834891   -0.1879142182
 C    1.0980001308   -0.5635031366   -0.8562865278
 O    1.1846919856   -0.7410593344   -2.0373315616
 C    1.9699544802   -0.9095631794    0.3622438822
 C    0.7262906751   -0.6258087277    1.2264640580
 C    0.6607147713   -0.2050827177    2.6631600619
 C    0.1332195726   -1.5568024438    2.2381285775
 H    0.7761225956    1.9784039971    0.2372766228
 H   -0.5333063279    1.8411968490   -0.9498463644
 H   -0.9037449477    1.8059135452    0.7879404036
 H   -1.5306554832   -0.5332560979   -1.1158213041
 H    2.3721349783   -1.9266742117    0.3716279254
 H    2.7979956683   -0.2047398474    0.5007905319
 H    1.5889460579   -0.1671178105    3.2245455941
 H   -0.0591396748    0.5579975357    2.9422246640
 H   -0.9406358523   -1.7015089874    2.2065369076
 H    0.7028423288   -2.4390681155    2.5122489288