20

 C    0.1078086661    1.5441224844    0.1462327968
 C   -0.0548202452    0.0254336644   -0.0261751878
 C    0.6950773870   -0.4982665532   -1.2284170809
 N    0.2285043573   -0.1332774711   -2.4299740371
 C    0.8730123931   -0.5606536830   -3.5154068893
 C    2.0109641981   -1.3703118708   -3.5006112530
 C    2.6802920374   -1.8147141653   -4.7750441331
 C    2.4864244608   -1.7430832965   -2.2424560441
 C    1.8279154992   -1.3069428494   -1.1009036583
 H    1.1548196061    1.8110878414    0.3243685624
 H   -0.2243157099    2.0620709861   -0.7573563844
 H   -0.4836301488    1.9072457643    0.9923134808
 H    0.2856750251   -0.4943999067    0.8758787428
 H   -1.1179499057   -0.2079034789   -0.1536977746
 H    0.4572950964   -0.2417251661   -4.4706040407
 H    3.7229505871   -1.4804013035   -4.8182469040
 H    2.6891834883   -2.9069388675   -4.8638634443
 H    2.1652656335   -1.4138018945   -5.6523730612
 H    3.3674005081   -2.3738175026   -2.1578386183
 H    2.1845869161   -1.5900228714   -0.1159850918