18

 O   -0.0677496775    1.3383962311   -0.0290698574
 N    0.0392416287   -0.0650880657   -0.0068797473
 C   -1.1043359146   -0.6349825590    0.0302792579
 C   -2.4372951134    0.0800672603    0.1298654775
 O   -3.3073067828   -0.5993836990    1.0154123166
 C   -3.6577996809   -1.8894818273    0.5476998743
 C   -2.4501201674   -2.7985506350    0.3197546748
 C   -1.8418280742   -2.8837411473   -1.0519554451
 C   -1.1235883770   -2.1160295414    0.0449429219
 H    0.8549129933    1.6086081647    0.0182074791
 H   -2.2850984623    1.0814452583    0.5319378200
 H   -2.8971788449    0.1812183560   -0.8696973409
 H   -4.3093704409   -2.3138595526    1.3156021088
 H   -4.2478396122   -1.7978396431   -0.3798845966
 H   -2.4124612835   -3.6903699768    0.9359059887
 H   -1.3950942404   -3.8176845144   -1.3734710744
 H   -2.3149283306   -2.3158068793   -1.8472058063
 H   -0.2208353393   -2.5696647595    0.4370958683