20

 C    0.3788586062    1.4130119914    0.0666923507
 N    0.4282388326   -0.0422473690    0.1011688225
 C    0.4747434537   -0.6739659463   -0.9766114868
 C    0.5246895721   -2.1361713534   -1.3563834685
 C    0.5086772668   -1.5990084550   -2.8076853351
 O    0.4880087349   -0.2210045086   -2.2884835676
 C    1.6899826288   -1.8651618059   -3.6830747821
 C    1.6152427026   -2.9772800794   -4.7043241728
 C    1.6248542800   -1.5411068113   -5.1546501415
 H    1.2416413425    1.8141701951    0.6103013552
 H    0.3721826364    1.8384947554   -0.9436828496
 H   -0.5172678410    1.7535886398    0.5973465346
 H    1.4413643107   -2.6531007903   -1.0647101271
 H   -0.3391197149   -2.7269334394   -1.0476061765
 H   -0.4257594695   -1.7929118387   -3.3460324984
 H    2.6482595898   -1.7159097516   -3.1928947357
 H    2.5024378998   -3.5790851873   -4.8635305138
 H    0.6849397763   -3.5299724405   -4.7866885723
 H    0.7008565523   -1.1214602622   -5.5381397461
 H    2.5192138001   -1.1524999327   -5.6276602991