15

 O    0.2983073841    0.4026927700   -1.1241561025
 C    0.1270548516    1.3109645730   -0.3706156858
 C   -1.1249144744    1.9190621516    0.3130027916
 C   -0.2505686592    3.1140517023    0.7891718502
 C    0.3700924300    2.9430616817    2.2057794951
 N    1.3730162744    2.0119570139    1.6336572207
 C    1.0360945433    2.4036248870    0.2364949907
 C    0.9340487686    4.1815087348    2.7462281492
 N    1.4064631484    5.1502218775    3.1653621139
 H   -1.9074569519    2.1847112027   -0.4033519287
 H   -1.5703238914    1.3018383735    1.0979798239
 H   -0.5639090645    4.1102019287    0.4910440098
 H   -0.2750588067    2.4876076836    2.9659578224
 H    2.3329394533    2.1587377457    1.9193324020
 H    1.8220388844    2.8695441140   -0.3608342527