15

 C   -0.0087684792    1.4664842559    0.0105061669
 C    0.0072791167    0.0138127365    0.0027030712
 C    0.0340985562   -1.1919057923   -0.0038087793
 C    0.0371376926   -2.6181265583   -0.0114365964
 N    1.2261087959   -3.2514834563   -0.0216446653
 C    1.1846664185   -4.5811154687   -0.0284651867
 N    0.1042375430   -5.3661239041   -0.0264073049
 C   -1.0676810233   -4.7235063183   -0.0162270342
 C   -1.1633123643   -3.3405391624   -0.0083314721
 H    1.0076463332    1.8733589226    0.0030579988
 H   -0.5353577554    1.8590189447   -0.8664234080
 H   -0.5185889409    1.8496312956    0.9013923771
 H    2.1472885560   -5.0879580573   -0.0367074730
 H   -1.9622326662   -5.3424149977   -0.0143483512
 H   -2.1197544226   -2.8330547199   -0.0001048229