17

 C   -0.0475149296    1.4632407713   -0.0167120724
 C   -0.0024303876    0.0095429190   -0.0115466330
 C    0.0274028964   -1.1962815604   -0.0076498860
 C    0.0658764508   -2.6115691662   -0.0031363488
 C    1.1812047994   -3.4172895713    0.0386588693
 N    0.7026096157   -4.7051861889    0.0242242116
 C   -0.6657672785   -4.6429299468   -0.0251276394
 C   -1.5360735223   -5.8546480837   -0.0534399565
 N   -1.0790616826   -3.3978373057   -0.0425860702
 H    0.9603594734    1.8912666962   -0.0589168025
 H   -0.6038474431    1.8424465791   -0.8816499507
 H   -0.5341252547    1.8523309643    0.8851975854
 H    2.2329850575   -3.1900836830    0.0758851197
 H    1.2613193545   -5.5418315894    0.0461343465
 H   -1.4019221877   -6.4749934864    0.8403204138
 H   -2.5768612028   -5.5322729517   -0.0960579572
 H   -1.3320630886   -6.4838641662   -0.9275366696