19

 C   -0.0700699358    1.6220407953    0.0732725556
 C    0.0293574068    0.1067690355    0.0468775370
 C    1.1341127483   -0.6295710386   -0.7558962494
 C    2.4010471274   -0.0138370029   -0.0536703782
 O    1.9975326022    0.0411275364    1.3643977449
 C    0.7738993183   -0.6483671126    1.2172150122
 C   -0.1088079909   -1.5950810221    2.0208721216
 O   -0.2535083847   -2.3797904014    0.7842345949
 C    0.9884918329   -1.8017958876    0.2540203835
 H    0.8295306634    2.0846532456    0.4863622476
 H   -0.2339683903    2.0225090751   -0.9334012370
 H   -0.9159392895    1.9397741919    0.6920669646
 H   -0.9393938570   -0.3534758362   -0.1421510280
 H    1.1790578607   -0.6930821622   -1.8454156089
 H    3.2954158312   -0.6398708244   -0.1442358866
 H    2.6254651304    0.9949031150   -0.4075955251
 H    0.4101981396   -2.1736101845    2.7943857580
 H   -1.0714762955   -1.2290193052    2.3892209108
 H    1.8139579326   -2.5118885672    0.3525423226