14

 O   -0.2975603341    0.4207617133    0.9498778094
 C   -0.0597162141    1.1655140287    0.0303904687
 C    1.2232004523    1.9317156130   -0.0787931582
 C    1.5661907876    2.5310351778   -1.4352798247
 C    1.6776465187    1.5164296054   -2.4851108564
 N    1.7433891459    0.7063218076   -3.3060309763
 C    1.6497325810    2.6285645014    1.1815145831
 N    2.3466810933    1.4359044712    0.7238397252
 H   -0.7888580756    1.3256044984   -0.7910311651
 H    0.8035803981    3.2602411979   -1.7346671168
 H    2.5165397780    3.0666291636   -1.3589439825
 H    2.2060721728    3.5584272644    1.0963210935
 H    0.9823803065    2.5531798782    2.0350455647
 H    2.0131661395    0.6281060591    1.2513438656