18

 O   -0.0648010253    1.4110542714    0.1339377003
 C   -0.0430896965    0.0039201251   -0.0345014422
 C   -1.4373214576   -0.5622357501   -0.0470239919
 C   -2.6043992543   -0.3196962971   -1.0735963283
 C   -3.2546444044   -1.2061326512    0.0475794938
 C   -1.9321655572   -2.0532770105    0.0034296331
 C   -2.4977946524   -0.3077378400    1.0073533567
 N   -2.5457290528    0.3774662021    2.0638141239
 O   -3.8191802645    0.2970074194    2.6835851970
 H   -0.5459015103    1.5896039997    0.9516412832
 H    0.4652377545   -0.1894832011   -0.9852157251
 H    0.5413138260   -0.4927136523    0.7572432671
 H   -2.9665645864    0.7037573719   -1.1761263391
 H   -2.4807804640   -0.8150749452   -2.0407222557
 H   -4.2780678889   -1.5646560655    0.1093589642
 H   -1.7804433380   -2.6272761365   -0.9147801540
 H   -1.6804708648   -2.6302950787    0.8952763207
 H   -3.6945005232    0.8480148087    3.4635191662