20

 C    0.0144362168    1.5496448138   -0.0634684010
 C    0.0017924577    0.0307237820    0.1187216068
 O    0.6445476590   -0.3598471883    1.3225083113
 C   -1.4147289038   -0.5531317148    0.0590428605
 C   -1.4960167879   -2.0830028975    0.1541158856
 C   -2.8204541602   -2.3005662831    0.8960443823
 C   -2.9553869541   -1.0475146055    1.7322751434
 N   -3.6971860006   -0.8978360068    2.7414277463
 O   -2.1356514859   -0.0728715737    1.2205281321
 H    1.0369897826    1.9253960600    0.0207958885
 H   -0.3815849350    1.8330218516   -1.0444716064
 H   -0.6004555808    2.0335750618    0.7020165636
 H    0.5824209957   -0.4372269834   -0.6860926249
 H    0.0886257795   -0.0397600487    2.0436966936
 H   -1.9315416349   -0.1809016087   -0.8360653564
 H   -1.4591819646   -2.5582025054   -0.8281314190
 H   -0.6520473675   -2.4423863847    0.7493966262
 H   -3.6666011488   -2.3514896758    0.2007373075
 H   -2.8554873806   -3.1928969828    1.5213518894
 H   -3.6153208467    0.0509208401    3.1114249908