19

 C    0.0342666245    1.5715833928    0.0814548242
 C    0.0224662313    0.0328156124    0.0201234599
 C    0.6393860109   -0.4982466062   -1.1894126037
 C    1.1641384789   -0.9261361378   -2.1873113225
 C    1.7445807484   -1.3941446714   -3.3974030591
 C    1.3940864951   -0.9906481164   -4.8458316653
 C    1.8368656081   -2.4213398905   -5.3101386958
 C    2.1793211559   -2.7408221935   -3.8501837168
 O    3.1374055427   -1.7783765343   -3.4164583776
 H    1.0580727990    1.9531820868    0.0479711219
 H   -0.5129335033    1.9985523547   -0.7632983748
 H   -0.4346183534    1.9183351191    1.0070474079
 H    0.5444618754   -0.3742930322    0.8955763739
 H   -1.0111028745   -0.3303988428    0.0906748274
 H    0.3269150998   -0.8120198448   -4.9899750226
 H    1.9666534477   -0.1432585208   -5.2281660187
 H    1.0031567637   -3.0113579104   -5.6974658647
 H    2.6802427365   -2.4793907386   -6.0018183484
 H    2.1602098132   -3.6917525460   -3.3294364653