16

 N    0.0462565719    1.3530923777   -0.1779285767
 C   -0.0165354231    0.0035335426    0.0337562892
 C   -1.1874731569   -0.6759926586    0.1215447349
 C   -1.3030727271   -2.1314814249    0.1743656376
 O   -2.2577559198   -2.7571714855   -0.2045657278
 O   -0.2136420737   -2.8303111942    0.6834691149
 C    0.5465335157   -2.2108285412    1.6982369189
 O    1.6150204693   -1.4372775970    1.2119464525
 C    1.3293511338   -0.7056583700    0.0332780209
 H    0.8993853776    1.8382205969    0.0442395844
 H   -0.7964115403    1.8975612228   -0.0797973220
 H   -2.1325064233   -0.1518732242    0.0236794133
 H   -0.1131255051   -1.6007146432    2.3286406082
 H    0.9983983274   -3.0117865602    2.2875003470
 H    1.3696506521   -1.3680670586   -0.8411510155
 H    2.1400990016    0.0217690273   -0.0665036300