17

 C   -0.0764415451    1.5392232400   -0.0048525541
 C    0.0227900861    0.0146136669   -0.0184439629
 C    0.7383009632   -0.5058091834   -1.2646107765
 O    0.9353383139   -1.9011878451   -1.1776077396
 C    1.8407966832   -2.2350389291   -0.1431449284
 C    1.5801173833   -1.5474457309    1.1973456565
 O    2.1175428282   -1.9334122595    2.2179376095
 N    0.7556719910   -0.4619619624    1.1518954214
 H    0.9180050302    1.9955035807   -0.0344700255
 H   -0.6512658300    1.8943709443   -0.8656321529
 H   -0.5849456573    1.8892251642    0.8995336935
 H   -0.9926362218   -0.4098600752   -0.0163119298
 H    0.1273779679   -0.3239210204   -2.1527226579
 H    1.7007228578    0.0196432283   -1.3890571024
 H    1.7763085963   -3.3133651831    0.0151337003
 H    2.8785106811   -1.9995974028   -0.4328318725
 H    0.5581805620   -0.0456766025    2.0518837812