19

 C   -0.2198291517    1.4539924162    0.0816672597
 C    0.1684479895    0.0025998704    0.0544969834
 C    0.3825631204   -0.7069240492   -1.2733685136
 O    0.9823956517   -1.9557166972   -0.9658538043
 C    1.6635408481   -1.8598035301    0.2786066091
 C    0.9888427965   -0.7297651398    1.0334885606
 C    1.5691450412   -0.2040713230    2.3166306786
 O    1.5013487894   -1.1808642074    3.3442473666
 O   -0.4494488553   -0.8742825928    1.0137771278
 H    0.5149668255    2.0639331262   -0.4536814097
 H   -1.1915515792    1.5961841788   -0.4036060685
 H   -0.3012431469    1.8210779207    1.1066524124
 H   -0.5529867666   -0.9037324636   -1.8081083493
 H    1.0303543202   -0.0890256963   -1.9179946377
 H    1.5829790428   -2.8249817786    0.7865723100
 H    2.7322821903   -1.6239302537    0.1423854152
 H    2.6317687308    0.0269875496    2.1854749981
 H    1.0549998800    0.7223159684    2.6080975268
 H    0.5714046834   -1.4162301685    3.4420586649