19

 C    0.0368255079    1.4733762539    0.0249839691
 C   -0.0261463797   -0.0284406308    0.0041807612
 O    0.9364814553   -0.6225927525   -0.8400939872
 C    0.2728034243   -1.6122085049   -1.6352474576
 C   -0.8508060032   -2.1464354639   -0.7202782908
 C   -0.2012336347   -2.9587751904    0.3910991198
 C    0.0607890232   -2.1929865955    1.4511930059
 C   -0.4606977344   -0.8102516336    1.2648062734
 C   -1.2819950269   -0.8340763352   -0.0180883363
 H    1.0180824697    1.8127278179    0.3721833637
 H   -0.1271650189    1.8829533746   -0.9773734070
 H   -0.7229383046    1.8846637071    0.6959434795
 H   -0.1394480200   -1.1609503809   -2.5523111346
 H    1.0138975753   -2.3665328747   -1.9147231070
 H   -1.6415422467   -2.6600882969   -1.2730382898
 H    0.1303652349   -3.9807130773    0.2469717613
 H    0.6102844183   -2.4985990379    2.3337189998
 H   -0.7744041659   -0.2189714375    2.1192941253
 H   -2.2777447040   -0.4182080717   -0.1146659588