16

 C    0.1500319729    1.5397882252   -0.1662684858
 C   -0.0514089004    0.0379311792    0.0289612025
 N   -1.4464563302   -0.3765922413    0.0359188915
 C   -2.0725507464   -0.6833119400    1.2332205859
 N   -3.4467791819   -0.8256281397    1.1251039384
 O   -1.4765739164   -0.7991421641    2.2869347553
 C    0.7060021318   -0.7997258735   -0.9951405078
 O    1.5631960614   -0.3802585671   -1.7277463775
 H    1.2159994673    1.7730732131   -0.2094957079
 H   -0.2957388612    1.8765603294   -1.1083908730
 H   -0.3063804677    2.0942399732    0.6570473816
 H    0.3288929595   -0.2651995815    1.0148939589
 H   -2.0253732448   -0.0101022289   -0.7052033857
 H   -3.8229202996   -1.1511324491    0.2473856691
 H   -3.8589404605   -1.2582594222    1.9376398001
 H    0.3893018561   -1.8673158827   -1.0096898854