17

 N    0.1817191800    1.1069962279   -0.6883715985
 C    0.0149088386   -0.0993997452    0.0862758821
 C   -0.0131208430   -0.0935774757    1.6429260665
 C   -1.2050541920   -1.0867246306    1.6005452864
 C   -1.4528045091   -0.7042589512    0.1093305367
 N   -2.5344119705    0.2615536799   -0.0410579537
 C   -1.6599688940   -1.8159087177   -0.8210448340
 N   -1.7626492835   -2.7029948034   -1.5555082304
 H   -0.0590442323    1.9325185515   -0.1519045749
 H    1.1352514730    1.2205214583   -1.0093794507
 H    0.7094609275   -0.8579929806   -0.2833053026
 H    0.8928021686   -0.4124318604    2.1622248763
 H   -0.3046317908    0.8861242600    2.0362895164
 H   -0.8910143929   -2.1261297890    1.7061598373
 H   -2.0528535840   -0.9051853498    2.2642938553
 H   -2.5299302349    0.9101227706    0.7402968297
 H   -2.3696209507    0.8095020154   -0.8829144619