19

 O   -0.1694693047    1.4794177466    0.2135496621
 C    0.0310920459    0.0806349762    0.0098243889
 C    0.9654261377   -0.5354056180    1.0737859339
 C    0.3987483071   -1.7900194113    1.7080471100
 C   -1.0281946457   -1.8971090514    2.1714054506
 C   -0.5352830775   -2.7572580715    1.0182518531
 C   -1.5370356166   -2.0515578943    0.0631155553
 C   -2.0138205678   -1.1770059114    1.2119519044
 C   -1.3342801933   -0.5607162376    0.0142958337
 H    0.6903712703    1.9093607048    0.1612850262
 H    0.4636437008   -0.0805078209   -0.9905310858
 H    1.9494639651   -0.7489244616    0.6407539342
 H    1.1143476381    0.2154064599    1.8592986831
 H    1.0904585499   -2.2944299745    2.3797221221
 H   -1.2979611790   -2.2013666711    3.1745366968
 H   -0.3547488643   -3.8243435123    1.0002670499
 H   -2.1239488232   -2.5835190609   -0.6745505395
 H   -3.0276789857   -0.9190656593    1.4881604444
 H   -2.0315449571   -0.0549845316   -0.6492768133