16

 N    0.5700319910    0.4805004213   -0.7231413683
 C   -0.1359587119    0.1981135580    0.4008767014
 O    0.1029764898    0.6861810235    1.4895961650
 C   -1.2787495135   -0.7834898543    0.2535804179
 C   -1.7977762692   -1.4055986688   -1.0169242304
 O   -1.1759987010   -1.1285294537   -2.2383871126
 C   -1.0679733983   -2.2863675552   -0.0168111516
 C    0.2006241617   -2.8144782053   -0.4161598228
 C    1.2325647633   -3.2790246512   -0.8268142731
 H    1.2958474399    1.1743263398   -0.6530514340
 H    0.2460997646    0.1562101029   -1.6216187679
 H   -2.0245680402   -0.5967152439    1.0177549845
 H   -2.8743827416   -1.5322858492   -1.1040642611
 H   -0.6551090204   -1.9040445712   -2.4886833755
 H   -1.6751266175   -2.9535968392    0.5869624945
 H    2.1654159534   -3.6805333134   -1.1381210159