15

 C    0.0710032920    1.4771314239   -0.0338850514
 C    1.3279272752    0.6731634524    0.0006616546
 N   -0.0178046899    0.0184545164   -0.0051586133
 C   -0.2473729940   -0.6098674997   -1.3437085850
 C    0.9842041701   -0.2883821628   -2.1434531956
 C    1.6516970419   -0.4387161972   -3.3095711125
 O    2.8809191596    0.1181000535   -3.2082037824
 N    3.0459012924    0.6681215942   -1.9261522709
 C    1.9134473870    0.4158382926   -1.3317275753
 H   -0.2724283795    1.9727333396    0.8697888195
 H   -0.1593914999    2.0004282756   -0.9601130239
 H    1.9243747135    0.5914882695    0.9020080585
 H   -0.3742044822   -1.6875693380   -1.1959097366
 H   -1.1773758871   -0.2249357034   -1.7746012206
 H    1.4340703407   -0.8976752768   -4.2613415852