17

 C   -0.0163659290    1.5096166847   -0.0158219087
 C    0.0156106238    0.0139561233    0.0027497733
 C    0.0048215712   -0.8194433676   -1.0648613882
 O    0.0429745594   -2.1313999631   -0.6514492807
 C    0.0707622881   -2.1091896360    0.7016390121
 N    0.1878318074   -3.3559086027    1.3094647928
 C    0.0529536373   -0.8308236611    1.1792859857
 C    0.0717269189   -0.3858839916    2.6087325447
 H    0.8716115391    1.9392861515    0.4632115932
 H   -0.0593756574    1.8909768775   -1.0398232728
 H   -0.8879419758    1.9022883525    0.5219595133
 H   -0.0297951458   -0.6682106850   -2.1303559588
 H   -0.3574765321   -4.0661632719    0.8351948591
 H   -0.0565472380   -3.3270932820    2.2903292092
 H    1.0456748755    0.0206963463    2.9107197041
 H   -0.6725542414    0.3966190300    2.7973053526
 H   -0.1535315811   -1.2116994747    3.2928528790