21

 O    0.0904864686    1.3644724167   -0.1228678943
 C   -0.0105049235   -0.0412151359   -0.0109954224
 C    0.5003735986   -0.6336994137    1.3513491552
 C   -0.7886650050   -1.3406280778    1.8146828633
 C   -1.2408848647   -2.0467031781    0.4980472504
 C   -1.4594724772   -0.5804719888    0.0176292697
 C   -1.8671871211   -0.2943916333    1.4751918619
 C   -3.2447727493   -0.2147262367    2.0371367708
 C   -2.2882558820    0.9621425612    2.1781891693
 H   -0.3851629368    1.7449558053    0.6233168333
 H    0.5464533601   -0.4347205275   -0.8658437445
 H    1.3396675764   -1.3245164779    1.2292464890
 H    0.8175664364    0.1699501134    2.0229872793
 H   -0.7751805927   -1.8577482720    2.7750177130
 H   -0.4994292020   -2.6515801928   -0.0332486967
 H   -2.1771237740   -2.5963324822    0.6077745594
 H   -2.0971787762   -0.3248377689   -0.8289562889
 H   -4.0827246689   -0.1020944738    1.3561288368
 H   -3.4739566404   -0.7846694121    2.9323025925
 H   -1.8824777892    1.1695288374    3.1638761216
 H   -2.5095025572    1.8506758576    1.5935830415