18

 C   -0.1042204944    1.5518263573    0.1001156716
 C    0.0188114455    0.0534436941   -0.0442448735
 C    0.6799872419   -0.6220214304   -1.2030614772
 C    1.3024355388    0.1147467619   -2.3653268130
 C    1.3830419725   -0.6498901171    0.1792090815
 C    2.5644581414    0.1395593527    0.3931041094
 C    3.5541877257    0.7973627249    0.5743980721
 C    1.3485171416   -1.9049930878    0.8911387367
 N    1.2944285959   -2.9165961592    1.4497552736
 H    0.7860419672    2.0776995560   -0.2487172597
 H   -0.9639112724    1.9150861018   -0.4728251755
 H   -0.2601595530    1.8234819041    1.1485098699
 H   -0.8048859408   -0.5022785103    0.3943544540
 H    0.2569079561   -1.5870219956   -1.4665966949
 H    1.8159515125    1.0256362187   -2.0532728648
 H    2.0341012767   -0.5207755381   -2.8732843023
 H    0.5312943680    0.3878009909   -3.0933860304
 H    4.4331248768    1.3695080759    0.7423621825