19

 C   -0.2795694803    1.4906688779    0.0111203201
 C    0.0083430430   -0.0161460217   -0.0185136447
 C    0.8581277695   -0.3871323415   -1.2295670641
 O    1.2610689275   -1.7617769915   -1.2213402339
 C    1.7983910552   -2.2726768256   -0.0831388280
 O    2.3547893577   -3.3406502272   -0.1214613027
 C    1.6062990969   -1.5030926459    1.1816327651
 C    2.3565782168   -2.0187217333    2.3758273784
 C    0.7317031576   -0.4905306372    1.2134931005
 H    0.6481089308    2.0684777921    0.0831799985
 H   -0.8078433464    1.8079839112   -0.8934174165
 H   -0.9036140449    1.7494196730    0.8716868180
 H   -0.9526260368   -0.5489653856   -0.0881476763
 H    0.3129457983   -0.2512026660   -2.1666216969
 H    1.7552624310    0.2474053693   -1.2575053715
 H    2.1228472712   -3.0728149556    2.5521300204
 H    3.4379319757   -1.9679174419    2.2098061887
 H    2.1125080821   -1.4416743525    3.2712291841
 H    0.5158893150    0.0111564221    2.1553754409