16

 C   -0.1396230667    1.5576744251    0.0036035782
 C    0.0284961358    0.0365380459    0.0104215341
 N    0.6835139064   -0.4686227034   -1.1869790303
 C    0.0873599676   -0.8605011075   -2.3845738083
 C    1.1139462685   -1.1974113076   -3.2158216725
 N    2.3356663086   -1.0232231506   -2.5849426382
 C    2.0200166766   -0.5879506279   -1.3944523271
 O    2.8751537381   -0.2645891812   -0.4041440715
 H    0.8348581170    2.0511298805   -0.0450435185
 H   -0.7331580651    1.8815484815   -0.8562079612
 H   -0.6466152237    1.8859214245    0.9162475168
 H    0.6257577831   -0.2755041963    0.8712785015
 H   -0.9434596304   -0.4596133604    0.0898704958
 H   -0.9836528106   -0.8648348197   -2.4998896314
 H    1.0577389966   -1.5606955701   -4.2301657023
 H    3.7588369181   -0.4455379627   -0.7479473149