18

 C    0.0820315502    1.5715766420    0.0938508005
 C    0.0694705420    0.0416788578    0.0754064715
 C    0.5835121275   -0.5195327051   -1.2541044123
 N    0.6217721968   -1.9707502440   -1.2721228719
 N    1.5555574725   -2.6741843505   -0.5540581643
 C    1.2289420846   -3.9233568746   -0.8172741495
 N    0.1565009029   -4.0936004450   -1.6463506842
 C   -0.1844314369   -2.8471909246   -1.8967367029
 O   -1.1944276183   -2.4278931581   -2.6700923199
 H    1.0942987625    1.9629053119   -0.0557046297
 H   -0.5546211844    1.9871376193   -0.6952251352
 H   -0.2834953719    1.9541987918    1.0508424120
 H    0.6949979275   -0.3561759055    0.8811226960
 H   -0.9467423775   -0.3314775345    0.2490577082
 H   -0.0555815950   -0.2063698087   -2.0844210108
 H    1.5976033480   -0.1586781919   -1.4536187233
 H    1.7822478550   -4.7523909617   -0.4016983994
 H   -1.6174088955   -3.2205760484   -3.0236940947