13

 C   -0.0162731699    1.4921782220   -0.0743895809
 N   -0.0079906370    0.0514746593    0.0673805063
 N   -0.0444072560   -0.7378846502   -1.0433813626
 N   -0.0290765291   -2.0037679837   -0.6971796244
 C    0.0179553599   -2.0110895654    0.6479900990
 C    0.0327294158   -0.7398786319    1.1689304982
 C    0.0821648345   -0.9487816377    2.5702076818
 N    0.0947484036   -2.2388138373    2.8342196204
 O    0.0539943118   -2.9399142520    1.6119286815
 H    0.8922543805    1.9256220363    0.3529640312
 H   -0.0577407436    1.7089907929   -1.1416484238
 H   -0.8910773964    1.9218554537    0.4215590901
 H    0.1091592659   -0.2552494360    3.3972951231