13

 N    0.0605099209    1.4612841563    0.1202399763
 C   -0.0026233812    0.0554271575    0.0207806395
 C   -1.0789722894   -0.8067180392    0.0215669167
 N   -0.5623741929   -2.0650255887   -0.0369079833
 N    0.7897764746   -2.0802322267   -0.0687671449
 C    1.1309328749   -0.7974481715   -0.0349311492
 N    2.4591344638   -0.3609354206   -0.1216938101
 H    0.6763215596    1.8471632733   -0.5889348557
 H   -0.8492079016    1.8938529220    0.0181781410
 H   -2.1416699020   -0.6245799769    0.0531289941
 H   -1.0591602860   -2.9366406868   -0.0351121493
 H    3.1005800323   -1.1405180640   -0.0369484855
 H    2.6714312369    0.3323456653    0.5876588305