19

 C   -0.0238285554    1.1383923884    0.7170799685
 N   -0.0272151284   -0.1210738126   -0.0053387555
 C   -1.1884584293   -0.8554527875   -0.1076767525
 O   -2.2094446503   -0.5933519459    0.5079323277
 N   -1.1001649108   -1.9318723094   -0.9774665481
 C   -2.1921896110   -2.8896217504   -1.0163029148
 C   -2.2440920351   -3.8285499682    0.2097830723
 C   -3.4667261290   -4.7130185077    0.1794025503
 O   -3.4491337490   -5.9172767265    0.1507270878
 H   -0.2602320305    1.9966417041    0.0742742585
 H   -0.7841982970    1.0775973482    1.4957360930
 H    0.9544429061    1.3025504766    1.1778381446
 H    0.6464905226   -0.2210201135   -0.7481655751
 H   -0.1785126117   -2.3030946957   -1.1530508212
 H   -3.1215589567   -2.3178884644   -1.0748051454
 H   -2.0969176233   -3.4733857216   -1.9369908648
 H   -1.3516554117   -4.4584526559    0.2696651330
 H   -2.3040583277   -3.1927295164    1.1018659870
 H   -4.4330255119   -4.1559552016    0.1755405646