19

 O   -0.0076166056    0.1077088556   -0.6260972777
 C   -0.0164550989    1.2243448189   -0.1602142544
 C   -1.3609761037    1.9231410326    0.0868685923
 N   -1.4050878692    2.7881172593    1.2587481470
 C   -0.7946454423    4.0682205981    1.0685070947
 C   -0.0310421478    4.6738033272    2.2200894605
 C    0.7173011159    4.0887126833    1.0480772828
 N    1.3671214491    2.8256896077    1.2212877027
 C    1.3148217516    1.9594058682    0.0507114436
 H   -1.6048353658    2.4557205887   -0.8555037577
 H   -2.0963639557    1.1223165628    0.1938962590
 H   -2.3567762722    2.8837469032    1.5903633164
 H   -1.2804904642    4.7624480828    0.3762911667
 H   -0.0439810015    5.7507637719    2.3428424506
 H   -0.0108044245    4.0907346470    3.1326535720
 H    1.1652807163    4.7955986714    0.3432464737
 H    2.3244796305    2.9471925805    1.5271089465
 H    2.0742611379    1.1788403787    0.1375416163
 H    1.5186141301    2.4980512522   -0.8977102850