23

 C   -0.0050948529    1.5923548613    0.1241115314
 C    0.0084329911    0.0584608981    0.1193422737
 C   -1.3724986778   -0.5491071955   -0.0350294306
 C   -2.3885505534   -0.4055008480    1.1285111306
 C   -2.8017528892   -1.8963620070    0.9490157709
 C   -1.6472760318   -2.1053817648   -0.0706084068
 C   -2.0659379397   -1.9943162573   -1.5454225394
 O   -3.2793229332   -2.6436187359   -1.8562396990
 C   -2.0481357091   -0.4382842685   -1.4412036215
 H    1.0049686720    1.9976230370    0.2386629878
 H   -0.4194679730    1.9882290215   -0.8093648045
 H   -0.6153093703    1.9800017093    0.9468249063
 H    0.6586613346   -0.2987687785   -0.6910637037
 H    0.4574287907   -0.3052106413    1.0534752386
 H   -1.8907968119   -0.2261385069    2.0873204247
 H   -3.1719076724    0.3488306479    1.0046482009
 H   -2.7222786317   -2.5027866721    1.8533256095
 H   -3.7906057539   -2.0555705508    0.5152688853
 H   -0.8974358076   -2.8558013926    0.1862736272
 H   -1.2568869263   -2.3469589965   -2.2018744852
 H   -3.5027271836   -2.4433735436   -2.7706667591
 H   -3.0506034632   -0.0004672315   -1.4165339498
 H   -1.4605574674    0.0736165958   -2.2086618573