18

 C   -0.1119820778    1.5533612919   -0.0221630674
 C   -0.0003121292    0.0476362205    0.0565125960
 O   -1.1093319107   -0.6325759625   -0.4353347955
 C    1.3666204971   -0.6441281580   -0.1990655822
 C    2.5531830795    0.1063116510   -0.4575333119
 N    3.5066075975    0.7372392780   -0.6481300243
 C    0.6833859218   -0.6410591004    1.1957622882
 C    1.3061869935    0.1248256229    2.3409281505
 O    0.0933622351   -1.8440787783    1.5687907371
 H    0.7942448056    2.0628085170    0.3077131005
 H   -0.2907572507    1.8556014538   -1.0610137140
 H   -0.9558614800    1.8979083012    0.5827565882
 H   -1.2654061983   -0.3296884120   -1.3371998222
 H    1.2763133669   -1.5920704530   -0.7178912592
 H    1.8188872083    1.0306759873    2.0150812768
 H    0.5386836930    0.3924328692    3.0731151357
 H    2.0517099201   -0.5039919617    2.8422304094
 H    0.7571158784   -2.3670480071    2.0328964443