15

 O   -0.0100454598    0.0146425855    0.1933696575
 C   -0.0665337216    1.1912416749    0.0290762060
 C   -1.1578795345    2.2786114292   -0.0734165092
 N   -1.3689656813    2.8338398084    1.3136430760
 C   -0.2335907359    3.8309170623    1.1094138643
 C    1.0385245995    3.4410709851    1.8407812996
 C    1.6754327115    2.4944027838    1.1475428091
 N    1.0034623446    2.1788391739   -0.0932458166
 C    0.0035130929    3.2725094765   -0.3056278031
 H   -2.0422520412    2.1280417482   -0.6914393234
 H   -2.2632334277    3.3129812673    1.3534838891
 H   -0.5363590090    4.8730929168    1.2204969749
 H    1.3447443122    3.8317102206    2.8014989714
 H    2.5660018897    1.9416187065    1.4135989041
 H    0.1790198905    3.8994959909   -1.1778922398