21

 C    0.0219576031    1.5563606226   -0.0475901420
 C    0.0255491365    0.0240365766   -0.0538856162
 C    0.7192165008   -0.5654857988   -1.2619752115
 C    0.8277017183   -2.0852101865   -1.4520730849
 C    1.5889757256   -1.8892295216   -2.7771609163
 C    0.5890800730   -0.9793792489   -3.5123542479
 O    0.0670849734   -0.1434315902   -2.4614992873
 C    2.7284473269   -0.9804056842   -2.2833999456
 O    2.0842460647   -0.1443803484   -1.3027618605
 H    1.0436319941    1.9437088449   -0.0512668303
 H   -0.4901143892    1.9437391387   -0.9316599487
 H   -0.4889314652    1.9350123065    0.8424778354
 H    0.5301006776   -0.3591284783    0.8394023981
 H   -1.0002815324   -0.3591228144   -0.0392351277
 H    1.4132819561   -2.5731306848   -0.6700585949
 H   -0.1431821465   -2.5723933665   -1.5641318076
 H    1.9051038219   -2.7748800027   -3.3282080228
 H    1.0640214785   -0.3568782662   -4.2800810288
 H   -0.2313058689   -1.5430184985   -3.9753784543
 H    3.5412820782   -1.5448449655   -1.8081901619
 H    3.1528600933   -0.3579067036   -3.0801742244