18

 C   -0.0665603263    1.5046171599   -0.1571490915
 C   -0.0553986677    0.0055778230    0.1741317310
 C   -1.3960115162   -0.6293070329   -0.0045963303
 O   -2.4695924886   -0.1858570886    0.8920769675
 C   -2.8553641756   -1.5226195940    1.0954945138
 N   -3.6782484289   -2.0001844377    1.9085118526
 C   -1.9206973943   -2.0710046219    0.0817288516
 C   -2.0541766808   -1.2126918442   -1.1978786050
 O   -3.2486337564   -0.7555516711   -1.7236275636
 H    0.9234770311    1.9414846354   -0.0001578266
 H   -0.3535333263    1.6765098930   -1.1991895048
 H   -0.7778542974    2.0358520461    0.4815399567
 H    0.6570641719   -0.5214808345   -0.4712193837
 H    0.2762110457   -0.1502325750    1.2077197007
 H   -4.1112302438   -1.2684527686    2.4741090276
 H   -1.4202265527   -3.0281625696    0.1112523084
 H   -1.3841727435   -1.5489262189   -1.9847183511
 H   -3.6559726602   -0.1903099503   -1.0542327933