20

 C    0.0463559323    1.5495788163   -0.0175497634
 C    0.0265084482    0.0150265978    0.0296680327
 C    0.8109818644   -0.4988814622    1.2432583496
 O    2.1217981772    0.0426129909    1.1634378080
 C   -1.4264994903   -0.5500915221    0.0144454127
 C   -1.4913024304   -2.0843081424    0.0468802159
 O   -2.1806004207   -0.1104372656    1.1400028045
 C   -2.0938505936   -0.0888747241   -1.2316297548
 N   -2.6185172644    0.2826290654   -2.1921964146
 H    1.0779142103    1.9015808199   -0.0445057059
 H   -0.4773967347    1.9313749696   -0.8980583154
 H   -0.4157910527    1.9820530529    0.8786192928
 H    0.5241095682   -0.3631727930   -0.8722334810
 H    0.2979439794   -0.1859568337    2.1646776422
 H    0.8496744320   -1.5967371933    1.2382846880
 H    2.6101834004   -0.2394305345    1.9419648600
 H   -1.1599534984   -2.4445943061    1.0222044811
 H   -2.5207251071   -2.4136004874   -0.1065644019
 H   -0.8606647622   -2.5166024679   -0.7334505692
 H   -2.2720401677    0.8478800793    1.0937949686