14

 N    0.1737448868    0.9204671055   -0.8830055314
 C   -0.0206303175    0.0821436831    0.0411029170
 O    0.8542789935   -0.0171601716    1.0994654493
 N    1.4938242275   -1.2631973716    1.4010945309
 C    0.7260046670   -2.2168305931    1.7772647159
 C   -0.7188205752   -2.3093101587    1.8873595905
 C   -1.6148751474   -1.6219112537    1.1622904941
 C   -1.3351568286   -0.6602908122    0.0950397248
 N   -2.2640690712   -0.4233749923   -0.7498256614
 H    1.0794707882    1.3773677862   -0.7704415624
 H    1.2997666059   -3.0966161139    2.0690768583
 H   -1.0785709059   -3.0698329650    2.5740867799
 H   -2.6720680734   -1.8383321392    1.2786534360
 H   -1.9201079597    0.2586050165   -1.4350183416