20

 C   -0.3294552050    1.4682106106   -0.0616683796
 C    0.1968180117    0.0301572530    0.0438585439
 C    0.8529833688   -0.4597703677   -1.2183103113
 N    0.0661360944   -0.8962730206   -2.4014332654
 C    0.9335078560   -1.8634666944   -1.6778732993
 C    2.4027654475   -1.8876811328   -2.1540892230
 C    2.5585847262   -0.5986703657   -2.9911245217
 C    2.3046070609   -0.0303389787   -1.5788984161
 O    3.0583990103   -1.1759736221   -1.0392325045
 H    0.4779144295    2.1714140137   -0.2912392418
 H   -1.0796528104    1.5584512935   -0.8540608781
 H   -0.7904596803    1.7867124661    0.8780038372
 H    0.9250952233   -0.0430142957    0.8612085630
 H   -0.6273419745   -0.6464486494    0.3055780869
 H   -0.8972709909   -1.0505138114   -2.1024373348
 H    0.4976080447   -2.6971241608   -1.1398585830
 H    2.8664540768   -2.8413743132   -2.4024249052
 H    3.5974767932   -0.4534783806   -3.2848547185
 H    1.8556472349   -0.3865502895   -3.7932049714
 H    2.6679109129    0.9367834257   -1.2318633476