16

 C    0.0002909625    1.5349317640    0.0658184485
 C   -0.0486254293    0.0410154794    0.0198757024
 C   -0.0437412787   -0.8060991536   -1.0697750166
 N   -0.0936103523   -2.0742727277   -0.5958606024
 N   -0.1444045433   -2.1305481690    0.7545208274
 C   -0.1081960011   -0.8564527181    1.1123392457
 O   -0.1501645004   -0.4388516228    2.4072123926
 C    0.1597650141   -1.3285803022    3.3921157011
 N   -0.0085827661   -0.9789923877    4.5905186769
 H    0.8611779787    1.8899482019    0.6422360337
 H    0.0722030629    1.9557387790   -0.9405633112
 H   -0.8937879327    1.9517111977    0.5417264104
 H   -0.0076326855   -0.5962215526   -2.1275636697
 H   -0.1199877256   -2.9326144489   -1.1170362021
 H    0.5422047206   -2.2766764875    3.0085222388
 H    0.2885861161   -1.7307082321    5.2099360044