20

 C   -1.6759890970   -1.1046142167   -0.7094714366
 C   -0.3686091490   -0.4376669415   -0.2288434864
 C   -0.0507332859   -0.8999274154    1.1248046113
 N    0.1953186424   -1.2773264820    2.1896577487
 C    0.8031062440   -0.6470966195   -1.2040211455
 C    0.6427073473    0.1271461430   -2.5008129871
 O    0.5135928720    1.5249099156   -2.2879830976
 C    2.2185263751   -0.7866233726   -0.6845393127
 C    1.5017101164   -1.9802257979   -1.2664697672
 H   -1.9829025179   -0.6866153645   -1.6705729411
 H   -1.5404331839   -2.1831793238   -0.8247386661
 H   -2.4820955174   -0.9328086820    0.0077164059
 H   -0.5354376601    0.6450220973   -0.1667842830
 H    1.4918336409   -0.1042032160   -3.1616760052
 H   -0.2670032098   -0.1696272242   -3.0325693922
 H    1.3140859261    1.8252985105   -1.8434250589
 H    3.0156184311   -0.3363867889   -1.2682720229
 H    2.3838599390   -0.7733457384    0.3863371456
 H    1.1814643823   -2.7517148708   -0.5743996186
 H    1.8124759146   -2.3519896522   -2.2371689102