23

 C    0.0273449440    1.4618337648   -0.1491960634
 C   -0.0034090398   -0.0585209676    0.0228462465
 C   -1.4286160050   -0.6252708190    0.0598615263
 C   -1.4687094025   -2.1219593165    0.1521020028
 C   -0.7995673467   -3.0849610150    1.1707670461
 C   -1.3726479371   -3.9189779318   -0.0037054173
 C   -1.1723969400   -5.3643362468   -0.3365493479
 C   -2.6792650577   -3.0860358251    0.0639992686
 O   -0.8223678749   -2.9036451596   -0.9429477855
 H    1.0546733063    1.8385063577   -0.1699060035
 H   -0.4567274010    1.7646824930   -1.0843646578
 H   -0.4957620362    1.9667703619    0.6709801632
 H    0.5434182920   -0.5417787446   -0.7941932026
 H    0.5192342935   -0.3354834920    0.9469911495
 H   -1.9816978102   -0.2103540653    0.9131930939
 H   -1.9743539442   -0.3224541622   -0.8435214442
 H    0.2897880322   -3.0383728199    1.2130290151
 H   -1.2614569459   -3.1948612918    2.1562462081
 H   -1.6218088488   -5.9974480385    0.4350806028
 H   -1.6377999298   -5.6059069375   -1.2970153816
 H   -0.1054952822   -5.5995746050   -0.3991790116
 H   -3.3180583645   -3.1963330771    0.9450607228
 H   -3.2429438515   -3.0349506720   -0.8694465504