14

 N    0.1486506063    1.4306496116   -0.0202881770
 C    0.0486955541    0.0143884582    0.0201067461
 C   -0.4554113245   -0.6892249864    1.2647523308
 C   -0.9910604522    0.0656300658    2.3587211444
 N   -1.4530155012    0.6744195636    3.2271686829
 C   -1.3012462262   -0.7062332699   -0.0388376827
 O   -2.3896924997    0.1447690484   -0.1109122716
 C   -1.4182852537   -1.9682140544   -0.7277156401
 N   -1.4943178026   -2.9831904294   -1.2781322539
 H    0.2368353044    1.7513319928   -0.9791508697
 H   -0.6780222273    1.8685908006    0.3738937018
 H    0.8674023454   -0.4959148756   -0.4759129057
 H    0.0362032622   -1.6152395035    1.5419250087
 H   -3.0936218951   -0.1794059419    0.4652416059