20

 C    0.3877161668    1.3131686577    0.0008073896
 C    0.0541509697   -0.1411758895    0.1320032887
 C    1.0123081427   -1.2701194664   -0.1231355211
 C    0.3280951501   -1.1703520690    1.2293556888
 C    1.0628949019   -1.0761943946    2.5444004161
 O    2.3045554174   -0.3912449955    2.4436567547
 C   -1.1036923868   -1.6098157293    1.0564357974
 C   -2.0395525544   -0.4675518048    1.1734687156
 N   -1.3269983790   -0.6448966173   -0.1062786510
 H    1.3894402395    1.5063785716    0.3931383570
 H    0.3540978352    1.6279100689   -1.0483058273
 H   -0.3178228545    1.9367057131    0.5605280305
 H    0.7460910446   -2.0604474414   -0.8201665452
 H    2.0580233057   -0.9776839107   -0.1397004571
 H    0.4661425546   -0.5054096551    3.2650555870
 H    1.1999926260   -2.0829544577    2.9723359522
 H    2.9236501098   -0.9743851208    1.9940929995
 H   -1.4514928508   -2.6372674711    0.9938762177
 H   -3.1020888896   -0.6801484050    1.0996459650
 H   -1.7855341390    0.3782020171    1.8082357919