19

 O   -0.1054267367   -0.0017064886   -0.2017780428
 C   -0.0831377059    1.1757769483   -0.0135041943
 C   -1.0854633145    2.2532562136    0.4187707833
 O   -0.0276051719    3.2314413549    0.3874121827
 C    0.9824896357    2.2840707665   -0.0563157568
 C    2.1631874486    2.1520345265    0.8803702486
 C    3.3068699952    1.1790100681    0.4726805253
 C    4.3270068791    2.2196523847    1.0098253433
 C    3.2132355349    3.2993162795    0.9303387078
 H   -1.8850760884    2.4587434631   -0.3049699278
 H   -1.5247745375    2.1228770342    1.4159132314
 H    1.3223293068    2.5179110852   -1.0768397482
 H    1.8004947417    1.9229318322    1.8880147881
 H    3.2994658079    0.1810145029    0.9146611756
 H    3.3714305997    1.0735417281   -0.6150546655
 H    4.6146689958    2.0085425696    2.0435756796
 H    5.2349618834    2.3851019543    0.4257981539
 H    3.2461137619    3.8478841701   -0.0164864064
 H    3.1318019043    4.0201855269    1.7460134520