21

 C   -0.1315634931    1.2350656104    0.5674084227
 C    1.1778333659    1.6938296962   -0.1450768900
 C    1.4442029059    0.2320446134   -0.6037808696
 C    0.1294727387   -0.2286165723    0.1116716926
 C   -0.4557018070   -0.6925821320   -1.2600465570
 C   -1.5452128921    0.1413631700   -1.9354124717
 O   -0.8804674191    1.2750424230   -2.4899108940
 C    0.3770245377    0.8149683244   -2.9814669655
 C    0.8608010725   -0.2312582054   -1.9764812582
 H   -0.0998916447    1.3501226514    1.6538422383
 H   -1.0503669490    1.6995483524    0.2051205447
 H    1.0469431689    2.4344139595   -0.9360277079
 H    1.9413591774    2.0652257268    0.5431643302
 H    2.4235040738   -0.1815628512   -0.3574020987
 H    0.1216755128   -0.9880533018    0.8952525324
 H   -0.6743690029   -1.7615696171   -1.2970950809
 H   -2.0322462157   -0.4452811862   -2.7319968224
 H   -2.3217452968    0.5107417160   -1.2594779513
 H    0.2552208969    0.3563195498   -3.9768086435
 H    1.0310378516    1.6856473932   -3.0840080037
 H    1.4499026083   -1.0171786506   -2.4531469064