16

 O    0.3716653901    1.5424489352    0.0464714978
 C    0.0974888697    0.1720433196   -0.0295753761
 C    0.4026689392   -0.3982603148   -1.3467581165
 C    0.6555406542   -0.8728982234   -2.4211425452
 C    0.8891828929   -0.5873473676    1.0571756245
 O    1.6168197713    0.0449909612    1.7967503582
 C    0.7129330310   -2.0554516697    1.1699137549
 C    1.9665133902   -2.8656451956    1.3358214607
 N    1.0602633565   -2.6840587444    2.4565562513
 H    1.0555907076    1.6242832019    0.7324142240
 H   -0.9710699543   -0.0069775580    0.1844856465
 H    0.8748231142   -1.2809388385   -3.3771663351
 H   -0.1286346915   -2.4893915276    0.6404926507
 H    1.9904110366   -3.8622975119    0.9057738134
 H    2.9062079021   -2.3210501215    1.3264921296
 H    1.4282001104   -1.9496550248    3.0618799512