16

 O   -0.1723172597   -0.0587548747    0.0313858376
 C    0.0059589434    1.1298024544   -0.0083755581
 C    1.3573308793    1.7917693892   -0.2285835602
 C    1.3124847448    2.8318968176   -1.3022120523
 C    2.2460571368    4.0284108394   -1.5571730317
 C    1.9216868273    3.9326226681   -3.0679607443
 C    1.0161842879    2.7797369338   -2.8297281832
 N    0.4565433219    4.1788696471   -2.8164681630
 C    0.7730743125    4.2452250188   -1.3237427691
 H   -0.8368780374    1.8474498877    0.1174013151
 H    1.6394285026    2.2762510972    0.7184391516
 H    2.0968266448    1.0110105653   -0.4359830496
 H    3.1126535715    4.3412867609   -0.9921590354
 H    2.4241284531    4.2835838634   -3.9610445153
 H    0.6335966573    2.0094591133   -3.4891657793
 H    0.2239558439    4.8357197986   -0.6005568727