29

 C    0.0858684400    1.5923378067    0.0237711716
 C   -0.0141397285    0.0549751396    0.0385117924
 C    0.8420160148   -0.4818664664    1.1989951404
 C   -1.4878860705   -0.4961715972    0.0136428647
 C   -2.2555688116   -0.0390873422    1.2731952148
 C   -2.2127126149    0.0718942891   -1.2259666140
 C   -1.4740561469   -2.0691156198   -0.0310263136
 C   -2.8727447004   -2.7144085277    0.0003793930
 C   -0.6864291676   -2.6611358062   -1.2130119459
 H    1.1364466118    1.8903783505   -0.0594025740
 H   -0.4456737431    2.0423546502   -0.8179904688
 H   -0.3003447141    2.0399935186    0.9454527354
 H    0.4535213695   -0.2844505558   -0.8938691208
 H    0.4299268670   -0.1930809136    2.1718989782
 H    0.9404277082   -1.5700973141    1.1877023193
 H    1.8531062186   -0.0651264692    1.1408031634
 H   -2.1635435592    1.0398580300    1.4249981937
 H   -3.3238114260   -0.2541390285    1.1861827447
 H   -1.8927456066   -0.5365761893    2.1784926004
 H   -1.6348505917   -0.0771075866   -2.1438902392
 H   -3.1895296262   -0.3991848108   -1.3657510525
 H   -2.3933462009    1.1450195505   -1.1223814636
 H   -0.9730692434   -2.3953189957    0.8886815312
 H   -3.4449492061   -2.5038918391   -0.9091894220
 H   -2.7726241000   -3.8028492243    0.0691619360
 H   -3.4689111381   -2.3896438883    0.8563771502
 H   -1.1203678090   -2.3674149931   -2.1748766155
 H    0.3649227476   -2.3632994289   -1.2160472509
 H   -0.7124736027   -3.7550706687   -1.1683946086