17

 C   -0.0824893961    1.5139301010   -0.1890735723
 O    1.2594654885    1.6281712279    0.3502000670
 C    1.4129600794    0.1850777449    0.4554214927
 C    1.8039666414   -0.3286241928    1.8459602671
 C    0.9787026412   -1.5317850385    2.2570962025
 C   -0.2530905389   -1.7933308951    1.8097557312
 C   -0.9276673639   -0.8815710373    0.8498869912
 O   -0.6273145794   -1.0569834399   -0.5739634759
 C   -0.0599851112    0.0245662021    0.1154157420
 H   -0.8035022288    2.1370776858    0.3514316244
 H   -0.1202417748    1.7514947512   -1.2601902492
 H    2.0881717901   -0.1956350954   -0.3215040351
 H    2.8690432330   -0.5764810413    1.8917715174
 H    1.6483883596    0.4862253681    2.5654957863
 H    1.4365504845   -2.2072832396    2.9754615969
 H   -0.7923134379   -2.6709731529    2.1537070775
 H   -1.9681524668   -0.6205317683    1.0334339562