21

 O    0.0220385601    1.3975812640    0.5803869551
 C    0.0217133400    0.0529864231    0.0944252227
 C    0.7321157214   -0.9246524385    1.0576235786
 C   -0.3106961069   -1.2555894284    2.1304847153
 C   -0.6423739869   -0.1509351095    3.1795135146
 C   -2.0810514501   -0.0216355589    2.6037638021
 C   -1.7213762183   -1.0224655576    1.4672656992
 O   -2.5916156303   -2.1206130666    1.2904383264
 C   -1.4333999216   -0.4289318517    0.0787802551
 H    0.9385303961    1.6782734501    0.6682359672
 H    0.4662290498    0.0248482115   -0.9105979988
 H    1.0066721994   -1.8314623074    0.5047930098
 H    1.6597613810   -0.5005103332    1.4610106873
 H   -0.1738119852   -2.2489651551    2.5649922721
 H   -0.5877778882   -0.4759522179    4.2212986847
 H   -0.0467014521    0.7540735334    3.0627272039
 H   -2.8560492079   -0.4189991810    3.2680426513
 H   -2.3841021771    0.9764912502    2.2803398144
 H   -2.8365856199   -2.4513284991    2.1605443574
 H   -2.1159576424    0.3775792369   -0.2002568069
 H   -1.5446402407   -1.2381185544   -0.6496756514