17

 C    0.0114668192    1.5632201258   -0.1592760489
 C    0.0309557087    0.0484874388   -0.0007661887
 C    1.3433520423   -0.7169251792   -0.1293572640
 C    0.6654045509   -0.6441764832    1.2055827730
 C    1.2590755509    0.1304447232    2.3551257456
 O    2.2081375355   -0.7206645357    2.9808486663
 C   -1.1442782816   -0.6010649443   -0.5314770557
 N   -2.0933718701   -1.1073086202   -0.9580845906
 H    0.9505156665    2.0059568564    0.1780659690
 H   -0.1253173842    1.8301990144   -1.2111910398
 H   -0.8071382411    2.0115926832    0.4115565745
 H    1.3403496172   -1.6579357986   -0.6655853704
 H    2.2284705740   -0.1082050090   -0.2822822212
 H    0.1601873120   -1.5505346416    1.5245150837
 H    1.7341241200    1.0556163021    1.9969035811
 H    0.4611554621    0.4211085407    3.0563083011
 H    2.5181634374   -0.2864528828    3.7812997649