17

 O    0.3138707150    0.0819096377    0.3453679379
 C    0.1551268527    1.1771495405   -0.0989294567
 O   -0.9945769382    1.8692587145    0.0871017362
 C   -1.3272151851    2.8733383655   -0.8923115939
 C   -0.2432615141    3.9280842619   -0.9754762366
 C    0.0393864511    4.7377079561    0.3248930313
 C    1.3503818265    3.9280909212    0.5417124973
 C    1.1405590932    3.2382132347   -0.8316716842
 O    1.1103872595    1.8054870057   -0.8269162387
 H   -1.4693031567    2.3843650974   -1.8637323803
 H   -2.2857097685    3.2834800253   -0.5660013838
 H   -0.3779307747    4.5247280086   -1.8812147265
 H    0.1999424489    5.8017488650    0.1423924586
 H   -0.7119571697    4.6298010343    1.1104383015
 H    2.2709540867    4.5075247728    0.6333205437
 H    1.3019094701    3.2225456345    1.3742087299
 H    1.8778150135    3.4925492643   -1.5927404559