18

 O    0.2753283688   -0.0420820771    0.4255859429
 C    0.1759397257    1.1011554703    0.0711002680
 C    1.3541203695    2.0509473790   -0.1045462570
 C    1.2112604386    2.9033014777   -1.3867537039
 C    1.2435235389    2.1113588744   -2.6147027416
 N    1.2707688519    1.4721128922   -3.5767982669
 C    1.4298737870    2.9522456665    1.1204911646
 C    2.0591963486    2.4428075957    2.3903061623
 C    2.7633440685    3.4976796496    1.5750292724
 H   -0.8219549967    1.5666575795   -0.1134895399
 H    2.2579572463    1.4369264762   -0.1622970608
 H    0.2700442686    3.4664563677   -1.3589840884
 H    2.0179480878    3.6428332219   -1.4191673347
 H    0.5749643719    3.6145940501    1.2380197958
 H    1.6111087702    2.7319178626    3.3338874054
 H    2.4639514081    1.4366815048    2.3798217580
 H    3.6469949445    3.2015548968    1.0191439793
 H    2.7976058818    4.5114384621    1.9576677845