19

 O    0.2635464520    0.5704914557    1.0531014410
 C   -0.0661089690    0.3612624290   -0.3152286400
 C   -1.4287809916   -0.2985488901   -0.3523093667
 C   -1.9336865873   -0.9856010357   -1.6448355123
 C   -1.0246757839   -2.2340198701   -1.3572568021
 C   -1.8257455716   -3.4603547559   -1.7755517679
 O   -3.1425079528   -3.0917642162   -1.3311211186
 C   -2.9180746067   -1.8173137070   -0.7668498716
 C   -1.5856639526   -1.7888123039    0.0401461712
 H    1.1031174291    1.0377088817    1.0921994327
 H   -0.1119878670    1.3176904403   -0.8617367969
 H    0.6920548397   -0.2607324861   -0.8133677227
 H   -2.1583081413    0.3661221218    0.1255823978
 H   -2.1394452196   -0.5342319137   -2.6170158247
 H    0.0427791680   -2.2177929382   -1.5695397232
 H   -1.8285111434   -3.6307252107   -2.8595869201
 H   -1.5028533038   -4.3818075856   -1.2748061535
 H   -3.8410399818   -1.3920899424   -0.3746952053
 H   -1.3867728965   -2.2544896330    1.0052538927