19

 C    0.3196222027    1.1099978942    0.3336419706
 N    0.2032945026   -0.2682783731   -0.1385068883
 C    0.6756684661   -0.4951381309   -1.4970032027
 C    2.2411696402   -0.4449021459   -1.7163090706
 C    2.2794890239   -1.9769201933   -1.5335092719
 O    2.6095590816   -2.2605784452   -0.1807827178
 C    0.7526973745   -2.0248814323   -1.8113381574
 C   -0.1041082812    0.3020784611   -2.4470270756
 N   -0.6886101220    0.9219968862   -3.2283088017
 H    1.3390606293    1.5270926839    0.2801782130
 H   -0.3396540246    1.7553991913   -0.2545029131
 H   -0.0107167347    1.1516770839    1.3746421656
 H    0.7370533483   -0.8860735509    0.4658156290
 H    2.5162092212   -0.1393470613   -2.7275757150
 H    2.8112864867    0.1333301091   -0.9872414241
 H    2.9204892942   -2.5405640243   -2.2208390291
 H    2.4775567865   -3.2031670783   -0.0318257737
 H    0.1416528128   -2.6563858811   -1.1616626265
 H    0.5244679217   -2.2401960831   -2.8569490306