17

 C    0.4316471890    1.6265755857   -0.1330095340
 C    0.0976010054    0.1295236644    0.0400177513
 C    0.4370672899   -0.6058871131   -1.1815294342
 N    0.7297991653   -1.1781302496   -2.1425552124
 C    0.7994055012   -0.4821929869    1.2725036666
 C    1.1832187501   -1.9263464214    1.2903610541
 N    2.2186314125   -0.8911339736    1.1852650283
 C    0.4067522515    0.1507632207    2.5090403735
 C    0.0345187166    0.6751326368    3.5245883737
 H    1.5026401432    1.7680411041   -0.2998361556
 H   -0.1099835937    2.0450474072   -0.9841509318
 H    0.1460404041    2.1669158615    0.7714414091
 H   -0.9837143512    0.0269595990    0.1937353619
 H    1.1612061646   -2.4562256814    2.2370858326
 H    0.9484112707   -2.5228323344    0.4136743680
 H    2.5320572680   -0.8215457967    0.2178171945
 H   -0.2739123773    1.1322537677    4.4324774844