15

 O    0.0137901425    1.3595379033    0.1589904341
 C    0.0362298237   -0.0473600173    0.0322401462
 C   -1.4056294968   -0.5683953080   -0.1420147014
 C   -1.2519269069   -2.0518738795   -0.5128892657
 C   -1.4331432034   -1.8329007621   -1.9666450030
 C   -1.3174803977   -0.3084773105   -1.7026310753
 C    0.2025386959   -0.5249715639   -1.4286580051
 N   -0.0484372927   -2.0216270449   -1.4322293632
 H    0.9068179348    1.6872785174    0.0113518137
 H    0.6649696488   -0.5260539167    0.7959857090
 H   -2.2260813038   -0.2422814466    0.4929714206
 H   -1.3916016040   -2.9377583533    0.0931699226
 H   -1.8535077350   -2.4489848684   -2.7519348882
 H   -1.7824900768    0.5243360311   -2.2191890583
 H    1.0283419813   -0.2171659407   -2.0704496062