19

 C   -0.1463123402    1.6812900116    0.0639042609
 C   -0.1376836250    0.1506649570    0.0296137921
 C    0.7279602741   -0.4462849886    1.1447719978
 C    0.7160138134   -1.9878565570    1.1843385350
 O   -0.6012068481   -2.5372451975    1.1491051954
 C    1.4131731186   -2.5998997299   -0.0552320823
 O    2.2485632014   -2.0408423092   -0.7087015285
 C    1.4542776870   -2.4911390496    2.3479377420
 C    2.0470356077   -2.9160050875    3.3043080952
 H    0.8631521609    2.0878323562   -0.0615824032
 H   -0.7712838612    2.0897377502   -0.7360955550
 H   -0.5376313864    2.0566692912    1.0163154473
 H   -1.1584265908   -0.2335336722    0.1248722014
 H    0.2358091498   -0.1910299566   -0.9418670246
 H    1.7698258397   -0.1298517151    1.0285632981
 H    0.3891280729   -0.0801936535    2.1216713605
 H   -0.9639215794   -2.4957002983    2.0402845517
 H    1.0597203103   -3.6299443324   -0.2699044084
 H    2.5746613453   -3.2867157789    4.1488262046