11

 O   -0.0366328327    1.2606300581    0.0099775289
 C    0.0410731261   -0.0634692485    0.0024396683
 N    1.1417071948   -0.7706596853   -0.0085804628
 N    0.6354581428   -2.0524799982   -0.0122281841
 N    1.1307903432   -3.3057058165   -0.0227068843
 N    0.0728498611   -4.0669517711   -0.0183923416
 N   -1.1081799407   -3.3653369247   -0.0077718523
 C   -0.7046664580   -2.1157514485   -0.0037382574
 N   -1.1197666464   -0.8026717522    0.0057759693
 H    0.8640196891    1.6133496493    0.0060449962
 H   -2.0598777891   -0.4463245624    0.0138993096