23

 C   -0.3172155364    1.3720331782   -0.1241626787
 C   -0.0284383012   -0.0935504677    0.1747383386
 O    0.4012114845   -0.7544508999   -1.0214104071
 C    1.6176117317   -1.4553886000   -0.7780372753
 C    1.6885888529   -1.6875871636    0.7428659148
 C    0.7822137391   -2.8652172187    1.1439658175
 C    3.1158125586   -1.9257754718    1.2428840588
 C    1.0718405114   -0.3543847419    1.2315841972
 O    2.0934836612    0.6339327671    1.2241070870
 H    0.5879411221    1.8830838033   -0.4624598783
 H   -1.0664134490    1.4474636359   -0.9163305452
 H   -0.7132973734    1.8846805729    0.7610103866
 H   -0.9585738621   -0.5723989311    0.5174477731
 H    1.5976018443   -2.3897029668   -1.3502144737
 H    2.4766163580   -0.8584445057   -1.1163719025
 H    1.2060338665   -3.8068552494    0.7798623638
 H    0.6915341533   -2.9411509718    2.2328984478
 H   -0.2219962997   -2.7715145469    0.7217557736
 H    3.7671197381   -1.0840146858    1.0041970213
 H    3.1319741154   -2.0681372701    2.3287868814
 H    3.5314692778   -2.8309565630    0.7860602731
 H    0.6378978648   -0.4491232603    2.2375680777
 H    1.7008154222    1.4740119770    1.4787732184