13

 O   -0.0973294087    0.0854969441   -0.8277704668
 C   -0.0687918323    1.2143099613   -0.4231799936
 O   -1.1247706194    2.0766597501   -0.3465582458
 N   -0.7026113368    3.3224428856    0.1896995375
 C    0.5590486599    3.1729420357    0.4075832772
 N    1.0181799803    1.9334082152    0.0648616557
 C    2.3656186348    1.3819169749    0.1400540453
 C    3.0298444633    1.6929675483    1.3991865563
 C    3.5851426780    1.9733268088    2.4259016120
 H    1.1821150799    3.9458163960    0.8316027453
 H    2.2461900053    0.3013497062    0.0052881614
 H    2.9665128835    1.7460562651   -0.7028696202
 H    4.0768120022    2.2030994187    3.3395207257