21

 O   -0.1442783639    1.4919124764    0.0144809689
 C   -0.0031580442    0.0803769348   -0.0492151088
 C   -1.3918968194   -0.5357679701    0.0572363658
 C   -1.3673114912   -2.0648266169   -0.0028091159
 C   -2.7613998687   -2.6832095064    0.1060063938
 C   -2.7501951867   -4.2075876642    0.1171162444
 O   -1.7442301757   -4.8542316090    0.2683286944
 C   -4.1165396679   -4.8624761742   -0.0765777540
 O   -4.0123121247   -6.2494135464    0.1048380653
 H    0.7313143374    1.8843693777   -0.0464412664
 H    0.4696916494   -0.2310489526   -0.9952730615
 H    0.6326967044   -0.2949504076    0.7693252929
 H   -1.8483911316   -0.1988007578    0.9965198484
 H   -2.0124842779   -0.1300899088   -0.7517969700
 H   -0.9011716176   -2.3975634354   -0.9382973131
 H   -0.7409225661   -2.4693026634    0.7995005111
 H   -3.2541972420   -2.3541500451    1.0331942172
 H   -3.4159472480   -2.3339154286   -0.7044939205
 H   -4.8238222835   -4.3896697423    0.6272187239
 H   -4.4626924020   -4.5903645966   -1.0899982892
 H   -4.8792827703   -6.6359787234   -0.0481201468