21

 C   -0.1391324238    1.5283283788   -0.1347231873
 C   -0.0566051108    0.0139927969   -0.2106403546
 O   -1.2802412119   -0.5210318592    0.2851120723
 C   -1.3745741105   -1.9007445185    0.1997035002
 C   -1.6859428440   -2.5805939579   -1.1103653261
 C   -2.7105339446   -2.5612491192    0.0081343417
 C   -2.7141354141   -3.7552287998    0.9404707838
 O   -1.3409108193   -3.9968541582    1.2551660107
 C   -0.6523391182   -2.7527551744    1.2393696572
 H    0.7855440651    1.9790167803   -0.5073430193
 H   -0.9739913800    1.8975299174   -0.7371944937
 H   -0.2926682859    1.8537815440    0.8980552197
 H    0.1028064114   -0.3194640677   -1.2469595034
 H    0.7916231234   -0.3556400900    0.3857286385
 H   -1.8904252315   -1.9294445223   -1.9529064246
 H   -1.1898612778   -3.5156862292   -1.3519871617
 H   -3.6054368767   -1.9622278077   -0.1069112585
 H   -3.2962482393   -3.5267227811    1.8478310129
 H   -3.1078504237   -4.6771969991    0.5001626843
 H    0.3970424529   -2.9697081833    1.0142227866
 H   -0.7059999309   -2.2353427999    2.2115887414