18

 C   -0.0343651166    1.4015132356   -0.0150167464
 N   -0.0149467548   -0.0508902340   -0.0291506705
 C    0.5623253633   -0.6438428430    0.9336788252
 N    1.2124753290   -0.1203026081    2.0570909658
 C    1.6824209713   -1.1800100350    2.8235964906
 N    1.4319237683   -2.3459990835    2.3602972918
 C    0.7081337394   -2.1193893066    1.1342451794
 C   -0.3897085500   -3.0752919412    0.7081961990
 C    0.8984393191   -3.0507344280   -0.0477147996
 H    0.9784181432    1.8356882101   -0.0339829483
 H   -0.5631853266    1.7691685760   -0.8978812906
 H   -0.5511383177    1.8067631740    0.8700841774
 H    1.3170934413    0.8555431709    2.2715783829
 H    2.2196115578   -0.9859165030    3.7452161162
 H   -0.5798593837   -3.9059057355    1.3772447543
 H   -1.2579860617   -2.6109617849    0.2541228146
 H    0.9120851998   -2.5696362579   -1.0193361597
 H    1.5986026888   -3.8643487456    0.0989352979