16

 N    0.0178701226   -1.1413989657   -0.0817016559
 C    0.0216328265    0.0149081636   -0.0367660906
 C    0.0195022659    1.4586306859    0.0043203356
 N   -0.4477561952    2.1861457139   -1.2030526624
 C    0.8366578566    2.9514612727   -1.2821950675
 C    1.3453677302    2.2893302704    0.0305124213
 C    0.9131995084    2.8821581078    1.3905649941
 N   -0.3832460726    3.5563249577    1.1828945489
 C   -0.3561268922    2.0969308781    1.3834217803
 H   -0.6016652881    1.5685103982   -1.9917638350
 H    1.4541928889    2.6993182447   -2.1502509738
 H    0.6810454004    4.0314184252   -1.2386116925
 H    2.3111437989    1.7885791771    0.0193623119
 H    1.5630324814    3.1505151700    2.2133400460
 H   -0.6629803002    3.9735154804    2.0695464173
 H   -0.9101783818    1.6220864101    2.1833413825