17

 C   -0.0323073047    1.5044057868    0.0422081145
 C   -0.0088129487    0.0143105297   -0.0198078340
 C   -0.0207515444   -0.7850665581   -1.0965233888
 C    0.0132447519   -2.1930152395   -0.6632604347
 O    0.0154842602   -3.2111698155   -1.2960109116
 O    0.0458713177   -2.1897683516    0.7210278239
 C    0.0341118946   -0.8572812489    1.1763033067
 C    0.8128981805   -0.5617711717    2.4355438987
 C   -0.6940316283   -0.5872504986    2.4710679053
 H    0.8551175225    1.8934643927    0.5551102915
 H   -0.0645040121    1.9391267777   -0.9588029250
 H   -0.9055927575    1.8639812292    0.5989933422
 H   -0.0501439289   -0.5016470518   -2.1382425088
 H    1.3433373727   -1.4031521682    2.8652685192
 H    1.3222430195    0.3925261553    2.5105235198
 H   -1.2312485887    0.3493376606    2.5707501997
 H   -1.1748968864   -1.4457512779    2.9246052913