20

 O   -0.0543142799    1.5073561257    0.3011980492
 C    0.0299757736    0.1152607565    0.1857408795
 C   -0.5413268249   -0.7567403671    1.2742690397
 C   -1.2571085038   -0.6215640933   -0.0602654793
 C   -2.5612081223    0.1281123158   -0.1456932265
 C   -3.1311945741    0.5690117758   -1.5260038680
 N   -4.4690732928   -0.0705709893   -1.2500280360
 C   -4.1839943599   -1.5090559527   -1.1141822040
 C   -3.8766026388   -0.6338088541    0.0339598445
 H    0.5594670270    1.7861588900    0.9884205135
 H    0.9184397185   -0.2420739842   -0.3349512297
 H   -0.0472211064   -1.6909498176    1.5180378985
 H   -0.9877553542   -0.2434584862    2.1202318494
 H   -1.1774115639   -1.4775016375   -0.7250541863
 H   -2.5232571080    0.9900620620    0.5223868565
 H   -3.2367937175    1.6491957460   -1.6378140845
 H   -2.6334538269    0.1655789783   -2.4151505763
 H   -5.0821119948   -2.1162155538   -1.0509071672
 H   -3.3859099007   -1.9482513072   -1.7101597044
 H   -4.4540932204   -0.6741216572    0.9529075914