16

 O   -0.0331712665    1.3532056325    0.2532231253
 C    0.0289896565    0.0193169743    0.0099210769
 C    0.0394412065   -0.7334801257   -1.1390590745
 C    0.1232918189   -2.1044998956   -0.7232256714
 C    0.1541421042   -2.1251029515    0.6484932214
 N    0.0992505192   -0.8142845579    1.0864886733
 C    0.1719599038   -3.2888465106   -1.6044720401
 C    1.3156252835   -4.2225247160   -1.6196542638
 O    0.0953226647   -4.5676059227   -0.9652476027
 H   -0.0982766643    1.8112571709   -0.5898451353
 H    0.0032482106   -0.3603012145   -2.1511772135
 H    0.1832622731   -2.9525774078    1.3357085147
 H    0.0761983274   -0.5037329411    2.0419471040
 H   -0.4140384368   -3.2172746782   -2.5225245807
 H    1.5422175691   -4.7964434815   -2.5182896984
 H    2.1585756501   -4.0231133246   -0.9601204951