19

 C    0.0380039221    1.5302470725    0.0347808262
 C    1.3251391989    0.7107849278    0.0295155625
 C   -0.0069069123    0.0395893057   -0.0371698333
 O   -0.4524832423   -0.7014111699    1.0960077639
 C   -1.1008839937   -1.8405607931    0.5223853602
 C   -2.4865425442   -1.4107884774    0.0041575112
 C   -2.0647468474   -0.6346643153   -1.2816621680
 C   -0.5281657915   -0.7854955834   -1.2082503093
 O   -0.3749488167   -2.1107989558   -0.6613829430
 H   -0.2568502133    1.9893849403    0.9716798443
 H   -0.2132710234    2.1060352631   -0.8508585072
 H    1.9489594291    0.7289326855   -0.8582433064
 H    1.8649634378    0.6301774616    0.9663992584
 H   -1.0503691182   -2.6776574175    1.2174547968
 H   -3.1046136669   -2.2820288249   -0.2263817844
 H   -3.0089281605   -0.7923243289    0.7358659047
 H   -2.4528395072   -1.1088721081   -2.1854832819
 H   -2.3790161201    0.4108719402   -1.2757040205
 H    0.0241877699   -0.6903849823   -2.1415316843