15

 O   -0.0045757495    1.3796525397   -0.1277699034
 C    0.0233318579   -0.0184809036   -0.0328896683
 C    0.0196080096   -0.6278069320    1.4048317762
 C   -1.4617983190   -0.2102943568    1.5077292534
 C   -1.4255380310   -0.6216482572   -0.0085836126
 C   -1.0565055292   -2.0741743206    0.1347582720
 N   -1.5073468462   -3.0879718281   -0.4576234836
 O   -0.0611383898   -2.0481582322    1.1000538288
 H    0.8953904886    1.7072262019   -0.0307223890
 H    0.7337784341   -0.4747554395   -0.7336830562
 H    0.7807178022   -0.4553659758    2.1636437311
 H   -2.0975992705   -0.7879019689    2.1808634391
 H   -1.5952051999    0.8613656313    1.6402504623
 H   -2.1887699714   -0.3614216280   -0.7353745997
 H   -1.0383691358   -3.9347510603   -0.1298403903