23

 C   -0.0169495915    1.4943163672    0.0559487789
 C   -0.0293209761   -0.0272787345   -0.1468057124
 C   -1.4049224696   -0.6034547146   -0.0109603648
 C   -2.0890997745   -1.0197131932    1.2564453937
 C   -1.9700159359   -2.0002839518    0.1034181991
 C   -2.9014992681   -1.5908694614   -1.0461446919
 C   -2.4959277425   -2.2238885736   -2.3718596815
 C   -4.4067750832   -1.6339915957   -0.8325743871
 O   -2.3837429963   -0.2144721572   -0.9880030043
 H    0.9894764180    1.9002156875   -0.0826975039
 H   -0.6835718130    1.9810563306   -0.6616926322
 H   -0.3558273157    1.7594142683    1.0625323675
 H    0.3638921911   -0.2695535836   -1.1417860403
 H    0.6275850449   -0.5134500947    0.5842183623
 H   -1.4317696609   -1.2393263380    2.0928279587
 H   -3.0452286401   -0.5841479268    1.5306755204
 H   -1.4720532735   -2.9580367736    0.1894559316
 H   -2.7888034814   -3.2794616891   -2.4019881660
 H   -2.9850263755   -1.7075200519   -3.2036126207
 H   -1.4139070908   -2.1612792633   -2.5145806255
 H   -4.6901716287   -1.2015146794    0.1292170710
 H   -4.9149716607   -1.0695606559   -1.6214137467
 H   -4.7678819662   -2.6672437153   -0.8674180859