20

 C   -0.1432547250    1.5579638194   -0.0417937610
 C    0.0360303909    0.0532597491    0.0471624356
 N    1.2449404071   -0.5617889780   -0.6741582799
 C    2.1145833042   -0.1728089327    0.5629337578
 C    3.1281189028   -1.2871553454    0.7010479358
 C    2.4011575696   -2.3818936096    0.4691403273
 C    1.0212085698   -1.8189342012    0.2171624638
 C    0.7629123327   -0.6376651416    1.2191543355
 C    0.4032486380   -0.7071913849    2.6808121348
 H    0.7250144180    2.1190843119    0.3131238641
 H   -0.3303268418    1.8521404787   -1.0798172430
 H   -1.0078116652    1.8712927717    0.5536262914
 H   -0.8906869330   -0.4442888635   -0.2674287270
 H    2.4488635182    0.8624278954    0.6082398508
 H    4.1825125462   -1.1781228588    0.9106806652
 H    2.6904632241   -3.4223530618    0.4361886130
 H    0.2035096067   -2.4708486850   -0.0958875684
 H    1.1460066519   -1.2948759828    3.2315586813
 H    0.3628972250    0.2927297554    3.1266615488
 H   -0.5762937201   -1.1768768163    2.8234616941