18

 C   -0.3157099243    1.4337117430    0.1694472721
 C    0.1279449820    0.0047995090   -0.0301074586
 O    1.3998114917   -0.0776515854   -0.8025722581
 C    2.0670813591   -0.4296795854    0.3358200547
 N    3.2725379413   -0.2991045171    0.6657040454
 C    3.3616344365   -0.5481947875    2.1218241881
 C    2.2515747753    0.2148079544    2.8672989001
 O    0.9163711400   -0.1340437733    2.4505200332
 C    0.8524370445   -0.6954632099    1.1644513410
 H    0.4555391376    2.0171011580    0.6784402733
 H   -0.5342306985    1.9034971373   -0.7932825395
 H   -1.2220900888    1.4557754133    0.7824817925
 H   -0.6313249903   -0.6054627631   -0.5248957704
 H    3.3044609239   -1.6218045178    2.3489779467
 H    4.3321538746   -0.1939043894    2.4804832666
 H    2.2956323547    0.0091914865    3.9413420190
 H    2.4055126285    1.2917590584    2.7134226825
 H    0.5729230723   -1.7541937409    1.2281547915