16

 O    0.0386770633    1.5270827198   -0.0523421177
 C    0.0228997519    0.1306000341    0.0347030046
 C    0.1259631344   -0.6021613937    1.3996941035
 C   -0.6214483075    0.1445790825    2.4918451620
 O   -1.8006715243    0.7626156196    1.9931213533
 C   -2.3804663520    0.1691392468    0.8385548560
 C   -1.3459481083   -0.5784750975    0.0127209411
 O   -0.7738157175   -1.6163186205    0.8636613493
 H    0.9076667262    1.8098536900   -0.3492120037
 H    0.6943674374   -0.3422197313   -0.6897682067
 H    1.0787053104   -1.0181794178    1.7400094082
 H   -0.8630375006   -0.5694438517    3.2947509227
 H   -0.0031291734    0.9459919262    2.9128407040
 H   -3.1722661650   -0.5430069536    1.1192004203
 H   -2.8303437988    0.9840641392    0.2605918457
 H   -1.7499302264   -0.9703247221   -0.9246612226