20

 O   -0.1170457455    1.4846579294   -0.1123052694
 C    0.0184519162    0.0942930768   -0.0473462598
 C    0.4105744774   -0.5562501555    1.3396079110
 C   -0.9279662613   -1.3071412465    1.3157097037
 N   -1.9560874075   -0.2281788836    1.2284585563
 C   -1.2839396800   -0.7169632308   -0.0072016455
 C   -1.2593035871   -2.6293222216    1.8977695022
 C   -0.1928648119   -3.6596134789    2.1860986647
 C   -0.8867189295   -2.9610188378    3.3260644810
 H   -0.8393953557    1.6948053532    0.4962490324
 H    0.6966436822   -0.2064390848   -0.8486091084
 H    1.2846324143   -1.2059001347    1.2553340727
 H    0.5460760338    0.1466363982    2.1652693027
 H   -2.8727955637   -0.6717307762    1.2734475947
 H   -1.8642563598   -1.1173732506   -0.8306822910
 H   -2.2124192818   -3.0260590658    1.5540202193
 H   -0.4319146079   -4.6992412429    1.9927032123
 H    0.8398692881   -3.3977724918    1.9858620437
 H   -0.3222232508   -2.2185960991    3.8796247515
 H   -1.5971719694   -3.5199813771    3.9245963856