12

 N   -0.0969278090    1.3118597891    0.0110016583
 C   -0.0029035116    0.0437556458    0.0033070283
 N    1.1180146689   -0.7874323815   -0.0069801405
 C    0.7780783618   -2.1372920514   -0.0129921113
 O    1.5321044664   -3.0730521060   -0.0220446765
 C   -0.7351413638   -2.1386418662   -0.0054980975
 C   -1.1678047576   -0.8661455368    0.0038963937
 C   -1.4951912432   -3.3332408441   -0.0085362539
 N   -2.1115185679   -4.3127009295   -0.0110613665
 H    0.8177718397    1.7673254326    0.0090670894
 H    2.0757707236   -0.4752290777   -0.0099262774
 H   -2.1833269373   -0.4993629943    0.0110200438