21

 C    0.0757349850    1.5253160993   -0.1900182846
 C   -0.0372935026    0.0462785621    0.1926964434
 C   -1.4537757164   -0.5009981415    0.0532634753
 C   -2.0664517853   -0.6757847430   -1.3911205079
 C   -2.2392765866   -2.1673598056   -1.0870215158
 O   -0.9238526989   -2.6845395519   -0.7922531094
 C   -1.6596015235   -2.0172512979    0.2554988217
 C   -1.8587066897   -2.8180891314    1.5095251062
 O   -2.1341483464   -4.1702267537    1.2135583941
 H    1.1046479790    1.8829782994   -0.0859153819
 H   -0.2301012880    1.6929988909   -1.2283934821
 H   -0.5602732202    2.1508873800    0.4464290157
 H    0.6308733697   -0.5569212721   -0.4317920978
 H    0.2992947861   -0.0882275073    1.2292874340
 H   -2.1485833590    0.0633370158    0.6861471453
 H   -3.0106888399   -0.1426630372   -1.5216732761
 H   -1.4028000813   -0.4555144711   -2.2313821607
 H   -2.9672495072   -2.8745805917   -1.4661162099
 H   -0.9667524668   -2.7150428727    2.1520481076
 H   -2.7107382483   -2.4220906892    2.0740608953
 H   -1.5248890596   -4.4072895613    0.5019492176