17

 O   -0.0722666303    1.3882571707    0.0494916057
 C    0.0109879502    0.0052827577    0.0117578889
 C   -0.2068187852   -0.8422390188   -1.2041605195
 C    0.9102480760   -1.7890312895   -1.2993965440
 C    1.6958477594   -1.7187865305   -0.2099842451
 C    1.0940278862   -0.7812483763    0.8271698350
 C    0.2610145691   -1.7476002794    1.6585077639
 C   -0.9937940663   -1.8221019003    1.1835972441
 C   -1.1999208824   -0.8500585725    0.1028777773
 H    0.6327507157    1.7452041634   -0.5027279787
 H   -0.7045084649   -0.4450005038   -2.0811264228
 H    1.0401802740   -2.4812695476   -2.1232083919
 H    2.5523819101   -2.3490140037   -0.0018409357
 H    1.7968432560   -0.1544496386    1.3821083021
 H    0.6943240336   -2.3886745034    2.4170365568
 H   -1.7479361209   -2.5313026360    1.5035306695
 H   -2.1771888502   -0.4492550612   -0.1370008956