23

 C    0.1709521963    1.5261801313    0.1156160865
 C    0.0428208779    0.0151854697   -0.0071932386
 C    0.6758805925   -0.5554734168   -1.2975550472
 C    1.1355739295   -2.0010674279   -1.0556930015
 C    0.1969204430   -2.6777360002   -0.0135301271
 C    1.0358363032   -1.9166493196    1.0586414224
 C    1.1781037652   -2.4618310019    2.4611713591
 C    2.2229725846   -1.9847101390    0.0545341885
 O    0.6147980715   -0.5548382954    1.1758009609
 H    1.2252682159    1.8197889766    0.1320977763
 H   -0.3162161181    2.0224376866   -0.7300256784
 H   -0.2971402663    1.8762477918    1.0398764055
 H   -1.0281132654   -0.2401547166   -0.0194542571
 H   -0.0661870849   -0.5036902496   -2.1028942387
 H    1.5337187066    0.0531250360   -1.6110051490
 H    1.3509220062   -2.5290207320   -1.9871933652
 H   -0.8800444117   -2.4982850794   -0.0624279662
 H    0.3783841326   -3.7534602403    0.0536273613
 H    1.5568677928   -3.4878771029    2.4402099168
 H    1.8739146640   -1.8452145967    3.0390673279
 H    0.2126183450   -2.4544756874    2.9768979156
 H    2.7617322476   -2.9342675529    0.1210315254
 H    2.9286753519   -1.1497054635    0.0754547331