19

 C   -0.1254916964    1.5152382908    0.0173820941
 C   -0.0383468915   -0.0109458738   -0.0203820625
 C   -1.3943274516   -0.6342694522   -0.3292158737
 C    1.1729559089   -0.5071341746   -0.8747251419
 C    2.0197322739   -0.6519605002    0.4144638122
 C    0.6997708265   -0.6130396719    1.2426799216
 C    0.6799794549    0.1284174132    2.4907820735
 N    0.6649027485    0.7396030311    3.4729899465
 H    0.8432710649    1.9759535598    0.2339405029
 H   -0.4670124312    1.8937171173   -0.9519889799
 H   -0.8301976903    1.8535643901    0.7834836300
 H   -1.7653109778   -0.2921724719   -1.3019829019
 H   -1.3354793279   -1.7274583689   -0.3601656777
 H   -2.1385065274   -0.3567226041    0.4258973316
 H    0.9715159606   -1.4736514701   -1.3454069751
 H    1.5433962057    0.1812609993   -1.6376195130
 H    2.6295031715   -1.5495839163    0.5268409384
 H    2.6438797476    0.2217845589    0.6101247692
 H    0.3370307010   -1.6276936465    1.4332963057