14

 O    0.2001641449    0.0167750059   -0.2655835999
 C    0.1872582275    1.2075573227   -0.2714756001
 O    0.9147357212    1.9474316464    0.5969843812
 C    0.8575994848    3.3661005801    0.4874982172
 C    2.2276002187    3.8889628445    0.0175847568
 C    2.2630949061    5.3389357351   -0.0447350862
 C    2.2601011532    6.5459310262   -0.0874613229
 C    2.2636629952    7.9105143934   -0.1388905868
 N    2.2641604813    9.0711742093   -0.1825204824
 H   -0.4104094282    1.8306471453   -0.9655519328
 H    0.0696707768    3.6728120206   -0.2105175852
 H    0.6160977245    3.7642217619    1.4760410924
 H    3.0000705323    3.5235283294    0.7044051944
 H    2.4581939517    3.4685374492   -0.9690215958