17

 C   -0.0888819238    1.4234071950    0.0645247881
 N   -0.0251586638   -0.0224598088    0.2147902228
 C   -1.2006761996   -0.7439827410    0.0751524275
 N   -2.3911102243   -0.1556087672    0.0891016430
 N   -3.2842711504   -1.2027363887    0.0042488383
 C   -2.6627766495   -2.3903834737   -0.0722331478
 O   -3.3343306864   -3.5502186466   -0.1620866731
 C   -1.3025208031   -2.1629062279   -0.0337243589
 N   -0.3474997084   -3.2158078569   -0.0736526197
 H    0.9096938445    1.8396337525    0.2197014670
 H   -0.4659205955    1.7447263964   -0.9175713266
 H   -0.7607597829    1.8334101493    0.8222087621
 H    0.7502039280   -0.4494478228   -0.2714891385
 H   -4.2707133078   -1.0182925995    0.0005163928
 H   -2.6504481600   -4.2371570939   -0.1704009482
 H    0.2686165161   -3.2101857383    0.7334202940
 H    0.2375808071   -3.1905417680   -0.9034147826