21

 C    0.1376791612    1.3387384962    0.1268887339
 O    0.0299547939   -0.0425810956   -0.1210274818
 C   -1.2934822552   -0.5475930727   -0.0204147559
 C   -1.3499814576   -1.9488891975   -0.6576990448
 C   -2.2797477388   -2.8032977876    0.2352765252
 C   -3.6890957827   -2.9718500206   -0.3491289069
 O   -1.6668459239   -4.0871543497    0.3932113680
 C   -2.2964303334   -2.0104063876    1.5299646365
 C   -1.7673728059   -0.7980704519    1.3968737623
 H    1.1819083056    1.6164907025   -0.0372411524
 H   -0.4970365173    1.9257954902   -0.5564765141
 H   -0.1344649685    1.6066659283    1.1591849397
 H   -1.9736187359    0.1567220749   -0.5317928433
 H   -1.6584182507   -1.9326503633   -1.7054138454
 H   -0.3461366927   -2.3758150968   -0.6012612947
 H   -3.6434753040   -3.5550585434   -1.2740718383
 H   -4.3449999760   -3.4966463256    0.3567885225
 H   -4.1484937027   -2.0024243782   -0.5653431082
 H   -2.2911390622   -4.6608399244    0.8505539891
 H   -2.7293237538   -2.4198867547    2.4381751462
 H   -1.6940348295   -0.0501899727    2.1786809622