25

 C    1.1325941310   -0.1679946036   -1.2759242495
 C    0.2103333372   -0.0342597051   -0.0588589709
 C    0.7530015151   -0.6147100989    1.2625088135
 C   -0.2024750263   -0.3105348577    2.4376709138
 C   -0.3387179658    1.1725446212    2.8008598800
 C    1.0001165379   -2.1232181112    1.1809500241
 C    2.2323593245   -2.6874808606    0.4312626054
 O    2.6098906201   -3.4922237962    1.5645611092
 C    1.6336622194   -2.8385743682    2.3986937526
 H    1.2888421973   -1.2111307028   -1.5660935199
 H    0.7037827456    0.3470407350   -2.1414608827
 H    2.1154048126    0.2759513621   -1.0826515908
 H   -0.0084795994    1.0286789127    0.0896585980
 H   -0.7548418040   -0.5117590461   -0.2794831814
 H    1.7177467485   -0.1289212209    1.4801653634
 H   -1.1933871605   -0.7255118440    2.2061716027
 H    0.1483744768   -0.8504439887    3.3256258595
 H    0.6391395444    1.6159438089    3.0204496838
 H   -0.7954650110    1.7573596194    1.9971800977
 H   -0.9653103813    1.2971440218    3.6895993683
 H    0.0804882857   -2.6280426565    0.8646854857
 H    2.0446713671   -3.2968679051   -0.4604114220
 H    2.9996876546   -1.9375111437    0.1940746808
 H    2.1089194535   -2.1578438575    3.1208741062
 H    1.0112532870   -3.5555308342    2.9461329025