23

 C    0.0243865445    1.5165921064    0.0416967553
 C   -0.0228660987    0.0030084227    0.0001762776
 C    1.2685068911   -0.7319738769   -0.2769936944
 C    0.6603829038   -0.7538162759    1.1162685312
 C    0.4463788248   -2.2745945067    1.3083010390
 C   -0.1534195325   -2.7388715983    2.6166824074
 C    1.8342001670   -2.7971101522    0.7724855383
 C    1.2741684640   -2.2420986231   -0.5822952866
 C   -0.1014011521   -2.7467686903   -0.0711778539
 H    0.9722191460    1.8731251073    0.4593868232
 H   -0.0764947660    1.9429470241   -0.9625414318
 H   -0.7839766015    1.9217254172    0.6604140320
 H   -0.9490508950   -0.3858077304   -0.4100839337
 H    2.1592381454   -0.1553802823   -0.5048142741
 H    1.0898673824   -0.1958455790    1.9430511330
 H   -1.1669302327   -2.3427317607    2.7479384190
 H   -0.2112798505   -3.8314180444    2.6656059653
 H    0.4455579841   -2.3978551292    3.4693822380
 H    2.7384951665   -2.3306264836    1.1751568440
 H    1.9215310690   -3.8879587779    0.7959486140
 H    1.6739297515   -2.5604171775   -1.5454917948
 H   -0.1655646137   -3.8368086025   -0.1133188738
 H   -1.0244916776   -2.3211806870   -0.4676462242