23

 C   -0.4453340108    1.5824261134    0.0760348869
 C   -0.0181944489    0.1115570027   -0.0184911956
 C    0.7600183341   -0.4387517606    1.1893958292
 C   -0.0117070600   -0.4838362304    2.5574282642
 C    0.5220814938   -1.9272787085    2.7778343532
 C   -0.4437961513   -2.9763324188    3.3056144341
 C    0.9315348745   -1.9792822516    1.2786583082
 C    2.0698232210    0.2932037574    1.3866325159
 O    3.1590005627   -0.2217297592    1.4445520700
 H    0.4066259960    2.2678555056    0.0523878805
 H   -1.0946292884    1.8437328697   -0.7649679814
 H   -1.0042306111    1.7766890435    0.9977687342
 H   -0.9146102518   -0.5103001159   -0.1320237831
 H    0.5752227943   -0.0450988211   -0.9290516353
 H    0.2393747113    0.2721702528    3.3080491409
 H   -1.0948638952   -0.4603930418    2.3949801514
 H    1.4200497088   -1.8996562623    3.4032931314
 H   -1.3514166204   -3.0191018693    2.6921067893
 H    0.0109178040   -3.9731315356    3.2966618133
 H   -0.7479489604   -2.7583154598    4.3356082415
 H    0.1912949582   -2.5037140246    0.6660771339
 H    1.9287858746   -2.3571134698    1.0489158974
 H    1.9647449749    1.3951839744    1.5103993202