19

 O    0.1699932998    0.2161999124   -1.0656124676
 C   -0.2756258474    0.2435121927    0.2895763096
 C   -1.5390832315   -0.6038043038    0.3939641208
 C   -1.3155950591   -2.1168275366    0.1848513057
 C   -2.6458045250   -2.9107625969   -0.0233108172
 C   -2.2826635107   -2.9207606679   -1.5284449889
 N   -0.8979819506   -2.5339965998   -1.1758067189
 C   -0.4299595592   -2.6350301246    1.2414965629
 N    0.2548368173   -3.0262780165    2.0869881802
 H    1.0643751348    0.5673871552   -1.1004648913
 H    0.4948704071   -0.1493582693    0.9678437787
 H   -0.5020756133    1.2738339633    0.6017301591
 H   -1.9882068667   -0.4451599722    1.3814286289
 H   -2.2607629237   -0.2560220708   -0.3540761792
 H   -2.6225042957   -3.8993491756    0.4349092874
 H   -3.5556672363   -2.3888211636    0.2755955757
 H   -2.3577297104   -3.8814511666   -2.0466771178
 H   -2.8378174339   -2.1700982197   -2.1064160224
 H   -0.4723361255   -1.7834618898   -1.7083786557