17

 C   -0.6001655950    1.0686689103   -0.1412054748
 O    0.4478392616    0.1435639107    0.1197102681
 C    0.9322637868   -0.5115842121   -1.0399660846
 C    2.3087043857   -1.0592966181   -0.7464175864
 C    2.4215820451   -2.3692520491   -0.9851865061
 C    1.1307624912   -2.9253702350   -1.4581115081
 O    0.9069367940   -4.0570304664   -1.8098221284
 C    0.0891325344   -1.7726838982   -1.4202526349
 O   -0.9345665855   -2.0343964447   -0.4845799136
 H   -0.2686091404    1.8502344474   -0.8393538021
 H   -1.4854819923    0.5688888377   -0.5516856512
 H   -0.8573468522    1.5311625191    0.8141422851
 H    0.9766220735    0.2054107341   -1.8739471213
 H    3.0927620999   -0.4047019056   -0.3821711712
 H    3.3097209582   -2.9777246826   -0.8684088411
 H   -0.3800447248   -1.6854935367   -2.4052430010
 H   -0.6463883003   -1.6333458707    0.3468872815