16

 C    0.0224607867    1.5338584399    0.0353322593
 C    0.0010321678    0.0379858360    0.0283850616
 C   -0.0241957975   -0.7716581182   -1.0972890190
 N   -0.0121564529   -2.0988321605   -0.6665621827
 C    0.0137440659   -2.1294779046    0.6939712131
 N   -0.0539507447   -3.3430116404    1.3762692527
 C    0.0296487177   -0.8236708224    1.1551785319
 C   -0.0397464297   -0.4343581000   -2.4613976701
 N   -0.0564392821   -0.1608711206   -3.5904237840
 H    0.9259039530    1.9180374446    0.5222215032
 H   -0.0070265915    1.9331174892   -0.9814955902
 H   -0.8354878361    1.9399342284    0.5827494681
 H   -0.1444400817   -2.8962359979   -1.2650126366
 H    0.6191387486   -4.0300961489    1.0568665494
 H    0.0406634888   -3.2191092043    2.3750798207
 H    0.0751985276   -0.5240935902    2.1913276726