18

 C    0.4310089854    0.6532115914    0.5267536669
 O   -0.2691890145    0.2465360692   -0.6423344244
 C    0.4682654114   -0.5461544728   -1.5382858995
 C    0.5275877483   -2.0267267175   -1.1354171962
 O    1.4743190232   -2.1795852356   -0.0960655448
 C    1.8140515091   -3.4423954640    0.2618290814
 N    2.6081269999   -3.6172614891    1.2232515221
 C   -0.8645185838   -2.5116688244   -0.7343791199
 O   -1.0998472717   -3.1284934823    0.2682357807
 H    0.6673001875   -0.1908124887    1.1819390422
 H    1.3666749736    1.1677663515    0.2642953351
 H   -0.2245684891    1.3523653274    1.0504465835
 H   -0.0430173396   -0.4749643020   -2.5049475282
 H    1.4966517592   -0.1777097960   -1.6644181851
 H    0.8297109746   -2.6084838141   -2.0251076156
 H    1.3599680402   -4.2154604439   -0.3692316160
 H    2.7827693957   -4.6111402414    1.3549223652
 H   -1.6551715792   -2.2635247175   -1.4758796877