17

 C    0.5029397058    1.3214488706   -0.5089673659
 C   -0.0781730045    0.0918793476    0.1819096025
 O   -0.2439916897   -1.0099846292   -0.7249664299
 C    0.9718731053   -1.7245164764   -0.8124923141
 C    1.7214862010   -1.4667366093    0.4950202328
 O    2.7824846899   -1.9176473287    0.8175085909
 C    0.8198561642   -0.4978575719    1.3026451139
 C    1.5290679124    0.4293505698    2.1564612017
 C    2.1222340897    1.1991482734    2.8629235054
 H    1.5155749021    1.1369339379   -0.8829940480
 H   -0.1318291205    1.6001250000   -1.3539706953
 H    0.5550942469    2.1614074119    0.1883052403
 H   -1.0780374530    0.3171793082    0.5608285289
 H    0.7611067141   -2.7906294784   -0.9449074229
 H    1.6005126338   -1.3960118773   -1.6545245359
 H    0.1835483372   -1.1552722324    1.9142671259
 H    2.6487680654    1.8758700341    3.4895034495