15

 N    0.5834984815    0.4969915631   -0.6809167513
 C   -0.1593813801    0.2190922290    0.4167462282
 O    0.0129140071    0.7356793167    1.5039482002
 C   -1.2597498960   -0.8154652670    0.2615314126
 C   -1.8126694103   -1.3903175329   -1.0080854075
 O   -1.2653339524   -0.9660549934   -2.2169696165
 C   -0.9824173302   -2.2874291149   -0.0972997243
 C    0.3022764401   -2.7110281430   -0.5730516987
 N    1.3113153406   -3.0836218438   -0.9992252794
 H    1.3166826132    1.1801701786   -0.5864799817
 H    0.3373526570    0.1278782323   -1.5852801666
 H   -1.9715339771   -0.7098455112    1.0713645964
 H   -2.8827368497   -1.5874357601   -1.0385652328
 H   -1.1357251847   -1.7325512429   -2.7879596140
 H   -1.5049912290   -3.0313575403    0.4944782155