21

 C   -0.0003775870    1.6483485459    0.0514163876
 C   -0.0993822004    0.1186952367    0.0172865620
 C    0.6984257145   -0.5521893020    1.1266104147
 C    0.6814206285   -2.1009496985    1.3127248733
 C    1.0011959487   -2.8919150996    0.0133634463
 C    2.4810976825   -2.4691365582    0.1428233415
 O    2.6860489404   -1.0947432149   -0.2601307817
 C    2.2466537792   -0.6081857252    1.0309108985
 C    2.2295266512   -2.0451249334    1.6183481480
 H    1.0377833606    1.9802756823   -0.0565216302
 H   -0.5774711294    2.1018808786   -0.7602297726
 H   -0.3810370841    2.0514144186    0.9968077319
 H   -1.1516220827   -0.1857558332    0.0947717458
 H    0.2637367122   -0.2465630762   -0.9492061157
 H    0.4493551359   -0.1030080738    2.0984717052
 H   -0.0683938169   -2.5164846010    1.9861400349
 H    0.9007882491   -3.9682537590    0.1913849721
 H    0.4818540979   -2.6319517311   -0.9127053719
 H    3.2710455495   -3.1243167185   -0.2303159990
 H    2.8485344155    0.2369405681    1.3718178825
 H    2.7418257247   -2.4029015355    2.5070412269