20

 C    0.1071039597    1.6057794533    0.0099634866
 C    0.0134743532    0.0931012168    0.0717069982
 O   -1.3393273574   -0.2938124891    0.1205689053
 C   -1.4920465770   -1.4661718263    0.9279525051
 C   -0.2936977341   -1.5106707876    1.9095197027
 C    0.7732230704   -0.6394846798    1.2347514881
 C    1.7046075091   -1.2598495700    0.1785969355
 N    0.8537014088   -2.0792044650   -0.7154447109
 C    0.9551410664   -0.6172326580   -0.9385595936
 H    1.1505682682    1.9312818649   -0.0445429745
 H   -0.4160091215    1.9814207712   -0.8755532732
 H   -0.3558023798    2.0524558277    0.8946587246
 H   -2.4557898068   -1.3798518510    1.4419551777
 H   -1.5026842768   -2.3575002732    0.2953061549
 H   -0.5703233856   -1.0802073632    2.8765292693
 H    0.0405345596   -2.5370094017    2.0792426640
 H    1.2923557660    0.0333008805    1.9193843076
 H    2.7642500778   -1.4612645342    0.2742886792
 H    1.4679419431   -2.5241023930   -1.3965876908
 H    1.3094625966   -0.2280183322   -1.8864693757