16

 C   -0.0720668150    1.5829372238   -0.0096127669
 C    0.0395555096    0.0622727391   -0.0290075425
 O    0.8343230957   -0.3705251085   -1.1165168386
 C    1.4239879872   -1.6342775086   -0.7692770297
 C    1.8000105680   -1.5066563422    0.7086727810
 C    0.7896880521   -0.4895017952    1.2307826487
 O    0.6039536554   -0.1281226533    2.3559720984
 C   -1.2953414374   -0.5786259995   -0.0792673073
 N   -2.3202926420   -1.1115855702   -0.1215784887
 H    0.9316935781    2.0138201303   -0.0242993577
 H   -0.6267186311    1.9387643879   -0.8798580905
 H   -0.5840786570    1.8958029087    0.9029785444
 H    0.7010906460   -2.4452236382   -0.9301908611
 H    2.2736661214   -1.7813989039   -1.4366389558
 H    1.7469160233   -2.4337978804    1.2829294038
 H    2.8034398857   -1.0865626599    0.8375119225