25

 C   -0.2276337093    1.5788126693    0.0189373440
 C    0.0377103651    0.0626760179    0.0351556517
 C    0.7642590900   -0.4436794802   -1.1898573233
 C    2.0486420681   -0.8098798117   -1.1441593106
 C    2.8495208401   -1.3499374661   -2.3065545724
 C    3.7497088370   -2.5144739939   -1.8655593716
 C    1.9292443302   -1.7540511000   -3.4691700506
 C    0.8496433650   -0.6965593807   -3.7150488577
 C   -0.0349662799   -0.5232671829   -2.4737091739
 H    0.7131562543    2.1363642750   -0.0270219805
 H   -0.8340312838    1.8769821537   -0.8421031590
 H   -0.7629524637    1.8893078284    0.9219521359
 H    0.6181780080   -0.1880341636    0.9299409056
 H   -0.9234982543   -0.4625932174    0.1300958428
 H    2.5823123163   -0.7312198103   -0.1967071179
 H    3.5145902213   -0.5460419901   -2.6633677783
 H    3.1498021139   -3.3499112749   -1.4875126692
 H    4.3531268298   -2.8830780955   -2.7020959857
 H    4.4342042411   -2.2075201804   -1.0674892887
 H    2.5234146525   -1.9226206681   -4.3747702588
 H    1.4485965844   -2.7121238372   -3.2263145866
 H    1.3304725882    0.2612229622   -3.9536236086
 H    0.2350262406   -0.9634945420   -4.5817947185
 H   -0.7440980716   -1.3622673611   -2.3970889447
 H   -0.6606789332    0.3715107095   -2.5815961131