20

 C   -0.7085662823    1.5189417893    0.0376288244
 C   -0.1082522715    0.1323253647   -0.0240034560
 C   -1.0923831145   -1.0755183795    0.1110160732
 C   -0.3154623812   -1.5821037985    1.3641209554
 C    0.7605911673   -0.5013878069    1.1295986809
 C    1.8370457565   -0.9086991259    0.0629459846
 C    1.0416185923   -0.1164723020   -1.0323047628
 C    3.1912713951   -0.4500266015    0.3154132346
 N    4.2615258619   -0.0635253857    0.5237326462
 H    0.0668087902    2.2876035840    0.1269124497
 H   -1.2885678461    1.7338264438   -0.8685032630
 H   -1.3848578858    1.6230059820    0.8935628561
 H   -2.1282855556   -0.7883978032    0.3067703467
 H   -1.0878440019   -1.7566866463   -0.7448302421
 H   -0.8684292752   -1.4190698755    2.2924251952
 H    0.0276923223   -2.6206846145    1.3524283360
 H    1.1368866608    0.0645041575    1.9818635592
 H    1.8625327274   -1.9884044649   -0.1119537416
 H    0.8001236871   -0.6741311945   -1.9409216045
 H    1.5564826133    0.8055021676   -1.3123037423