18

 C    0.7749972047    0.4863427776   -0.4204057360
 C   -0.3524516473    0.4603313501    0.5874395111
 O   -0.3532668680    1.1323542545    1.5912450426
 C   -1.5634701440   -0.4331816338    0.2770145554
 N   -1.1918914961   -1.6079133403   -0.5047400932
 C   -1.0744232896   -2.8796229536    0.1633513528
 C   -2.1807276331   -2.6451279639   -0.8328507900
 C   -3.5775526100   -2.6037536963   -0.3227260548
 O   -4.5167603000   -3.0485172187   -0.9344070606
 H    1.4944452327    1.2563939405   -0.1403681583
 H    1.2665854643   -0.4909696414   -0.4577390165
 H    0.3877947194    0.6688151986   -1.4281367938
 H   -2.0559802946   -0.6460614162    1.2348481618
 H   -2.2540212995    0.1759620901   -0.3224132068
 H   -0.2393128024   -3.5127587872   -0.1229786647
 H   -1.3585560205   -2.9363854592    1.2144901927
 H   -2.0924868986   -3.0571848320   -1.8346538169
 H   -3.7080448974   -2.1433604087    0.6810743152