16

 C   -0.3727178388    1.1994012708   -0.2353772599
 O   -0.2115415364   -0.2058485835   -0.3416384090
 C    0.9434192442   -0.5889903334   -1.0325566930
 C    0.9871452446   -2.1128971705   -1.0419756912
 C    0.2299925734   -2.4567492016   -2.3244805179
 O   -0.2176811211   -3.5218826063   -2.6508665877
 C    0.1477418477   -1.1552400619   -3.1283302828
 O    0.9069690992   -0.1992096779   -2.4034450284
 H    0.4706384603    1.6548230144    0.3048672669
 H   -0.4525887079    1.6705444748   -1.2215157147
 H   -1.2915720773    1.3723223015    0.3280020983
 H    1.8294147971   -0.0964757357   -0.6112175510
 H    2.0177848393   -2.4717568682   -1.1336050735
 H    0.5290544598   -2.5674348283   -0.1637618547
 H    0.5767159769   -1.2760285078   -4.1275012055
 H   -0.9047781108   -0.8582239966   -3.2349876759