16

 C   -0.0705598576    1.3598899200   -0.2088664124
 N   -0.0373839134   -0.0470984084    0.1057027707
 C   -1.0824237839   -1.0599162132    0.0803578748
 C   -1.5716409921   -1.5482852231   -1.3312297208
 O   -0.4713011077   -1.4245091669   -2.2299983097
 C   -0.5110699040   -2.5671107011   -1.3707271123
 C    0.0347359849   -2.1430911752    0.0235187770
 C    1.0159754463   -0.9407602048   -0.0118932046
 O    2.2000870150   -0.7709136992   -0.1104217530
 H    0.9615682575    1.7177811373   -0.2284724351
 H   -0.5232772621    1.5393768772   -1.1920160787
 H   -0.6273547475    1.9232437029    0.5475473741
 H   -1.8319673839   -1.0200457440    0.8715456078
 H   -2.5710829379   -1.5322265627   -1.7504013388
 H   -0.4720668645   -3.5436803984   -1.8369075996
 H    0.1426917510   -2.9150664104    0.7813216808