21

 C   -0.0454514430    1.3983128857   -0.0810899184
 O   -0.0209762768    0.0229771764    0.2173057153
 C   -1.2729197720   -0.6051635123    0.0907431354
 C   -1.7243052304   -0.8931971028   -1.3853833378
 C   -1.8604478515   -2.4335899363   -1.3995444706
 C   -0.4512519823   -3.0269849365   -1.2370572777
 O   -0.0982829368   -2.7258973046    0.1252636026
 C   -1.2131854547   -2.0292836916    0.6848113071
 C   -2.4207176884   -2.7022652174    0.0171015270
 H    0.9645659441    1.7830596128    0.0805015760
 H   -0.3330096372    1.5960804465   -1.1251641439
 H   -0.7428886649    1.9453979529    0.5739651237
 H   -2.0377881111   -0.0151518372    0.6222026640
 H   -2.6758432104   -0.4081193513   -1.6218776847
 H   -0.9750477670   -0.5350907235   -2.0973188702
 H   -2.4200054227   -2.8418782008   -2.2421822491
 H   -0.4337003527   -4.1151860159   -1.3848911286
 H    0.2797476017   -2.5719041599   -1.9166505925
 H   -1.1290825766   -2.0674490041    1.7709969062
 H   -3.3735259133   -2.2014352646    0.2095015777
 H   -2.5015073641   -3.7611050057    0.2740745186