16

 C   -0.0385886070    1.5041094238   -0.0283385608
 C   -0.0110146097    0.0003855464   -0.0022750549
 N   -0.0273417629   -0.6296999737   -1.1794908099
 C   -0.0034131831   -1.9652999258   -1.1947652474
 C    0.0378215325   -2.7480588291   -0.0464183665
 C    0.0550664537   -2.1046168558    1.1824195049
 C    0.0307015613   -0.7057961725    1.2242979929
 C    0.0476228756   -0.0153132533    2.4683042425
 C    0.0619928244    0.5684512327    3.5220993740
 H    0.8479243193    1.9228759039    0.4602624118
 H   -0.0764277360    1.8478773450   -1.0623286739
 H   -0.9068471863    1.8920324333    0.5151727092
 H   -0.0181496813   -2.4297000304   -2.1780048166
 H    0.0557960862   -3.8296744043   -0.1144080886
 H    0.0870188788   -2.6649704785    2.1101482658
 H    0.0746461244    1.0838460483    4.4504681874