18

 C    0.0173334174    1.5869459909   -0.0256716848
 O    1.4034950115    2.0098871478    0.0737218745
 C    1.9547105128    0.9533369905    0.7656612907
 N    2.3829872977    1.0909847411    1.9449633198
 C    2.2631508743   -0.1525081715    2.7192632803
 C    0.7678646895   -0.5688606434    2.5989049427
 C    0.4627159732   -0.8759413567    1.1246709470
 C    0.0278324747    0.0456198160   -0.0415038294
 C    1.4626980096   -0.3328288867    0.1441881172
 H   -0.5391406119    2.0127113577    0.8184563259
 H   -0.3860729139    1.9828096861   -0.9604880600
 H    2.9047240132   -0.9661031221    2.3541479603
 H    2.5417870785    0.0525601439    3.7559533315
 H    0.5636284491   -1.4581729036    3.2039377624
 H    0.1514216713    0.2428668051    2.9991596955
 H    0.1384298637   -1.8980360229    0.9459708052
 H   -0.5893067836   -0.4329304190   -0.7937478079
 H    2.0799545128   -0.9208668633   -0.5234028710