20

 C   -0.2307576649    1.4346413426   -0.0683355797
 C    0.0419954205   -0.0741884443   -0.0102640815
 C    0.7740063213   -0.5565230372   -1.2692220877
 C    0.8661566929   -0.4492887690    1.2490461427
 O    2.1165294559    0.1870290517    1.2394778768
 C    0.1354703600   -0.1189999285    2.5532876133
 C   -1.2115582567   -0.7510383658    2.8164403388
 O    0.6613441079    0.6359085824    3.3456595546
 H    0.7132142661    1.9864328998   -0.0705181762
 H   -0.7819741049    1.6939352783   -0.9771285027
 H   -0.8189299724    1.7826014749    0.7880651972
 H   -0.9145623602   -0.6101327492    0.0548954978
 H    1.7578977130   -0.0847277399   -1.3421354009
 H    0.9206080815   -1.6418599017   -1.2534905669
 H    0.2043699115   -0.3058326202   -2.1696920768
 H    1.0063569492   -1.5456895034    1.2406577566
 H    2.1476540406    0.6900126270    2.0704424031
 H   -1.2252308316   -1.8032877971    2.5172302869
 H   -1.4614596557   -0.6547116491    3.8738141197
 H   -1.9793173340   -0.2372890212    2.2264438848