17

 O   -0.2199328137    1.3242217963   -0.1454591924
 C   -0.0248348908   -0.0491540207    0.0317507062
 C   -0.4777159262   -0.6971166703    1.3273395736
 C   -1.2857661696   -0.8818007552    0.0527368940
 O   -2.5242896267   -0.2661156332   -0.0708649005
 C   -1.0582831192   -2.1481976643   -0.7403850346
 C    0.4518676940   -2.1663648543   -1.0312190217
 O    1.0817048157   -3.1232127303   -1.3945074781
 C    1.0345501639   -0.7620085991   -0.7807847129
 H    0.3103778472    1.8038197866    0.4993228639
 H    0.0967478725   -1.5200724687    1.7440583002
 H   -0.9277191833   -0.0342476145    2.0586811024
 H   -2.3496826864    0.6802661710   -0.1701117520
 H   -1.3649557033   -3.0742788529   -0.2466296261
 H   -1.5985648290   -2.0862539310   -1.6935835057
 H    1.1574977416   -0.2594041510   -1.7487582117
 H    2.0228438835   -0.8374296587   -0.3169420846