19

 C    0.0576208018    1.4779787531    0.0205057023
 O    1.2165572677    0.6420635635   -0.0286707040
 C   -0.0783192640    0.0167482163    0.0038495927
 C   -0.3867951723   -0.7332011138    1.2869811899
 O    0.0209699912   -2.0823535514    1.1959994061
 C   -0.7535543697   -2.8101223876    0.2560267935
 C   -0.7768413456   -2.1863267469   -1.1403335485
 C   -1.8540903904   -1.1922722711   -1.4960559072
 C   -0.4441456769   -0.7122529472   -1.2526711909
 H   -0.0825888026    2.0296981185    0.9506441329
 H   -0.1534948400    2.0454528461   -0.8854857024
 H    0.1757199057   -0.2811429389    2.1075266176
 H   -1.4642037321   -0.6688593598    1.5223127434
 H   -0.3025835454   -3.8046626730    0.2141018059
 H   -1.7816198744   -2.9249618102    0.6396587177
 H   -0.4170022905   -2.8267976578   -1.9382189456
 H   -2.2248050958   -1.1675437451   -2.5146760700
 H   -2.6096332249   -0.9814120238   -0.7447069045
 H    0.1280865981   -0.3887274309   -2.1156476589