21

 C    0.2388398040    1.7333117307    0.3563902918
 O    0.6091869889    0.4109762224    0.0236885253
 C    0.7401567514   -0.4804072968    1.1426656779
 C   -0.6259620349   -0.8672672960    1.7158322668
 C    1.5349696403   -1.7139424462    0.7323401909
 C    1.0701464676   -2.7128150601   -0.3185602200
 O   -0.0334843946   -2.4093340188   -1.1118634248
 C    2.3069492616   -1.8801246542   -0.5653436960
 O    2.2011539079   -0.9479999663   -1.6031053603
 H    0.9207184622    2.1641049231    1.1047119660
 H    0.2989815852    2.3238153158   -0.5607146120
 H   -0.7866812610    1.7897401820    0.7419703683
 H    1.3227684369    0.0503214253    1.9137778185
 H   -1.2184403844   -1.3552722967    0.9392575010
 H   -0.4918342569   -1.5660040029    2.5475458541
 H   -1.1693096136    0.0011283685    2.0995920052
 H    2.0240867441   -2.1684766522    1.5908991135
 H    1.1581584838   -3.7734933302   -0.0980012021
 H    0.3057704768   -1.8212933233   -1.8058142066
 H    3.2898390835   -2.3416788239   -0.5206357031
 H    1.7793359012   -0.1610406700   -1.2214250746