19

 C   -0.1991448123    1.5602490358   -0.0504218450
 C   -0.0267493144    0.0637722187    0.0538478782
 N    1.3124431684   -0.4851308066   -0.2153213817
 C    0.7344943913   -0.6273064016    1.1328171823
 C    1.4473438036    0.0908868351    2.2302320136
 N    0.8151921271    0.0614523313    3.5522968991
 C    2.1038024312   -0.6470908014    3.3619815967
 C    2.0947056926   -2.0804860540    3.4658563678
 C    2.1212528131   -3.2799036626    3.5475885862
 H    0.6872313038    2.0907137813    0.3048222732
 H   -0.3639059714    1.8548009814   -1.0924177434
 H   -1.0626068139    1.8934820757    0.5352742811
 H   -0.8726132360   -0.5046513034   -0.3327642449
 H    1.2555370130   -1.3641128837   -0.7212681229
 H    0.3651205234   -1.6061070363    1.4291895142
 H    1.9570420492    1.0003393028    1.9219190545
 H    0.9769638883    0.9333174821    4.0495137977
 H    2.9947277217   -0.1757924081    3.7720586356
 H    2.1364242813   -4.3385661263    3.6280550576