17

 O   -0.1250321162    1.3308149121   -0.7125140621
 C    0.0245698045    0.1181735189    0.0111966841
 C   -1.3366826998   -0.5215607759    0.1071684357
 C   -1.8703160285   -1.3759781618   -1.0157062621
 C   -1.5466306084   -2.0045154800    0.3152236054
 C   -0.3891255858   -2.9845096110    0.4597629680
 C   -0.7938191978   -4.3575989799    0.1499391275
 N   -1.1252830953   -5.4380226853   -0.0905904554
 H    0.7195556562    1.7912613941   -0.7041240238
 H    0.7347965324   -0.5548210904   -0.4950686272
 H    0.4205044040    0.3082519468    1.0221881226
 H   -2.0599396421    0.1173295337    0.6061778920
 H   -2.9091314899   -1.2763025216   -1.3074346444
 H   -1.1954335453   -1.5811976970   -1.8412484389
 H   -2.3958471338   -2.2666104021    0.9388509564
 H    0.4389487541   -2.7182187370   -0.2044621154
 H    0.0094847218   -2.9687927336    1.4815794776