18

 O    0.2009524582    0.0707700670   -0.1749323824
 C    0.0682071857    1.2705493437   -0.0892154986
 C   -1.1041391340    2.0349901845    0.5366282780
 C   -0.8667219578    3.5034330943    0.1464414536
 C    0.6466748568    3.5869212109   -0.1851315192
 C    1.4982315527    4.1146079284    0.9980172497
 C    2.9263957962    4.0630523614    0.7141299640
 C    4.0938962569    3.9969400565    0.4345193064
 N    0.9626978925    2.2142110592   -0.5279528562
 H   -2.0540869942    1.6296438405    0.1841361015
 H   -1.0686466133    1.8734696284    1.6195394985
 H   -1.4436109621    3.7544705429   -0.7474557037
 H   -1.1481985928    4.2135232261    0.9276914413
 H    0.8270066178    4.2427068133   -1.0437577595
 H    1.1975489140    5.1474140119    1.2151880392
 H    1.2754370674    3.5230586076    1.8953234135
 H    5.1310460412    3.9503807696    0.2108749961
 H    1.8857279848    1.9386206838   -0.8272936022