21

 C    0.0530873749    1.5557666429    0.2838325552
 C    1.5896590833    1.3915294582   -0.0618326389
 C    1.1256013115    0.2347995247   -0.9744701882
 C    0.5463175664    0.7052512474   -2.3392966443
 C   -0.8395290028   -0.0120048425   -2.3875066989
 C   -0.7910644993   -0.8671093725   -1.1096915261
 C    0.4166871973   -1.8686447178   -1.2783993219
 O    1.6439085691   -1.0768415086   -1.1756157195
 C   -0.0884839592    0.0398770141   -0.0910982955
 H   -0.1934907212    1.8156364212    1.3139840746
 H   -0.4545063790    2.2495864128   -0.3879680961
 H    2.1139024046    2.2328358093   -0.5209335136
 H    2.1476774283    1.0408245695    0.8095385415
 H    0.4504792766    1.7909178788   -2.4175159928
 H    1.2203368959    0.3748047657   -3.1324414344
 H   -1.6649644010    0.7055059131   -2.3467115282
 H   -0.9775819167   -0.6184082130   -3.2875441962
 H   -1.7192419638   -1.3775110094   -0.8446560921
 H    0.4275063462   -2.6346490417   -0.4937336718
 H    0.3900498823   -2.3670715370   -2.2539853401
 H    0.1946393565   -0.5307392051    0.7991387974