18

 C   -0.0031209189    1.4652475131   -0.0611852422
 C   -0.0378218688   -0.0384736894    0.0395918155
 C   -0.8656516852   -0.6907825472    1.1271686918
 C    0.6535967241   -0.7357342713    1.1824058588
 O    1.2699542227   -1.9739193760    0.9582924595
 C    1.6865277278   -2.1430107422   -0.3895784754
 C    0.5156493223   -1.9257128140   -1.3334930665
 O    0.0290060457   -0.5937783329   -1.2507705872
 H    0.9125731561    1.7957771807   -0.5613590640
 H   -0.8585176070    1.8255945693   -0.6421104424
 H   -0.0454660554    1.9235170362    0.9304779313
 H   -1.4047823122   -0.0531094271    1.8196679304
 H   -1.3469755718   -1.6372804681    0.9081129513
 H    1.1736706612   -0.1355652888    1.9271002061
 H    2.5003310877   -1.4447875542   -0.6392748834
 H    2.0643558080   -3.1662903793   -0.4701987873
 H    0.8176959784   -2.0746585379   -2.3747971311
 H   -0.2798603246   -2.6499243508   -1.0991548252