25

 C   -0.7924297070    1.1815371313   -0.0178186329
 C    0.0999894921   -0.0575834091   -0.0731374549
 C    1.2190031019    0.0261911474   -1.1456693350
 C    2.3702315036   -0.8769245685   -0.6312021125
 C    1.8493926145   -1.4782461543    0.6916305293
 O    2.8545700882   -1.7559018330    1.6537911948
 C    0.8383909860   -0.4440998928    1.2400713544
 C    1.5764813941    0.7501022474    1.8734364479
 C   -0.0914572124   -1.0793678441    2.2795777700
 H   -0.2130397878    2.0862769450    0.1927134959
 H   -1.2995698803    1.3333278295   -0.9769329793
 H   -1.5669463338    1.0912410562    0.7512854452
 H   -0.5406749550   -0.9145037851   -0.3268522587
 H    0.8485691830   -0.2832342513   -2.1272493814
 H    1.5598546467    1.0608955556   -1.2571203867
 H    2.6530383305   -1.6536156252   -1.3486605306
 H    3.2711118125   -0.2936154930   -0.4173164592
 H    1.2870675182   -2.4008343735    0.4699542314
 H    3.4328685140   -2.4358727769    1.2959660194
 H    2.1997984132    1.2862611926    1.1511298190
 H    0.8646914695    1.4668011885    2.2938160091
 H    2.2289023184    0.4048793091    2.6785150124
 H    0.4845670771   -1.4496888334    3.1335669315
 H   -0.8241383871   -0.3583339273    2.6577057752
 H   -0.6430590399   -1.9256769551    1.8539478958