19

 C    0.1149872913    1.6075816703    0.1960608086
 C    0.0156368586    0.0834016336    0.0390553213
 N    0.6794713725   -0.6895940609    1.0792815066
 C    0.0330502885   -0.7683220505    2.3778772067
 C    2.0533475730   -0.7789012773    1.0496345839
 N    2.7696365179   -1.1370764833    2.1229151663
 N    4.0226649224   -1.1633243190    1.6524993737
 N    4.1877812933   -0.8392745944    0.3858546391
 C    2.9488052628   -0.5839765263   -0.0337359789
 H    1.1589408251    1.9351741637    0.1914360054
 H   -0.4041224463    2.1110431761   -0.6260226948
 H   -0.3404876120    1.9390040115    1.1343226863
 H   -1.0371068103   -0.2204270429    0.0304634241
 H    0.4268009728   -0.2197936161   -0.9299677956
 H    0.4163232002   -1.6324050342    2.9244284996
 H    0.2016782919    0.1213837604    3.0037442679
 H   -1.0432274229   -0.8922525408    2.2290562951
 H    4.7980940441   -1.4067120250    2.2447885457
 H    2.7624718572   -0.2843289748   -1.0510824610