15

 C   -0.0333738156    1.4151960368    0.0716585970
 N   -0.0133086189   -0.0217927968    0.0258025037
 C   -1.0907676061   -1.0183203436    0.0491025162
 C    0.0309823726   -2.0771201082    0.0656460328
 C    0.1358401474   -3.3858152619    0.7078104496
 O    0.0720378704   -3.2410109109   -0.7192124621
 C    1.0354846255   -0.9156259576    0.0066428748
 O    2.2286394875   -0.7722502623   -0.0221252450
 H    1.0034196305    1.7600589689    0.0579711763
 H   -0.5585838157    1.8382015716   -0.7931600967
 H   -0.5173472096    1.7829923751    0.9850353052
 H   -1.7260160750   -0.9741049077    0.9412669247
 H   -1.7118665853   -1.0335476075   -0.8532282190
 H    1.0984422973   -3.7092677042    1.0988888025
 H   -0.7440725849   -3.8285184419    1.1716100800