19

 O    0.0344273933    1.3885988574    0.0646253124
 C    0.0115019122   -0.0054070961    0.0789727327
 C    0.8283677940   -0.6858998482    1.2035255823
 C    1.1179574305   -2.1233581339    0.6362040452
 C    0.4408766804   -2.1245728110   -0.7607555816
 C   -1.0974871631   -2.1005089225   -0.5537500539
 C   -1.3878053436   -0.6623575291    0.0119533709
 C    0.6606293932   -0.6667592264   -1.1417715483
 O    1.1685398425   -0.1069070547   -2.0765595162
 H    0.4784122060    1.6408927988   -0.7592126081
 H    1.7522053305   -0.1256517033    1.3685091845
 H    0.2768274225   -0.7062895406    2.1469718761
 H    2.1933086898   -2.2990479459    0.5468597715
 H    0.7081533569   -2.9136702376    1.2706636717
 H    0.8077537465   -2.8748375018   -1.4586487755
 H   -1.6197295212   -2.2608489129   -1.5006931336
 H   -1.4125104221   -2.8910046639    0.1325334044
 H   -1.8719083922   -0.6825814454    0.9917071791
 H   -2.0253678060   -0.0866702629   -0.6639050238