21

 C   -0.0148379565    1.5317869487    0.0230532046
 C    0.0464365027    0.0114258350    0.0650661468
 C   -1.1782767131   -0.6168660263   -0.5883941212
 C    1.3419083449   -0.7610507878   -0.2418432902
 C    2.5291070482   -0.0678265745    0.3399693022
 O    3.6307566309    0.1753602891   -0.0694083071
 C    1.8940001900    0.0062362743    1.7511937216
 C    0.6817914136   -0.7603777056    1.1826202840
 C    0.0541045358   -1.8946289606    1.9454124718
 H    0.8679107347    2.0152722324    0.4439515083
 H   -0.1136342617    1.8755905364   -1.0122713592
 H   -0.8907589111    1.8931370199    0.5747070235
 H   -1.3039345130   -0.2271909152   -1.6040353106
 H   -1.1065369098   -1.7046364967   -0.6602513674
 H   -2.0869331363   -0.3734527562   -0.0260043401
 H    1.3558591763   -1.5141363087   -1.0219464300
 H    2.4833291810   -0.6055049155    2.4425706895
 H    1.7280006525    0.9864005696    2.2052858038
 H   -0.4695788204   -1.5154037199    2.8315655412
 H   -0.6708285290   -2.4531838589    1.3497349523
 H    0.8172718303   -2.5989486892    2.2944092961