18

 C    0.0322605868    1.6039497039   -0.0344555990
 C    0.1141463391    0.0826537340   -0.0280461844
 C    0.7031697799   -0.6814005517   -1.2168735585
 C    2.2281220420   -0.7888168428   -1.1083538879
 N    2.9670210668    0.0895939693   -0.2423365776
 C    2.3847342704    0.1737448187    1.0074122608
 O    2.7403078593    0.8847413994    1.9202512632
 C    1.1314929591   -0.6957307782    0.9145162856
 C    1.3727281082   -1.6726574820   -0.2662110309
 H    0.9958737235    2.0699287967   -0.2561783714
 H   -0.6824763612    1.9376869613   -0.7948827239
 H   -0.3070904325    1.9828126772    0.9349602609
 H   -0.8742921136   -0.3372107147    0.1831690262
 H    0.2026729081   -0.8757594812   -2.1592531271
 H    2.7644005065   -1.1977963455   -1.9556229825
 H    3.5776575192    0.8209465622   -0.5702875467
 H    0.7555186297   -1.0413265339    1.8732732013
 H    1.3899784688   -2.7540119327   -0.2462312982