23

 C    0.1043005573    1.5202363087    0.1657366883
 C    0.0532435057    0.0055733948   -0.0554460889
 C    0.6581523462   -0.4809178413   -1.3929034252
 C   -0.0963437450    0.1025752209   -2.6044596988
 O    2.0118349627   -0.0065569693   -1.3847017018
 C    2.9083732064   -0.7149672598   -2.2218295664
 C    3.0523076334   -2.1700858769   -1.7751277391
 C    1.6843880751   -2.7610041030   -1.5656618356
 C    0.6076106326   -1.9923475911   -1.4242052397
 H    1.1264594675    1.8898234882    0.0554068823
 H   -0.5320294495    2.0617419997   -0.5408413636
 H   -0.2430819674    1.7680304267    1.1736570655
 H    0.6040119577   -0.4975689310    0.7468483792
 H   -0.9830954547   -0.3494851585    0.0023925244
 H   -0.0501818167    1.1941103045   -2.5974365354
 H    0.3374878033   -0.2540980446   -3.5426130126
 H   -1.1478643636   -0.2022820146   -2.5905827376
 H    2.5746746651   -0.6855163128   -3.2705645369
 H    3.8600944917   -0.1788108712   -2.1617963879
 H    3.6073673720   -2.7394047857   -2.5315647864
 H    3.6420180372   -2.2280972552   -0.8498645785
 H    1.5910657157   -3.8437578946   -1.5427726644
 H   -0.3791980825   -2.4333987340   -1.3051169310