16

 C   -0.0516700919    1.5345235758    0.0338996698
 C    0.0592943651    0.0138833443   -0.0304857103
 C    0.8346775178   -0.5271039680   -1.2611681621
 C    1.4869509858   -1.7933740040   -0.7075280698
 C    1.6383859849   -1.4949962459    0.7787099677
 O    2.3288460891   -2.0281293336    1.5903275617
 O    0.8170903090   -0.4415414810    1.1074745115
 C   -1.2857478292   -0.6017352568    0.0358660597
 N   -2.3365685175   -1.0809616259    0.0603250213
 H    0.9518619321    1.9667752615    0.0322794905
 H   -0.6057990734    1.9086798097   -0.8311650906
 H   -0.5700412202    1.8442453202    0.9435393243
 H    0.1796381966   -0.6936158716   -2.1168046510
 H    1.5912359101    0.2109171889   -1.5426811077
 H    0.8378932741   -2.6698185860   -0.8123967666
 H    2.4547795176   -2.0409772376   -1.1436910085