16

 C   -0.0672263028    1.4569275598    0.1023214182
 N    0.0117748486    0.0182570257   -0.0176993569
 C    0.6059069200   -0.6264428400   -1.0553755519
 C    1.2004567105    0.0260306442   -2.1117052897
 C    1.8214715351   -0.6708427317   -3.1961908868
 O    2.3685473712   -0.2172418415   -4.1661658641
 O    1.7822050429   -2.0994034018   -3.1073973690
 C    1.2006455217   -2.7101127427   -2.0744811561
 C    0.6133759021   -2.0687903013   -1.0487115498
 H    0.9301390910    1.9128397965    0.1383166980
 H   -0.6142691612    1.9011073439   -0.7387004903
 H   -0.5931506565    1.7069792009    1.0250809249
 H   -0.3960633266   -0.5417594056    0.7094487029
 H    1.2306980442    1.1041522416   -2.1797337326
 H    1.2544397558   -3.7907476034   -2.1543990652
 H    0.1601728239   -2.6319195646   -0.2426140618