17

 C    0.1017592511    1.4246033748   -0.1294715080
 N    0.0395405993   -0.0243915524   -0.0844252149
 C    0.4717081548   -0.6324609583    0.9528377333
 N    1.0147190874   -0.0005037594    2.0796504279
 C    1.4996589973   -0.5928835317    3.2319750923
 O    1.9454003179    0.0773522901    4.1373478644
 C    1.4374313442   -2.1115950816    3.2861225997
 C    0.8554885818   -2.7768017600    2.0768893849
 C    0.4181567501   -2.0933387905    1.0185786692
 H    1.1325791155    1.8056462000   -0.0545513767
 H   -0.3063360641    1.7720060758   -1.0812351687
 H   -0.4860356127    1.8976815863    0.6730744083
 H    1.0751130085    1.0081479454    2.0861568451
 H    2.4579961584   -2.4678740613    3.4793426313
 H    0.8754556097   -2.3776276906    4.1912440035
 H    0.7995280040   -3.8613307383    2.0896404871
 H   -0.0029917677   -2.5713486579    0.1430806633