21

 C    0.1172471222    1.5200760980   -0.1318008569
 C    0.0117394015    0.0328234965   -0.0048261505
 C   -1.0932630529   -0.7203560531    0.1252418557
 C   -2.5214408985   -0.2780943189    0.2145194740
 C   -0.7257786335   -2.1834138256    0.1197583093
 C   -1.5769129053   -3.2273072289    0.7871439239
 O   -0.1102106866   -2.5830848938   -1.1374929299
 C    0.7361172163   -2.2433027808   -0.0341198386
 C    1.2692561778   -0.8215960734   -0.0699449395
 H    0.7906998597    1.9335842598    0.6302452098
 H    0.5414268702    1.8007877005   -1.1046828690
 H   -0.8487480313    2.0205975644   -0.0334354649
 H   -2.6171445968    0.8099381520    0.2213458059
 H   -3.1068090688   -0.6597457445   -0.6319859872
 H   -3.0032685285   -0.6589573667    1.1236618471
 H   -2.5614795877   -3.2965221727    0.3118163561
 H   -1.0985523626   -4.2069526161    0.7154051547
 H   -1.7319954283   -2.9890491402    1.8450156832
 H    1.3419332267   -3.0579572493    0.3560453527
 H    1.8508693350   -0.6265933332   -0.9800895054
 H    1.9370448516   -0.6254925338    0.7804322893