16

 O   -0.0365662057    1.3533214623    0.2975284118
 N    0.0772750069   -0.0445427723    0.2565339569
 C   -1.0297924525   -0.5852522953   -0.0655982594
 C   -2.2867320968    0.1727317630   -0.4048821388
 N   -3.3755182611   -0.7434087502   -0.7182122848
 C   -3.1929162780   -1.9252466202   -1.4178207204
 O   -4.0753365352   -2.4581553428   -2.0629091929
 N   -1.9165138586   -2.4458855867   -1.2943519238
 C   -1.1005349260   -2.0862328020   -0.1404905515
 H    0.8570481335    1.6272781690    0.5297474351
 H   -2.5709512864    0.8039995044    0.4451634146
 H   -2.0589239727    0.8607662737   -1.2335666384
 H   -4.2666890591   -0.3210477059   -0.9316806272
 H   -1.8575473005   -3.3966105994   -1.6266603452
 H   -0.0951571505   -2.4960411943   -0.2509268825
 H   -1.5263308174   -2.4793720231    0.7977721765