20

 C   -0.0603563190    1.3520691575   -0.3358669195
 O   -0.0537868319    0.0413984085    0.1749674181
 C   -1.2742090399   -0.6341340026   -0.0334788273
 C   -1.1435942444   -2.0452917064    0.5321298456
 C   -2.4292613022   -2.8211772321    0.3887812943
 O   -2.7920987108   -3.2615044634   -0.9287995944
 C   -2.5255110000   -4.2556013686    0.0671036695
 C   -1.3545784902   -5.1764959863   -0.1609848477
 H    0.9204032455    1.7888695607   -0.1318361339
 H   -0.2371445431    1.3670921013   -1.4231882783
 H   -0.8328825405    1.9749656777    0.1433617133
 H   -2.1021566677   -0.0952695808    0.4610032735
 H   -1.5159845440   -0.6826487472   -1.1078187587
 H   -0.3200776297   -2.5501816604    0.0214190055
 H   -0.8786875276   -1.9773040728    1.5944779867
 H   -3.2697207813   -2.3924514457    0.9416910345
 H   -3.4269917023   -4.7643221761    0.4175195362
 H   -0.4727944669   -4.6381081422   -0.5128276390
 H   -1.0983366646   -5.7036502244    0.7645656060
 H   -1.6117777594   -5.9295951966   -0.9132716843