13

 O    0.0085096382   -0.0280687080    0.0446605162
 C   -0.0114506307    1.1644155446    0.0642573463
 C   -1.1022570720    2.2564689860   -0.0237876892
 C   -0.7821635743    3.2344076480    1.1198463541
 C    0.7180563026    3.2598455293    1.0986925759
 C    1.0387640743    2.2928000944   -0.0539964576
 C   -0.0571564008    3.1494568055   -0.7876359546
 N   -0.0606381433    4.2487143596    0.2864741495
 H   -2.1282913705    2.0712736170   -0.3261835481
 H   -1.3938991827    3.5077024887    1.9697997869
 H    1.3438893030    3.5541203798    1.9311989140
 H    2.0615532854    2.1423741609   -0.3852990276
 H   -0.0761243792    3.3861500542   -1.8473679558