19

 C   -0.2148429281    1.3258791313    0.1426887830
 C   -0.0789521010   -0.1212155495    0.0645318668
 C    0.0359938714   -1.3180921980   -0.0038082703
 C    0.1744715451   -2.7896339918   -0.0838833082
 C    1.0326341312   -3.2270206521   -1.2589861480
 O    0.7311591867   -3.3030876887    1.1166848812
 C   -0.3442544424   -3.4252728615    2.0392633160
 C   -1.6088677416   -3.4953767528    1.1418556942
 O   -1.1009241018   -3.4047376771   -0.1834247508
 H    0.3371610580    1.8189256413   -0.6648862352
 H   -1.2639182369    1.6309124581    0.0623997508
 H    0.1724570810    1.7101859841    1.0926133511
 H    2.0335866714   -2.8012490865   -1.1651923954
 H    1.0960465056   -4.3170450752   -1.2631259074
 H    0.5851763132   -2.8816060176   -2.1930390974
 H   -0.1800090116   -4.3307827227    2.6290581964
 H   -0.3823986027   -2.5617818946    2.7149705757
 H   -2.1516407003   -4.4400506847    1.2300010976
 H   -2.2964004572   -2.6678456121    1.3566664401