19

 C    0.0420037615    1.5111084364   -0.0483271723
 C   -0.1030586337    0.0059814020   -0.1923324774
 O    0.9411117353   -0.4692435951   -1.0241095163
 C    0.9131231345   -1.8575123815   -1.2224892118
 C   -0.0716013132   -2.4704359887   -2.2648371775
 N    1.0636155809   -3.0848429348   -3.0422701126
 C    1.8784225579   -1.9447926884   -3.4919623124
 C    2.0362452360   -2.3884235578   -2.0934499791
 H    1.0112681392    1.7618137768    0.3918316226
 H   -0.0261362207    1.9984753086   -1.0250638698
 H   -0.7472040526    1.9109084553    0.5953332436
 H   -0.0513121655   -0.4855373750    0.7939059454
 H   -1.0843784215   -0.2468224636   -0.6261628903
 H    0.8499516918   -2.3820033747   -0.2581831186
 H   -0.7239106868   -3.2489968339   -1.8647262010
 H   -0.6639193455   -1.7543181085   -2.8441328212
 H    2.6587196554   -2.2312888325   -4.1901247208
 H    1.3950735247   -0.9944850662   -3.7049628255
 H    2.9341005923   -2.8783838983   -1.7323774350