19

 C    0.4526513428    1.3639676166    0.0175653085
 C    0.0574929505   -0.0970044859    0.1661215852
 O   -0.1358651770   -0.5934049938    1.2555441726
 C   -0.0475049457   -0.8602061387   -1.1146083477
 C    0.8182156125   -2.0819965514   -1.4406236669
 O    1.1082862882   -2.8612621859   -0.2996152918
 C   -0.3120348424   -3.1465871689   -0.1287740474
 C   -0.6704120706   -2.2395417103   -1.3152473928
 C   -1.7606576842   -2.5031309128   -2.3120747745
 H    1.3908117842    1.4532176333   -0.5415998893
 H   -0.3109830994    1.9076081536   -0.5512438893
 H    0.5642479255    1.8169920036    1.0031716192
 H   -0.1620918685   -0.2350479969   -1.9983035685
 H    1.5151717532   -2.1021668573   -2.2719215971
 H   -0.5069161999   -4.2020328958   -0.3506879841
 H   -0.6727872456   -2.8712755398    0.8609532470
 H   -2.7461405744   -2.2725873279   -1.8909316978
 H   -1.6345412835   -1.8891782725   -3.2094338244
 H   -1.7659150156   -3.5537614791   -2.6226756211