17

 O   -0.1880859401    1.4537118271    0.2117231705
 C   -0.0519051339    0.0704659655    0.0545760806
 C    0.3775797303   -0.8059611748    1.2754678530
 C   -0.8671628815   -1.7103593025    1.0632850887
 C   -2.0846439239   -1.2589788324    1.8731149283
 O   -2.3765254358   -0.1997123260    0.9302105043
 C   -1.4005484456   -0.6950497788   -0.0168808009
 C   -1.9532663199   -1.0261905158   -1.3067037685
 C   -2.3837101297   -1.3140124399   -2.3923098184
 H    0.6671398536    1.8646189317    0.0537675705
 H    0.5430452435   -0.1876041593   -0.8325830071
 H    1.3444782592   -1.3010274300    1.1662176792
 H    0.3599668041   -0.2581968561    2.2210993256
 H   -0.7140113977   -2.7695141614    0.8696053873
 H   -2.9037629946   -1.9888632107    1.9128831260
 H   -1.8914919871   -0.8736658883    2.8810790648
 H   -2.7759490710   -1.5614526182   -3.3476840239