21

 C   -0.1339711015    1.4631412999   -0.4674849415
 O   -0.2563423205    0.1264809962   -0.8926092533
 C    0.8513448774   -0.6676325778   -0.5240930048
 C    0.5847824998   -2.0745860214   -0.9534880208
 O    1.7070235548   -2.9647281280   -1.0013522277
 C    0.9074887716   -2.8096087223   -2.1869206177
 C   -0.3126721661   -3.7224053221   -2.0283032093
 C   -0.6753594719   -2.9334053927   -0.7125904982
 C   -0.7605710310   -3.7022984363    0.5975981817
 H   -0.0450945644    1.5366739629    0.6280809636
 H    0.7435171860    1.9556891355   -0.9153774892
 H   -1.0360391872    1.9909915918   -0.7856674486
 H    1.7811009541   -0.3117243154   -0.9967600263
 H    1.0063299974   -0.6283383737    0.5689883249
 H    1.4221220902   -2.4896574242   -3.0860465629
 H   -1.0581087057   -3.5979949148   -2.8170042570
 H   -0.0768607601   -4.7831351847   -1.9088712884
 H   -1.5692697800   -2.3251417377   -0.8743400908
 H    0.1657909399   -4.2560208392    0.7760669789
 H   -0.9260385168   -3.0279186119    1.4452840629
 H   -1.5886680063   -4.4188118741    0.5796131945