19

 C    0.0113872301    1.5024604792    0.0422541564
 C   -0.0318168269   -0.0268253249   -0.0058578213
 C    0.7111879168   -0.5588361872   -1.2517666432
 O    0.8681817286   -1.9613122201   -1.2108593878
 C    1.5746174156   -2.3629414690   -0.0463751155
 C    0.8450238654   -1.8875478617    1.2026619959
 O    0.6667327854   -0.4752357062    1.1646166348
 C   -1.4261482337   -0.5014152682    0.0039331487
 C   -2.5716596343   -0.8654044351    0.0100298487
 H    1.0512933982    1.8394646647    0.0592803403
 H   -0.4941758197    1.9293133161   -0.8277566871
 H   -0.4870066928    1.8570246440    0.9466892136
 H    0.1530074129   -0.3264619407   -2.1622079973
 H    1.6943457999   -0.0611196817   -1.2932804666
 H    1.6377641635   -3.4547694961   -0.0751960648
 H    2.5960565958   -1.9478031424   -0.0614026453
 H   -0.1284190353   -2.3916039141    1.2812860364
 H    1.4272739115   -2.0979548686    2.1046557725
 H   -3.5821832809   -1.1925664080    0.0142655815