18

 C    0.0724449851    1.5459453542   -0.0287519158
 N   -0.0156444635    0.0993002092   -0.0063053323
 C    0.4644923905   -0.5297936447    0.9783779559
 C    1.1809426373   -0.0985275891    2.3009141699
 N    1.2420810727   -1.2925194273    3.1874832646
 C    0.8198273675   -2.2194890070    2.4253605175
 C    0.2688514390   -3.6361678511    2.3286474532
 C   -0.3083580181   -3.1639978395    0.9383585411
 N    0.4648024771   -1.9161772090    1.1275195514
 H    0.7825720249    1.8600309275   -0.8044107839
 H   -0.9014732423    1.9634116522   -0.3077037705
 H    0.3846160896    2.0080550550    0.9191143498
 H    2.1899583094    0.2729314227    2.0846400657
 H    0.6411134127    0.7087704073    2.8056860653
 H    1.0235766522   -4.4213888505    2.2586783853
 H   -0.4666196396   -3.9012871572    3.0887968696
 H   -0.0107489541   -3.7413019248    0.0611181650
 H   -1.3905233105   -3.0060342281    0.9325557382