18

 C    0.0497558373    1.5388218462    0.0346992255
 O    1.1731993407    0.6387090580    0.0140397418
 C   -0.1288171359    0.0863136303    0.0236636050
 C   -0.5430986537   -0.9044928829    1.0735482543
 C   -1.8720705524   -1.4947994917    0.7448193923
 C   -2.8294345188   -0.7596627956   -0.1882297301
 C   -2.0208208308   -0.6645393481   -1.5085408260
 C   -0.5897763820   -0.9127046757   -1.0426376098
 N   -0.6801971234   -2.0066526522    0.0337621006
 H   -0.0826776542    2.0962760151    0.9612054016
 H   -0.0976896895    2.1150166902   -0.8781533357
 H   -0.0367977957   -1.0634938584    2.0206090436
 H   -2.2784275670   -2.1887395143    1.4747495026
 H   -3.7562824421   -1.3244990470   -0.3171449894
 H   -3.1001586752    0.2262312233    0.2015442783
 H   -2.3249332963   -1.4498288839   -2.2077185986
 H   -2.1351532603    0.2984655213   -2.0142065601
 H    0.1430440892   -1.1390630546   -1.8168144358