16

 O   -0.1416012788    0.3230886910   -0.9871931263
 C   -0.0645391934    1.2683533147   -0.2592387172
 C   -1.0982359276    2.1664574000    0.4353346798
 C    0.0628320972    3.1447615429    0.8110565215
 C    1.1038775388    2.1027915505    0.2848857279
 C    0.0568065342    4.5401432451    0.1323288911
 O    0.1590872404    5.4733411860    1.2333618711
 C    0.2127448909    4.7053676044    2.3446216416
 N    0.1693427226    3.4422747427    2.2440180071
 H   -1.9058741139    2.5551063355   -0.1917904069
 H   -1.5304544474    1.6916016609    1.3215590468
 H    1.6245152167    1.6003973539    1.1059998612
 H    1.8397795243    2.4468237157   -0.4477156638
 H    0.9093244452    4.7049772848   -0.5325441023
 H   -0.8673009711    4.7563838311   -0.4110686957
 H    0.2922290518    5.2619205207    3.2716270840