21

 C   -0.0079204851    1.5145671898    0.0378910915
 C   -0.0260437865    0.0051247001    0.0044447337
 C    0.3033636225   -0.8335278775   -1.2772176006
 C   -0.3683245531   -1.9407698597   -0.4375018496
 O    0.5390902511   -2.1256138453    0.6651927584
 C    0.8515010387   -0.7580823513    1.0121156102
 C   -1.3483259015   -0.8506538393    0.0781794050
 C   -2.1136172561   -1.0628254436    1.3735111643
 O   -3.2629830354   -1.8806399381    1.1790095639
 H    1.0030027566    1.9006436936   -0.1370579358
 H   -0.6632675315    1.9341263267   -0.7317367920
 H   -0.3438374382    1.8974415011    1.0083674883
 H   -0.2823824461   -0.5245710501   -2.1448421772
 H    1.3539970292   -0.9786260192   -1.5419736272
 H   -0.6692492716   -2.9116271628   -0.8298758898
 H    1.9224177265   -0.5659703564    0.8704315953
 H    0.5964902728   -0.5635782609    2.0604464372
 H   -2.0435512514   -0.5398585054   -0.7071548992
 H   -1.4586155005   -1.4868357144    2.1455278250
 H   -2.4937284812   -0.1052766876    1.7474574263
 H   -2.9531434692   -2.7663920399    0.9654253925