16

 N    0.5981207005   -0.6262215838    0.2547068933
 C   -0.1025736321    0.4751458037   -0.1326550647
 O    0.3939086501    1.5136476640   -0.5203414576
 C   -1.6041263004    0.3201730755   -0.0402908985
 O   -2.1251367896   -0.9436039003    0.3901549408
 C   -2.3271436270    0.1871053117    1.2394094690
 C   -1.6462988097    0.1957010071    2.5970474180
 C   -2.3635943587   -0.6146476504    3.5755563289
 C   -2.9719251474   -1.2817016194    4.3680172825
 H    1.5955641592   -0.6313624364    0.1171928983
 H    0.1081373782   -1.4925135870    0.4094497611
 H   -2.1245493747    0.7882531542   -0.8739128698
 H   -3.3597408522    0.5364131924    1.2568586950
 H   -0.6143093006   -0.1537697717    2.4949094988
 H   -1.5936267000    1.2363536216    2.9439417901
 H   -3.5012199058   -1.8733290512    5.0732149651