18

 C    0.1807481132    1.5773513680    0.0056552540
 C   -0.0103497063    0.0969597581    0.0221229492
 C   -1.1065363477   -0.6799595255   -0.0180223351
 C   -2.5562123972   -0.3285779162   -0.1041851981
 O   -2.7753979178    1.0549206157    0.1263308385
 C   -0.6732175117   -2.1278004018    0.0184852789
 C    0.8595555991   -2.0592388529    0.0946030134
 O    1.6571412095   -2.9671311844    0.1487519401
 N    1.1488001349   -0.7122843600    0.0883152208
 H    0.8068364657    1.8741827517   -0.8453982958
 H   -0.7784370774    2.0840617597   -0.0627365304
 H    0.6954717501    1.9123708053    0.9151669685
 H   -2.9473986716   -0.6245273222   -1.0949283732
 H   -3.1104621193   -0.9379648124    0.6322452150
 H   -3.7038383142    1.2394433104   -0.0408365102
 H   -1.0576885851   -2.6793688488    0.8853268007
 H   -0.9672601507   -2.7011488594   -0.8696526875
 H    2.0904790666   -0.3607381656    0.1472366213