19

 C    0.1818316694    1.4799134928    0.0138775598
 C    0.0337589232   -0.0126561324    0.3091728051
 O    0.0940709699   -0.2626785609    1.7144884561
 C   -1.2464029242   -0.5977303429   -0.3136914918
 C   -1.3378342194   -2.0934427541   -0.2541643591
 N   -1.6192478218   -2.7835126115   -1.3609345583
 N   -1.6318085377   -4.0712796771   -0.9648046025
 C   -1.3653265363   -4.2233651139    0.3548049496
 C   -1.1683874136   -2.9565892610    0.8572421523
 H    1.0731220907    1.8757367207    0.5081383437
 H    0.2667389207    1.6658057122   -1.0614070697
 H   -0.6897532494    2.0377898663    0.3800537109
 H    0.8988136431   -0.5491405822   -0.0971332241
 H   -0.6177501287    0.2405894253    2.1264090318
 H   -2.1075466424   -0.1405564150    0.1977664725
 H   -1.3156206512   -0.2983920689   -1.3643774797
 H   -1.8234859503   -4.7872939976   -1.6439041315
 H   -1.3348996216   -5.1966733584    0.8189721789
 H   -0.9141942305   -2.6767927015    1.8646665860