19

 N   -0.0966984402    1.3394344189   -0.2096176460
 C   -0.0078066225   -0.0427176017   -0.0939104730
 O    0.9536838828   -0.6745757821   -0.4915230109
 N   -1.0992522205   -0.6204189465    0.5400812126
 C   -2.5312733399   -0.3444906226    0.1410785387
 C   -2.3988463873   -1.4923806687   -0.8940554569
 C   -1.4587530545   -2.0416025491    0.2157269444
 C   -2.4341781691   -2.3459362598    1.3693457293
 C   -3.2709972527   -1.0203873446    1.3127307911
 H    0.7935306221    1.7693306647   -0.4119518328
 H   -0.6408027118    1.8233461076    0.4886195248
 H   -2.7962371335    0.6751628222   -0.1344420277
 H   -3.2935934810   -2.0639847960   -1.1589886116
 H   -1.8471404063   -1.1891698764   -1.7848645378
 H   -0.6322786399   -2.7160419760    0.0101934500
 H   -3.0319434763   -3.2404647843    1.1782563078
 H   -1.9121111842   -2.4703269235    2.3197479310
 H   -3.1942330465   -0.4373313849    2.2326744087
 H   -4.3285144088   -1.1843665472    1.0905761183