20

 C    0.2813744329    1.4795519680    0.0403212851
 C    0.0556409724   -0.0493723593   -0.0154669072
 C    0.4830413621   -0.6996381474    1.3161010861
 C   -1.3833147653   -0.3118402072   -0.2191169003
 N   -2.5011364534   -0.5312141026   -0.4187417877
 C    0.7710994983   -0.6199419346   -1.2624405933
 O    0.2850699264   -0.0702293569   -2.4575604936
 C    2.2485120790   -0.8571850309   -1.2775926870
 C    1.2891105136   -2.0327838734   -1.3349769810
 H    1.3378280013    1.6785225016    0.2423092939
 H    0.0178859056    1.9382811138   -0.9134352057
 H   -0.3171069933    1.9338836485    0.8340891066
 H   -0.0552230928   -0.2316212581    2.1442401647
 H    0.2656257273   -1.7692875652    1.3376983850
 H    1.5525827766   -0.5500907384    1.4852891578
 H   -0.6088799182   -0.4076822829   -2.5980389482
 H    2.7603512362   -0.5778298137   -2.1907901015
 H    2.8216899567   -0.7082671204   -0.3702343008
 H    1.2214059930   -2.6815381787   -0.4700341028
 H    1.1706619114   -2.5330530122   -2.2891246404