16

 C   -0.1882743470    1.4706649207    0.2451434165
 C    0.0268558978   -0.0111514129    0.0267728368
 C    1.3588303702   -0.5571619589   -0.4125218024
 C    0.8484171331   -0.8367192738    0.9795192419
 N   -1.1339672412   -0.6754933839   -0.5309607536
 N   -2.1125668396   -1.2025403976    0.1936475490
 N   -2.9883927565   -1.6189698076   -0.6668121020
 N   -2.5486572958   -1.3395315623   -1.9112912138
 N   -1.3975170009   -0.7487268631   -1.8292372941
 H    0.7177450213    1.9191090887    0.6603843756
 H   -0.4192308517    1.9735586006   -0.6987315220
 H   -1.0106697865    1.6459460478    0.9453164795
 H    1.3583228253   -1.3700615173   -1.1281262440
 H    2.1594515312    0.1614528360   -0.5437679107
 H    1.2933858459   -0.3126175530    1.8171953001
 H    0.5028364644   -1.8381860334    1.2040585432