21

 O   -0.1456336865    1.4459882626    0.1364451343
 C   -0.0002253009    0.0361283662    0.0313996350
 C    0.7879791194   -0.5517788152    1.2088729563
 C    0.8575709125   -2.0863515269    1.1276286963
 C   -0.5364308607   -2.6744245344    1.0137170594
 C   -0.8394766269   -3.9997055954    1.5639743390
 O   -1.2336951759   -2.8164884081    2.2657057923
 C   -1.3654719360   -2.0916248613   -0.1153738712
 C   -1.4075981981   -0.5574497379   -0.0260210298
 H    0.7321420916    1.8293823874    0.2322934959
 H    0.5266980614   -0.2200629027   -0.9063130458
 H    1.8009211130   -0.1294558886    1.2318737817
 H    0.2909175239   -0.2539668022    2.1397663138
 H    1.4433025860   -2.3861638119    0.2479096467
 H    1.3598161354   -2.4971420150    2.0083086941
 H   -1.6553878948   -4.5871098631    1.1431721392
 H   -0.0506433847   -4.5834527491    2.0382183377
 H   -0.9238940422   -2.3972022227   -1.0738261857
 H   -2.3774417551   -2.5052123876   -0.0779867281
 H   -1.9443755089   -0.2557820195    0.8811430980
 H   -1.9483539026   -0.1331239645   -0.8775376891