18

 C   -0.5587181857    1.5684896947   -0.0863333024
 C    0.1112360598    0.1968231327    0.0266271248
 C    1.3939677286   -0.0426284731   -0.8575382508
 C    2.0823506613   -0.6116121710    0.3828125903
 C    2.8626691178   -1.8409440197    0.5171017089
 O    3.4661984826   -0.5406431978    0.6375938041
 C    0.9965526503   -0.0586063888    1.3054769802
 C   -0.8671630345   -0.8719952733   -0.1610323695
 N   -1.6433476818   -1.7163255078   -0.3098747824
 H    0.1859381856    2.3568600934    0.0563080557
 H   -1.0180705593    1.7007632699   -1.0702373099
 H   -1.3381448753    1.6878952700    0.6718252780
 H    1.2839774144   -0.6897431536   -1.7288996490
 H    1.8335099164    0.9108725519   -1.1638405008
 H    2.8103075401   -2.4170507761    1.4395832497
 H    3.1431304723   -2.4036707083   -0.3718824918
 H    1.2960149833    0.8892616385    1.7616033147
 H    0.5857230440   -0.7178160617    2.0714976002