21

 O   -0.0148010829    1.4491711380   -0.0575342081
 C    0.0335109431    0.0605082810   -0.0235877851
 C    0.2277902272   -0.7700018675    1.3663872781
 C   -0.4649945400   -1.8630773287    0.4998801812
 C   -1.6935423909   -2.8096881186    0.3219227808
 C   -2.1303579596   -1.8432868289   -0.8664469688
 C   -1.2972846644   -0.7512506059   -0.1061095172
 C    0.6548053646   -2.1226436620   -0.5546473072
 C    1.0068960654   -0.6650703636   -0.9585773082
 H    0.8848084302    1.7869385946   -0.1236594421
 H    1.2535064422   -0.9328802923    1.7172511905
 H   -0.3949175495   -0.3560143235    2.1605078103
 H   -1.4954014410   -3.8587363793    0.0831048259
 H   -2.4086594685   -2.7568242452    1.1467550096
 H   -1.7300659387   -2.1615578950   -1.8300725158
 H   -3.1985407318   -1.6447442989   -0.9777008349
 H   -1.9609695580   -0.3441329138    0.6642203385
 H    1.4965705968   -2.6483779470   -0.0932928435
 H    0.3224194211   -2.7247907492   -1.4024973130
 H    0.7991430134   -0.4433463192   -2.0096105545
 H    2.0495960510   -0.3961275849   -0.7543826366