21

 C   -0.1555623332    1.5598767946   -0.0936487043
 C    0.0182991455    0.0502936337   -0.0046037619
 C    1.1648622143   -0.5934936506   -0.8425551692
 O    1.3227989521   -0.2140719660   -2.1706592558
 C    2.1443602482   -0.2162125514    0.3191520588
 C    0.8788205949   -0.5571309981    1.1503949067
 C    0.6969110828   -0.2456862008    2.6071900048
 O    0.7332800765   -1.9823417244    0.9133648296
 C    0.9260672770   -2.0773684412   -0.5093565192
 H    0.7753221350    2.1140470866    0.0507776504
 H   -0.5480444026    1.8345011339   -1.0778074882
 H   -0.8702032526    1.9086149086    0.6595103151
 H   -0.9535271126   -0.4430194850   -0.1165291569
 H    2.1056742782   -0.6490806159   -2.5260488424
 H    3.0229061577   -0.8458786129    0.4842405958
 H    2.4152250172    0.8384874110    0.3257157613
 H    0.7785542039    0.8302979635    2.7852032596
 H   -0.2872649652   -0.5818976084    2.9487236609
 H    1.4571331430   -0.7553086680    3.2072414078
 H    0.0343481390   -2.4843999947   -1.0010904157
 H    1.7869693510   -2.7205539844   -0.7390598070