27

 C   -0.0775445875    1.6454166072    0.1416181019
 C   -0.0063915753    0.1208211039    0.0118083427
 C    0.8095923558   -0.5257892829    1.1378972061
 C    0.8039902413   -2.0729839616    1.1730745598
 C    1.4087995528   -2.6554500873   -0.1095280775
 C    1.5929378057   -2.5447593762    2.4190695139
 C    1.6035484388   -4.0583985149    2.6554430222
 O   -0.5380647076   -2.5933480176    1.1759331522
 C   -1.3831261964   -2.2342490156    2.2456668049
 H    0.9220093731    2.0943771903    0.1181202881
 H   -0.6594024506    2.0880343452   -0.6730163564
 H   -0.5479696935    1.9427821705    1.0858348190
 H   -1.0174917027   -0.3011031106    0.0094948932
 H    0.4297844240   -0.1356898045   -0.9602997111
 H    1.8540744452   -0.1948170775    1.0714667799
 H    0.4464576187   -0.1476792007    2.1025992791
 H    2.4455074751   -2.3279579283   -0.2339382713
 H    1.3879779103   -3.7468613668   -0.0812847127
 H    0.8351377795   -2.3392423565   -0.9831405420
 H    2.6214067258   -2.1763900109    2.3218538791
 H    1.1866555607   -2.0429996836    3.3057717970
 H    2.1623759824   -4.5895570936    1.8796052382
 H    2.0739074950   -4.2933516011    3.6152869407
 H    0.5878474872   -4.4633022095    2.6652115082
 H   -1.0055743206   -2.5702855228    3.2213657795
 H   -1.5654070125   -1.1519431540    2.3018997044
 H   -2.3394699047   -2.7315613707    2.0611707508