13

 O   -0.0887298305    1.4336660581    0.0331524076
 C    0.0172579389    0.0323067734    0.0280085151
 C    0.6671703562   -0.5266944703   -1.2699183996
 C   -0.0662600467   -0.1312831064   -2.4580901436
 C   -0.6844883797    0.1936734465   -3.4425939879
 C   -1.3805672508    0.5605105226   -4.5587265501
 N   -1.9717406265    0.8715485406   -5.5087752989
 C    0.7649062178   -0.4680724961    1.1997776525
 N    1.3818664044   -0.8399638363    2.1028945279
 H    0.7948022027    1.8174587551    0.0854735551
 H   -1.0098248627   -0.3408244983    0.0917450296
 H    1.7034180679   -0.1707171296   -1.3317034892
 H    0.7160201188   -1.6204286593   -1.2034974885