17

 C    0.0009953640    1.6313341496    0.0938119897
 C    1.5276560089    1.4421540647    0.0997280007
 O    1.7124478489    0.6697771991    1.3223268648
 C    0.9381950358   -0.5205897025    0.9786062219
 C   -0.0003906945    0.1038671370   -0.0989983138
 C    1.3915427909    0.2141960026   -0.8634139760
 C    1.4864895539   -0.6054440105   -2.1410249691
 O    1.4453396362   -1.8025695996   -1.3027715632
 C    1.8782440821   -1.0365678104   -0.1320489632
 H   -0.4445882221    2.0713628297    0.9883462122
 H   -0.3563194032    2.1318852552   -0.8106107580
 H    2.2652559042    2.2391483431    0.0441694336
 H    0.6349200702   -1.0373036363    1.8885287446
 H   -0.8351060094   -0.4710579747   -0.4889471222
 H    0.6502321905   -0.5618174688   -2.8455233849
 H    2.4415454706   -0.5367612661   -2.6786173440
 H    2.9169636530   -1.2482437420    0.1330972269