22

 C    0.1054657276    1.4903634728   -0.0579078132
 C    0.0397696532   -0.0291450158    0.0934731081
 O    0.6569115072   -0.4549249069    1.3104680160
 C   -1.3839603559   -0.5702526977    0.0069243053
 C   -2.1719476550   -0.4801063711   -1.3534054185
 C   -2.3259526686   -2.0110900868   -1.3247002013
 C   -3.4750613047   -2.8102773105   -1.8541814027
 N   -0.9343580358   -2.5280922414   -1.3387432329
 C   -1.5499684387   -2.0943955718   -0.0552109905
 H    1.1392872203    1.8354719034    0.0311598599
 H   -0.2858147903    1.8136450043   -1.0277326802
 H   -0.4882824170    1.9863757001    0.7215479659
 H    0.6305565146   -0.5053512517   -0.6953277894
 H    0.2012273207   -0.0128530819    2.0358145181
 H   -1.9863708438   -0.1467465655    0.8206811979
 H   -3.1182466342    0.0572598559   -1.2561811714
 H   -1.6181632771   -0.0921213019   -2.2128134212
 H   -3.4747906524   -2.8275579890   -2.9508446077
 H   -3.4284277774   -3.8475267593   -1.5037142746
 H   -4.4328233806   -2.3892761963   -1.5293235181
 H   -0.9919002688   -3.5465343238   -1.3597549691
 H   -1.6305844434   -2.7874374752    0.7736513697