17

 O   -0.1054688136   -0.0692434321   -0.2577490187
 C   -0.0626374554    1.1289547722   -0.0794054041
 N   -1.1237226897    1.9646309159    0.2359620057
 C   -0.7407807585    3.3630872673    0.1015572088
 C    0.7856708459    3.2804272803    0.3076164078
 N    1.0725912615    1.9311091626   -0.1533678253
 C    2.3862205115    1.3264425625   -0.0400168822
 C    2.9589745490    1.3985902856    1.3080861411
 C    3.4185420693    1.4843170530    2.4153099491
 H   -2.0399567993    1.6498513201   -0.0411635560
 H   -0.9782104723    3.7645422897   -0.8938888020
 H   -1.2236946609    3.9933740679    0.8527232279
 H    1.3252519701    4.0323322498   -0.2762047581
 H    1.0555177837    3.4053132753    1.3655803586
 H    2.2607756697    0.2813027848   -0.3420812959
 H    3.0732158744    1.7988703617   -0.7537789102
 H    3.8285909446    1.5384825334    3.3935035334