17

 C   -0.0416964828    1.5969539767   -0.0574256839
 C    0.0565141269    0.0851454516    0.0023639464
 C    1.0194757975   -0.6784663826   -0.9436224978
 C    1.3487401850   -1.6610328272    0.2044543443
 C    0.7953757264   -0.6025387931    1.2354394879
 C    1.8663228231    0.2283991570    1.7823303183
 N    2.7279306685    0.8937549011    2.1697624605
 C   -0.0661845420   -1.1075444103    2.2982930003
 N   -0.7857071536   -1.5305869807    3.0974035128
 H    0.9419991454    2.0665628315    0.0330515587
 H   -0.4777131640    1.9016996246   -1.0143994413
 H   -0.6808479244    1.9864219752    0.7413412398
 H   -0.9387856192   -0.3661264953   -0.0427115431
 H    0.5886982295   -1.0997698293   -1.8526995220
 H    1.8846117159   -0.0660207764   -1.2122162733
 H    0.7069392973   -2.5433037593    0.2039375443
 H    2.3851942004   -1.9626391136    0.3528211080