22

 C    0.1493550747    1.3905357735    0.4590983840
 C   -0.1574341229    0.0588262073   -0.2205562272
 C   -1.4270212611   -0.6110940166    0.2880844597
 O   -2.1837930274   -0.0579998106    1.0531306868
 C   -1.6842472297   -2.0316554031   -0.2141390641
 C   -3.1342047205   -2.4615978611   -0.1209895145
 C   -3.4864626692   -3.9072277083    0.0181486036
 N   -3.7610200592   -2.9668138937    1.0937550806
 C   -2.9990261164   -3.0731686606    2.3271333822
 H    1.0462162602    1.8468021639    0.0310649618
 H   -0.6856380557    2.0853487646    0.3427781585
 H    0.3101630880    1.2545119332    1.5319736011
 H   -0.2757217716    0.1891026266   -1.3062996108
 H    0.6738842026   -0.6516282911   -0.1131404369
 H   -1.3380893661   -2.1161545021   -1.2525228468
 H   -1.0287040107   -2.6978970656    0.3611189962
 H   -3.8024217722   -1.8258270315   -0.7003964675
 H   -4.3503717748   -4.3281164660   -0.4906377761
 H   -2.6556574925   -4.6028277439    0.1462927942
 H   -1.9906001891   -3.5043157493    2.2097376560
 H   -2.9023975422   -2.0778547231    2.7684780871
 H   -3.5490748144   -3.7147099327    3.0231144621