20

 C    0.6195703488    0.1775652172   -1.2602461712
 N   -0.0488993348    0.0395797914    0.0290361120
 C    0.0536643628    1.2568729687    0.8280376934
 C   -1.3912518413   -0.4215001370   -0.1249897523
 C   -1.6176549159   -1.9140147534   -0.2330323602
 N   -0.5643925770   -2.8845331701   -0.1650668800
 C   -2.0353765605   -1.1878162442    1.0391715912
 C   -1.3005352445   -1.4047617735    2.2512167402
 N   -0.7221711434   -1.5791148851    3.2385123855
 H    1.6706455524    0.4363007535   -1.1010314482
 H    0.5772539247   -0.7702120016   -1.8030046967
 H    0.1681678161    0.9610210178   -1.8963920321
 H   -0.4452606859    2.1215738867    0.3536848984
 H   -0.3890266647    1.0943612361    1.8127593864
 H    1.1089010067    1.5093790670    0.9684489159
 H   -2.0861862836    0.2315353079   -0.6674121871
 H   -2.4454755643   -2.2347348075   -0.8580325972
 H   -0.2368386155   -3.1077246020   -1.0998054375
 H    0.2253398442   -2.5010793384    0.3469554673
 H   -3.0978801645   -1.0335400537    1.1939545424