19

 O    0.2233046638    1.4573954761   -0.0760839916
 C    0.0746961775    0.0480663941    0.0172186974
 C    0.8931184350   -0.5450448558    1.2229924981
 C    0.1101600225   -0.0972500706    2.4288807020
 C   -1.1852225913   -0.4243943046    2.4301867391
 C   -2.3440495611    0.5597210357    2.4159956569
 C   -2.5985778952   -0.0000678421    0.9825467298
 C   -1.3864251160   -0.4346985027    0.0981631493
 C   -1.7877890256   -1.2427812461    1.2899768861
 H   -0.3353358100    1.8502507158    0.6020625839
 H    0.4999598275   -0.3340747733   -0.9183414899
 H    0.9419551971   -1.6333685876    1.1125953605
 H    1.9117748235   -0.1520265226    1.2052408559
 H    0.4669535260    0.7518586508    3.0070545138
 H   -3.2007275151    0.2846802817    3.0419563847
 H   -2.1145009110    1.6211557696    2.5617931288
 H   -3.5715143400    0.0406169783    0.5023364236
 H   -1.7706213602   -0.7911428108   -0.8557556983
 H   -2.0804083975   -2.2851100458    1.2987765599