21

 O   -0.0929420034    1.4151558951    0.1375686156
 C   -0.0781711001    0.0053025911    0.3077366876
 C   -1.3504303626   -0.5542681740   -0.3186968774
 C   -1.4197912336   -2.0637173323   -0.2291088307
 C   -1.8882063974   -2.7487898818    1.0475127630
 C   -2.7402965259   -2.7725155695   -0.2012040244
 O   -3.8813414150   -1.9628430090   -0.2368320531
 C   -2.9275806407   -4.0602712133   -0.9609264348
 O   -4.0467080802   -4.7233656378   -0.3707299496
 H    0.6982478431    1.7754021034    0.5480935138
 H    0.8055553663   -0.4441730276   -0.1759181719
 H   -0.0386795417   -0.2701456524    1.3736593687
 H   -2.2200309371   -0.1107680999    0.1734576250
 H   -1.3896904697   -0.2361167292   -1.3675325263
 H   -0.6304783271   -2.5825801579   -0.7708499099
 H   -1.3944524269   -3.6580473086    1.3733893956
 H   -2.2408453358   -2.1056824282    1.8467731195
 H   -4.6107609658   -2.5395553760    0.0236766648
 H   -3.1247952892   -3.8330548034   -2.0187361865
 H   -2.0197089938   -4.6784822062   -0.9024214718
 H   -4.3872371833   -5.3655537124   -0.9993926573