14

 O    0.4118139154    1.0318024950    0.7277435063
 C   -0.0469615402   -0.0913756528    0.0301353367
 C   -1.5733440837   -0.1259190986   -0.2027079434
 C   -1.7302462379   -0.6623242135   -1.6203629278
 O   -1.3223556248    0.2925157309   -2.6001071077
 C   -0.4230263257   -0.7914411460   -2.2969876755
 C    0.6154804195   -0.2537556466   -1.3433383574
 O    1.7599643296    0.0451952406   -1.5744784549
 H    1.3085630034    1.2003318616    0.4047328249
 H    0.2285570259   -1.0249274295    0.5607114937
 H   -2.0832000794   -0.7570082299    0.5287841353
 H   -1.9858842784    0.8843129936   -0.1363274059
 H   -2.5764106381   -1.2830610142   -1.9011690525
 H   -0.1866434857   -1.4710906105   -3.1096064318