15

 C    0.0354968138    1.4799982724    0.0146658691
 C    0.0223410853   -0.0121047381   -0.0214920603
 N    0.0350411222   -0.7588326685   -1.1043894699
 C    0.0148667802   -2.0715040679   -0.6725742044
 C    0.0217016301   -3.2120293588   -1.6377856428
 C   -0.0104085107   -2.1087822317    0.6960464856
 N   -0.0054105745   -0.7881802063    1.1023939465
 H    0.9131524487    1.8697351673    0.5436047046
 H    0.0590764108    1.8514572006   -1.0104375606
 H   -0.8549058648    1.8861639990    0.5088192195
 H    0.9141156998   -3.1867638884   -2.2727383808
 H    0.0032512840   -4.1718591957   -1.1139695958
 H   -0.8464603702   -3.1703025476   -2.3046818493
 H   -0.0307770347   -2.9229861626    1.4016075650
 H   -0.0196716299   -0.4609652036    2.0534466835