20

 C   -0.0882612631    1.5400841003   -0.0234329603
 C   -0.0575523565    0.0194798779   -0.0229003878
 C    1.1746982911   -0.6139014849   -0.7247411491
 O    1.9662712072   -0.2903577224    0.4761773660
 C    0.7068906379   -0.6226900270    1.1668234505
 C    0.6373607578   -2.1454447380    0.9044242577
 C    0.9941740611   -2.1387422499   -0.5383430974
 N   -0.3450847807   -2.5723639610   -0.1060515866
 C   -0.5629126778   -4.0136790504   -0.1666097413
 H    0.8924012250    1.9545340429    0.2210550348
 H   -0.3903253545    1.9196361668   -1.0057745344
 H   -0.8142530677    1.9116772697    0.7081068763
 H   -1.0270186778   -0.4138932427   -0.2646756436
 H    1.6091300584   -0.2395600311   -1.6517106000
 H    0.6583674508   -0.2574206369    2.1926685972
 H    1.0307712457   -2.8647499662    1.6142260343
 H    1.6746346377   -2.8526538392   -0.9892244451
 H    0.3381695013   -4.6110606917    0.0534113722
 H   -1.3397993022   -4.2881629614    0.5536658302
 H   -0.9140366135   -4.2801620946   -1.1683033134