19

 C    0.0198453621    1.4839897692   -0.0865348659
 C   -0.0510384554   -0.0126111893   -0.0014753594
 O    0.2310765883   -0.7229340189   -1.2305252763
 C   -0.3776411139   -1.8598092381   -0.5479943433
 C    0.7239062935   -2.1893107150    0.4635440117
 C    0.7331046726   -0.7731533440    1.1533015433
 C   -0.2990969097   -0.8482635795    2.2553019072
 C   -1.5100519543   -0.9710565049    1.6931977101
 C   -1.3432672268   -0.8476311787    0.2110435880
 H    1.0449493129    1.8057638258   -0.2990318366
 H   -0.6290663269    1.8577489288   -0.8834696802
 H   -0.2909735040    1.9311180296    0.8621493298
 H   -0.7534548346   -2.6339957851   -1.2153440774
 H    0.4977051252   -2.9981103753    1.1610631647
 H    1.6517858214   -2.4046291056   -0.0706804173
 H    1.7165203990   -0.3865846076    1.4191892960
 H   -0.0621183563   -0.9177361600    3.3103658055
 H   -2.4513646819   -1.1336969087    2.2028096248
 H   -2.1997881811   -0.5590285126   -0.3972321246