21

 C   -0.0490294077    1.4048825820    0.0969809064
 O    0.0069614825   -0.0101680351    0.0393158110
 C    0.6414612912   -0.5984373535    1.1203813874
 O   -0.1346219398   -0.3575325687    2.2881152178
 C    0.5328489560   -0.7594267257    3.4702589552
 C    1.1596596274   -2.1203314342    3.3431590651
 C    1.2672008407   -2.7345760772    2.1673263271
 C    0.7864081204   -2.1056876538    0.8800844713
 C   -0.5169241995   -2.7521948166    0.3801770956
 H    0.9598879649    1.8389757852    0.1686058543
 H   -0.5149207207    1.7404976852   -0.8318090408
 H   -0.6427750651    1.7487372652    0.9501350828
 H    1.6432820486   -0.1459332940    1.2717616623
 H    1.3002214831   -0.0151566780    3.7554740210
 H   -0.2220275499   -0.7520336816    4.2652712291
 H    1.5249275194   -2.5783459218    4.2585651629
 H    1.7026537546   -3.7284924159    2.1019342912
 H    1.5593007219   -2.2411334199    0.1115463312
 H   -1.3270105175   -2.5610410677    1.0887735142
 H   -0.8033280778   -2.3446453052   -0.5914420057
 H   -0.3937531229   -3.8355431788    0.2844334204