13

 C   -0.0161337598    1.4043187461    0.0406767238
 C   -0.0124077146   -0.0719884470   -0.0492904119
 N   -0.1984294571   -0.7994040223   -1.1074802128
 N   -0.0876627188   -2.0692132727   -0.6061568088
 N   -0.1592327461   -3.3301613240   -1.0841556595
 C    0.0590603339   -4.0114903288    0.0439789934
 N    0.2628891707   -3.2846563257    1.1971515302
 C    0.1561182562   -2.0753264531    0.7090628957
 O    0.2137733604   -0.7883827970    1.1164922630
 H    0.9471703077    1.7711046813    0.4083188937
 H   -0.2067162597    1.8190554295   -0.9492721368
 H   -0.7914951149    1.7468416441    0.7328794332
 H    0.0735114120   -5.0906852904    0.0418903766