17

 C    0.1370235886    1.6545796681   -0.5295357355
 C    0.2031696764    0.1270972230   -0.5050927545
 C   -1.0320287628   -0.5171228176    0.1559524649
 C   -2.2731664722   -0.2434802148   -0.5642165862
 C   -3.2781827079   -0.0330479286   -1.1891285912
 C   -0.8562920687   -2.0445749814    0.3117854684
 O    0.1102296087   -2.6336304584   -0.1116562992
 C   -1.9172542318   -2.7261290855    1.0294328821
 C   -2.7803366827   -3.2843882143    1.6552250506
 H    1.0301522804    2.0699840087   -1.0051921896
 H   -0.7373604341    2.0048297813   -1.0857733354
 H    0.0770029174    2.0679229680    0.4836859413
 H    0.3002415752   -0.2696612216   -1.5199885645
 H    1.0884099092   -0.2106335924    0.0421659864
 H   -1.1390823893   -0.1241494887    1.1793496229
 H   -4.1720723959    0.1571289469   -1.7301518279
 H   -3.5422756804   -3.7870557429    2.2001619875