16

 C   -0.0248354702    1.3181923836    0.1163704420
 N    0.0303467433   -0.1212279108   -0.0776272510
 C    0.0229722997   -0.9547957183    1.1095779330
 C   -1.3805622184   -1.1801865352    1.6669019399
 O   -1.6137866516   -1.3493902066    2.8329287489
 C    0.0020008535   -0.7326608459   -1.3016446271
 N   -0.0543794594   -2.0087326018   -1.4303628147
 C    0.0555251465    0.1463161782   -2.4601536645
 N    0.0939005708    0.7744206282   -3.4306368368
 H    0.8229329612    1.6507170345    0.7264332498
 H    0.0183492990    1.8321208089   -0.8438492672
 H   -0.9500735301    1.6163314702    0.6250504004
 H    0.4297325979   -1.9363270144    0.8423358304
 H    0.6490890487   -0.5095827976    1.8886140175
 H   -2.1816725348   -1.1873537931    0.8941187548
 H   -0.0228746959   -2.2840517699   -2.4076418456