13

 C   -0.1459658065   -1.1904309582   -0.0304100513
 C   -0.0604197053    0.0064956892    0.0184424347
 C    0.0150740717    1.4368158599    0.0346979804
 N    0.5331271825    2.0939778882    1.2374891335
 C    1.3650560319    2.1590682359    0.0137661711
 C    2.6058854712    1.4340055902    0.0201155161
 C    3.6447857263    0.8338769927   -0.0041631772
 C    1.3786747131    3.4099301392   -0.7182570435
 N    1.3658979575    4.4192235909   -1.2824144315
 H   -0.2144393700   -2.2501205432   -0.0632587512
 H   -0.7669618748    1.9491111352   -0.5217594910
 H    0.0650445505    2.9863940671    1.3835678865
 H    4.5639351919    0.3010433028   -0.0151340766