15

 O    0.0340421268   -0.0028394763   -0.0980897202
 C    0.0142962716    1.1795608098    0.0682317850
 C   -1.1593767985    2.2117419982    0.1838925271
 C   -0.1237808287    3.3245137695   -0.0602881173
 C    0.9337862511    3.3288304281    0.9991283322
 C    1.0462436641    2.2792985917   -0.0871719763
 N    1.8859415329    2.5479022499   -1.2238687913
 C    1.3254734822    3.5474467045   -1.8084566117
 N    0.1084262011    4.0069229949   -1.2962098464
 H   -1.8436606338    2.0642330169   -0.6561120824
 H   -1.7286688312    2.2587518558    1.1161919181
 H    1.6982673134    4.0956749100    0.9461890729
 H    0.6554175886    3.0289113568    2.0034282625
 H    1.7374477729    4.0307123624   -2.6897415948
 H   -0.1858851126    4.9585072878   -1.4538453674