16

 C    0.0046936454    1.5052152649    0.0639882309
 C    0.0248675319    0.0096528314    0.0205555648
 C   -0.0281153127   -0.8032689097   -1.0737167826
 N    0.0172919057   -2.1251063162   -0.6508629333
 C   -0.0161149532   -3.2261076574   -1.4899189620
 O    0.0236623332   -4.3700685553   -1.1157461916
 C    0.1009892690   -2.1613120755    0.7401968387
 C    0.1067895460   -0.8657653613    1.1677397299
 O    0.1785464988   -0.4793528286    2.4678504584
 H    0.9123411082    1.9140280634    0.5268773478
 H   -0.0630954611    1.9261092560   -0.9422024384
 H   -0.8520499307    1.8870525002    0.6344343670
 H   -0.0945015590   -0.5665149889   -2.1239090973
 H   -0.0841513807   -2.9224998786   -2.5507692087
 H    0.1465355024   -3.0990022030    1.2634740545
 H    0.1666640170    0.4817033588    2.5091435719