22

 C    0.0160333094    1.5765343139   -0.0033359293
 C    0.0099375159    0.0449892550   -0.0028024401
 C    0.6868986905   -0.5283450452   -1.2592250806
 C    0.6771239330   -2.0685346488   -1.2662637110
 C    1.2518402142   -2.6207031658    0.0125801635
 C    0.6837028722   -2.0626239494    1.2929794395
 C    0.6796676992   -0.5209296837    1.2603718114
 N    2.1793178159   -3.4921215898   -0.0990984977
 O    2.6473195831   -3.9534149073    1.1464748137
 H    1.0415903963    1.9645095668    0.0015280291
 H   -0.4861138588    1.9767972209   -0.8904364224
 H   -0.4937167743    1.9763956351    0.8797346216
 H   -1.0383325160   -0.2924964391   -0.0056467761
 H    0.1909901887   -0.1523906887   -2.1616641278
 H    1.7257241785   -0.1727213393   -1.3000012317
 H   -0.3634992586   -2.4128417258   -1.3612632994
 H    1.2317771061   -2.4704439321   -2.1177580441
 H   -0.3514145214   -2.4200421930    1.3926518513
 H    1.2398311768   -2.4376456383    2.1520700545
 H    1.7161111557   -0.1593090132    1.3057420850
 H    0.1775331969   -0.1391042875    2.1568430710
 H    3.3353350367   -4.5713930246    0.8796693194