19

 C   -0.0502576606    1.5196327016    0.1052752067
 C    1.4964597307    1.4527879787   -0.0146508283
 C    2.0507677582    1.1313635781    1.3786209467
 O    1.1576649518    0.2698625361    2.0884177722
 C    0.5523230601   -0.7105687315    1.2305519312
 C    1.6372739223   -1.6252369170    0.6723293399
 C    2.1200382156   -1.1030413913   -0.4583389193
 C    1.3120897185    0.1085789159   -0.8433381469
 C   -0.0108017774   -0.0174083628   -0.0454067013
 H   -0.4679881451    1.9390694909    1.0230457336
 H   -0.5113078903    1.9915727454   -0.7658715945
 H    2.0391912763    2.2780100112   -0.4814679563
 H    3.0489820003    0.6763193453    1.2992642427
 H    2.1362790420    2.0380228313    1.9868138223
 H   -0.2013442018   -1.2026426411    1.8486326871
 H    2.0380673321   -2.4709185283    1.2181959991
 H    2.9758959693   -1.4695358041   -1.0141992557
 H    1.2130342158    0.2960780843   -1.9144203634
 H   -0.8518007577   -0.5626713630   -0.4796879359