15

 C   -0.0810399234    1.5060585453    0.3717723722
 C    0.0042707182    0.0200826127    0.0887655473
 O    0.7077959009   -0.5935862570    1.1970746269
 C    0.8606697862   -1.9196210639    1.1199446303
 O    0.4728415565   -2.6241197442    0.2219517214
 C    1.5705113313   -2.4273750232    2.2776266032
 C    2.1465418763   -2.9272772321    3.2143233361
 C    2.8689486182   -3.5142230101    4.3188256044
 O    2.3512810742   -3.8725440580    5.3491740970
 H    0.9161020947    1.9460198868    0.4585726195
 H   -0.6086279745    2.0050021012   -0.4462496474
 H   -0.6253330260    1.6962166593    1.3006435579
 H   -0.9828127243   -0.4440057503    0.0045023488
 H    0.5522169755   -0.1965894943   -0.8331494528
 H    3.9584684262   -3.6111141722    4.1418360353