14

 C   -0.2334492446    1.4015581783    0.1614753912
 C    0.3378918830    0.1062240590   -0.3491653896
 O    1.4360833392   -0.0583678097   -0.8080475912
 O   -0.5882595658   -0.8876008770   -0.2163399646
 C   -0.2973758054   -2.1592472975   -0.6130512029
 C    0.8231160831   -2.7326396986   -1.1718963952
 N    0.4413488004   -4.0262002848   -1.3151654773
 N   -0.8099026681   -4.2384114628   -0.8821611119
 N   -1.2636767230   -3.0937073552   -0.4513454700
 H    0.5087018764    2.1909990039    0.0531615328
 H   -1.1388579108    1.6561941379   -0.3965030179
 H   -0.5195975359    1.2949544662    1.2115988640
 H    1.7831147058   -2.3484130944   -1.4545095338
 H    0.9702179657   -4.7972296153   -1.6910896237