21

 C   -0.2225224625    1.5974774474    0.0534358257
 C    0.0930573701    0.1019184490    0.1108829943
 C    1.3307659758   -0.6683360084   -0.2967376744
 C    2.7057630238   -0.1363857165    0.1855059279
 C    2.6657970183    1.1420177583    0.9738671354
 C    2.2064368473   -0.1374843139    1.6225395852
 C    0.8373450275   -0.7106896186    1.1500970158
 C    0.2139576615   -1.8540967356    1.8913639830
 O   -0.3459289118   -1.4623730186    3.1412221788
 H    0.3743146713    2.1194442446   -0.6998179287
 H   -1.2738695664    1.7380176394   -0.2166070256
 H   -0.0695730207    2.0955384707    1.0142949177
 H   -0.7670622608   -0.4859346128   -0.2130403510
 H    1.2655060824   -1.4627973696   -1.0313518988
 H    3.6323000564   -0.5431839631   -0.1986383298
 H    3.6455417045    1.4608300591    1.3209804849
 H    2.0111326176    1.9667557230    0.7363587892
 H    2.6940723530   -0.5339432706    2.5038580206
 H   -0.5359147293   -2.3444624154    1.2488929743
 H    0.9700238501   -2.6078204980    2.1420372680
 H   -0.9559970481   -0.7388304805    2.9632392073