21

 C   -0.0471854602    1.5032463759    0.1228517555
 C    0.0320868892   -0.0041636667   -0.0285169253
 C    1.2122075861   -0.5864252650   -0.7760499886
 C    1.1233553432   -0.7447930006    0.7195179464
 C   -1.2827953093   -0.6875582712   -0.1552982009
 C   -1.5920644319   -2.1685195476   -0.4665746887
 C   -2.9596607888   -1.7071191411   -1.0825373958
 C   -2.5837394933   -0.2671880976   -0.7177597112
 O   -2.3560417096   -0.2433639199    0.6990182668
 H    0.9506146587    1.9304063495    0.2590329367
 H   -0.4894980011    1.9667304042   -0.7664900088
 H   -0.6623022933    1.7742460584    0.9847816245
 H    1.0624709768   -1.4657642415   -1.3922358354
 H    1.9352535288    0.1152748329   -1.1778669158
 H    1.7906665476   -0.1608600389    1.3440550782
 H    0.8957617198   -1.7299793468    1.1118755519
 H   -0.9320624930   -2.6170699413   -1.2120198349
 H   -1.6442442605   -2.8147847142    0.4126058746
 H   -3.0116906772   -1.8814930232   -2.1599208968
 H   -3.8679417045   -2.0833126566   -0.6059369594
 H   -2.8982112874    0.6617649013   -1.1805691029