19

 C   -0.0762301001    1.7001418857    0.0302134591
 C    0.0257628262    0.1902967620   -0.0420976522
 C    0.7824021791   -0.5691608359   -1.1705120626
 C    2.1982358391    0.0217600622   -1.0688977944
 C    2.2948740073    0.0224583207    0.4967642466
 N    0.9739391035   -0.5404318307    0.9159475757
 C    0.8954986263   -1.6873900471   -0.0872855177
 C   -0.2711429084   -2.5412440561    0.0938467570
 N   -1.1791416431   -3.2476409430    0.2061260002
 H    0.8569767985    2.2172501907   -0.2043094116
 H   -0.8363728534    2.0500878033   -0.6756858681
 H   -0.3893949543    2.0035571448    1.0343799021
 H   -0.9669529631   -0.2402984216    0.1122207618
 H    0.3627861711   -0.7516998657   -2.1604642656
 H    2.9498623404   -0.6137328070   -1.5443929231
 H    2.2717021994    1.0178842773   -1.5111908224
 H    3.0953932761   -0.6150636278    0.8784316350
 H    2.4211898800    1.0165850250    0.9272987238
 H    1.7914514655   -2.3147489766   -0.1089800137