15

 O    0.7100362763    0.7216381388    0.2960204940
 C   -0.1583441495    0.2359904899   -0.7104902494
 C   -1.4121027022   -0.3682651608   -0.1027671116
 N   -2.0878387316   -1.4324138836   -0.8411629904
 C   -1.4134145117   -1.7947702833    0.4062045669
 C   -0.2064678632   -2.5805420972    0.3178197507
 N    0.7921007763   -3.1629543418    0.2842260297
 C   -2.2859493549    0.5492953883    0.7049441937
 O   -3.4317103030    0.2769071806    0.9738206441
 H    1.1635997443   -0.0336158413    0.6867659248
 H   -0.4320915690    1.0985831773   -1.3276630485
 H    0.3182375895   -0.5009205614   -1.3672231181
 H   -3.0891261827   -1.3653697116   -0.6468020217
 H   -2.0256513315   -1.9933692023    1.2813763922
 H   -1.8087205472    1.4919143584    1.0322351534