18

 C   -0.4800109809    1.4382378994   -0.2783949159
 C   -0.0204628707   -0.0247481430   -0.2207625453
 C    0.8656952090   -0.4494376560   -1.3768361398
 C    0.8408864441   -1.8966509720   -1.8467388900
 N    0.3068998562   -0.8547301171   -2.6713749389
 C   -1.0234971143   -0.7754836157   -3.0634329333
 O   -1.7077671136   -1.7264121387   -3.3456521401
 C    2.2005381095    0.2261790938   -1.5117280146
 O    2.6939562842    0.9246604211   -0.6643896606
 H    0.3759428344    2.1163901237   -0.2748152291
 H   -1.0763851031    1.6406790652   -1.1738992145
 H   -1.1008676577    1.6722658245    0.5909744082
 H    0.5496455088   -0.1869433019    0.7004681252
 H   -0.8881232219   -0.6929040849   -0.1815855271
 H    1.7531485728   -2.3713344787   -2.1990619687
 H    0.1345576166   -2.5550448419   -1.3473110658
 H   -1.3614948688    0.2715365178   -3.1638782158
 H    2.7127519453    0.0063207445   -2.4744328540