14

 O    0.0847810571    0.0502272227   -0.6937704200
 C    0.0456086943    1.1231777153   -0.1568187304
 O    1.0835879369    1.8166591609    0.3140992390
 C    2.3623633307    1.1724372345    0.1750334861
 C    3.0175488543    1.2331380938   -1.2152568036
 O    4.1412435368    1.9633816111   -0.6801152112
 C    3.5177120053    2.0772083903    0.6154892862
 C   -1.2006096244    1.8631703184    0.0717427562
 N   -2.2095022170    2.4027780777    0.2272710686
 H    2.3101230723    0.1819715443    0.6266542589
 H    3.3101907848    0.2745462850   -1.6539198570
 H    2.4483889425    1.8174528572   -1.9485595940
 H    3.2037640735    3.1025745081    0.8446288036
 H    4.1556576330    1.6966978107    1.4196115075