12

 N   -0.0904393665    1.2413981288    0.1810002018
 C   -0.0325496504    0.0061959802   -0.0456363717
 O   -1.1679068860   -0.7371198783    0.1342846064
 C   -1.0701700620   -2.0790162126    0.0749044559
 N    0.0669714090   -2.7506116622    0.1661605885
 N   -0.3796004062   -4.0322946373    0.0621344875
 C   -1.7172918404   -4.0517391494   -0.0668219105
 N   -2.1952476442   -2.8212381159   -0.0656505387
 H    0.8099839969    1.6714026277   -0.0224383705
 H    0.8178109064   -0.5849405363   -0.3911954219
 H    0.2770300014   -4.7938543078    0.1047564433
 H   -2.2931287981   -4.9601883068   -0.1577388900