20

 C   -0.1055259369    1.4523011309    0.1905038101
 C    0.0093396377   -0.0401864727    0.1122115732
 C    0.3462064834   -0.9477646296   -1.1168762321
 C   -0.0051005491   -1.9100058436    0.0611068013
 C   -0.1408545236   -3.4039447839    0.0633368471
 C    0.8739889465   -1.0082498183    0.9757419137
 N   -1.1489943431   -0.9720476372    0.4164139052
 C   -2.3839670509   -0.9251740901   -0.1698186405
 O   -2.9683343315    0.0858834002   -0.5046958934
 H    0.8492545179    1.9169100381   -0.0763032880
 H   -0.8828846980    1.8107379484   -0.4872269137
 H   -0.3680076208    1.7638395844    1.2062214899
 H   -0.3635006641   -0.9144228996   -1.9463384402
 H    1.3842876132   -0.9469660854   -1.4622668479
 H    0.8248416840   -3.8654997998   -0.1655255125
 H   -0.4683745200   -3.7629611499    1.0438663703
 H   -0.8612276912   -3.7426386734   -0.6879890245
 H    1.9467737300   -1.0128967126    0.7737489407
 H    0.6410397745   -1.0362889825    2.0414881138
 H   -2.8542140778   -1.9296942533   -0.2221101725