16

 N    0.2281357057    0.8390342232   -0.6494303071
 C   -0.5293071624   -0.3077250265   -0.5489845648
 O   -1.1937854779   -0.7371737023   -1.4739485620
 N   -0.4035503155   -0.9309359360    0.6846861444
 C   -1.0586261773   -2.0605098451    1.1843431582
 N   -0.7053263844   -2.4254756307    2.3534234489
 C   -2.1022766798   -2.7483722896    0.3252245026
 C   -1.4771329931   -3.7019619530   -0.6916363996
 O   -1.7088225122   -4.8822124601   -0.7126112725
 H    0.0366433773    1.3801808523   -1.4775687016
 H    0.4542941597    1.3707597984    0.1758888991
 H    0.2768727435   -0.5742462925    1.3414487424
 H   -1.2235388034   -3.2510993095    2.6461666850
 H   -2.7587993758   -3.3317562210    0.9733287868
 H   -2.6788191552   -2.0087862257   -0.2359188622
 H   -0.8007953292   -3.2192356818   -1.4222572977