12

 N   -0.0972650998    1.2816776890    0.0077675085
 C    0.0061870896    0.0187650583    0.0005514341
 C   -1.1764872150   -0.9348093369    0.0025645744
 O   -0.6039396453   -2.2497402582   -0.0075691664
 C    0.7572337734   -2.1666524787   -0.0152251907
 N    1.5848706619   -3.1173093941   -0.0250448606
 N    1.1012211911   -0.8217231115   -0.0103256636
 H    0.8127819462    1.7435292868    0.0047863850
 H   -1.7922942899   -0.8081678928    0.8975106722
 H   -1.8027046264   -0.7989749662   -0.8837722984
 H    1.1016555009   -4.0128077440   -0.0268006046
 H    2.0655964532   -0.5343529017   -0.0144904399