18

 C   -0.1077398499    1.5516370199   -0.0417870670
 N   -0.1204652432    0.0876412135   -0.0271259572
 C   -1.1143372234   -0.7073873552    0.7936254006
 C   -0.1798149330   -1.9133614690    0.5092800703
 C    0.7154113221   -0.7218315820    0.9421727761
 C   -0.2995139797   -0.4330706869    2.1277058568
 O   -0.3338262414    0.8407579214    2.6745418376
 C   -0.4003977005   -1.4278822621    3.2734517314
 O   -0.4900741620   -1.0366386119    4.4163427832
 H   -0.1819925341    2.0523511020    0.9246937411
 H    0.8184654002    1.8649695307   -0.5361273056
 H   -0.9373376308    1.8788237084   -0.6782712925
 H   -2.1930479488   -0.6249952598    0.6483877525
 H   -0.2376284394   -2.8012706052    1.1350987161
 H   -0.0957941492   -2.1496637948   -0.5486624988
 H    1.8045813512   -0.6565437416    0.9729363376
 H   -0.4128070004    0.7050819255    3.6347746767
 H   -0.3909635679   -2.5068592027    3.0519985012