16

 N   -0.0973518363    1.4193961208   -0.2481589456
 C   -0.0053454169    0.0363445551   -0.0420655361
 C   -0.9687218463   -0.8265793195    0.3931471803
 O   -0.4467824933   -2.0830110210    0.5519103605
 C    0.8592809981   -2.0201651077    0.1975787664
 C    1.1889237960   -0.7499235891   -0.1702476037
 C    1.6569602128   -3.2491963498    0.2742841020
 C    1.2390569182   -4.4236740261    1.0556803090
 O    1.1361590800   -4.4300038201   -0.3654601819
 H    0.4609115185    1.7342999263   -1.0311275237
 H   -1.0497582191    1.7380069410   -0.3704359273
 H   -2.0130216332   -0.7150821987    0.6308911635
 H    2.1603889879   -0.4068960526   -0.4926804819
 H    2.7211734637   -3.0876630086    0.1091784124
 H    1.9980668094   -5.0808674560    1.4793449667
 H    0.2927086905   -4.3877112541    1.5912841395