14

 C    0.2700662723    1.4581957156   -0.0039502526
 N   -0.0230748527    0.0274452591   -0.0071234969
 C   -0.3502331487   -0.6582417444   -1.1495631878
 N   -0.6179026085   -1.9064792789   -1.2262783057
 C   -0.5787007354   -2.6476448571   -0.0616019604
 N   -0.8240165428   -3.8818286610   -0.0195910414
 O   -0.2428667288   -1.9685083494    1.1423633413
 C    0.0383766722   -0.6481661150    1.2115775702
 O    0.3176741792   -0.1091022771    2.2441431726
 H    1.2829206940    1.6372816230    0.3627461505
 H    0.1789165534    1.8326742944   -1.0246065466
 H   -0.4310885052    1.9877338548    0.6443934972
 H   -0.3740368562   -0.0513892266   -2.0524169707
 H   -0.7391456127   -4.2307678475    0.9345157004