18

 C    0.0262041208    1.4538262167    0.0153414037
 N   -0.0104993480    0.0096926742    0.0655038388
 C   -0.1399283675   -0.7653491373   -1.0650535155
 O   -0.2394322073   -0.4241761074   -2.2160752176
 O   -0.1360398801   -2.0710430177   -0.6314748809
 C   -0.0052129406   -2.0824920733    0.7503172853
 C    0.0189993692   -3.4133973177    1.4024164046
 C    0.0735851638   -0.8184220450    1.1994442718
 C    0.2192272022   -0.2690694597    2.5749131313
 H    0.9701324698    1.8449513820    0.4098095188
 H   -0.0660453759    1.7366200604   -1.0344250435
 H   -0.8021682860    1.8958248825    0.5792639718
 H    0.8536321664   -4.0211449960    1.0340764119
 H    0.1251189601   -3.3076928649    2.4842554988
 H   -0.9030437004   -3.9711926857    1.2015658261
 H    0.2675804970   -1.0801134655    3.3040964577
 H    1.1321259339    0.3293637950    2.6794074723
 H   -0.6251520674    0.3754528392    2.8470810048