20

 C    0.8356847107    1.5208261979    0.3323372825
 N    0.4380634890    0.1277443767    0.2457637201
 C    0.1482598017   -0.3535212254   -0.8988651152
 O    0.2443110282    0.4316537337   -2.0092931961
 C   -0.3893500531    0.0828167304   -3.2390609724
 C    0.2552345633   -1.1203554272   -3.9215032559
 C   -0.3117536353   -2.4552493658   -3.4385300134
 C   -0.4201515331   -2.6359245416   -1.9539274786
 C   -0.2466911539   -1.7707231271   -0.9470691888
 H    1.8703992240    1.6571863286   -0.0116549842
 H    0.2085814500    2.1842764674   -0.2771091820
 H    0.7873730089    1.8404486877    1.3767022580
 H   -1.4634921212   -0.0811190437   -3.0785240451
 H   -0.2763017668    0.9793906565   -3.8539977381
 H    0.1078449634   -1.0400479130   -5.0045057454
 H    1.3352891733   -1.0667435170   -3.7437782747
 H   -1.3172953792   -2.5975135051   -3.8652549733
 H    0.2826223834   -3.2827325655   -3.8489328176
 H   -0.7055254856   -3.6450545304   -1.6601429803
 H   -0.3758929076   -2.1432368271    0.0636950308