16

 N    0.1060020583   -1.1905841377    0.0599912403
 C    0.0905082393   -0.0328792878    0.0646119873
 C    0.0039806109    1.4123145670    0.0258965383
 C    0.4748239313    2.1784765798    1.2497481654
 C    1.3053974134    2.1947547377    0.0013342453
 N   -1.0928802429    2.0054333196   -0.6961341581
 C   -1.5727842866    1.3631285296   -1.9190035573
 C   -2.3983026824    1.3467849583   -0.6784369329
 H   -0.1095392564    3.0598568268    1.4837255643
 H    0.8249819248    1.6061749087    2.1001605960
 H    2.2318793509    1.6337549284   -0.0145082534
 H    1.2847632825    3.0871837301   -0.6120193348
 H   -1.8085274102    2.0415277210   -2.7331823756
 H   -1.1187150479    0.4208740533   -2.2165607487
 H   -2.4859071561    0.3938094720   -0.1619839365
 H   -3.2485252388    2.0130234432   -0.5691867894