23

 C    0.0341896261    1.5702936006   -0.0127820790
 C    0.0654520199    0.0433469720   -0.0215925832
 C    0.8750452172   -0.5773602659   -1.1881518868
 C    1.3129585139   -1.9521097258   -0.6902796027
 C    2.5387553846   -2.0040615785    0.1991361265
 O    3.3658530341   -0.8865849153    0.3532593995
 C    1.1766039261   -1.9790067263    0.8324453690
 C    0.6875184801   -3.1933898390    1.5872789438
 C    0.6677659531   -0.5942814211    1.2557678930
 H    1.0472231090    1.9777787708    0.0848034305
 H   -0.3995025846    1.9680966320   -0.9369503768
 H   -0.5606439688    1.9536325807    0.8234039247
 H   -0.9648818665   -0.3273056615   -0.1142208640
 H    0.2801733750   -0.6523406491   -2.1030444379
 H    1.7421465567    0.0544029659   -1.4202265092
 H    1.0832853030   -2.8299743217   -1.2863087111
 H    3.0686151034   -2.9570800908    0.2401568597
 H    3.8731972756   -0.7761206346   -0.4579867048
 H    1.0724266551   -4.1195925586    1.1474973252
 H    1.0084709508   -3.1668700937    2.6354918790
 H   -0.4073487222   -3.2517757199    1.5766044849
 H    1.4887833916    0.0209426992    1.6386885888
 H   -0.0766673033   -0.6799399393    2.0535530909