27

 C    0.0652302626    1.6362668112    0.0377038213
 C    0.0143680622    0.1025662650   -0.0155238190
 C    0.5810853282   -0.4326397877   -1.3463228062
 C   -0.0315541567   -1.7718380047   -1.7895979506
 C    0.3574716428   -3.0158591023   -0.9779730455
 C    0.1425333851   -2.9523286866    0.5470238540
 C    0.3145162317   -4.3535531429    1.1527225136
 C    1.1162924894   -1.9580501903    1.2161541447
 C    0.6935530572   -0.4773375470    1.2442932410
 H    1.0962331330    1.9966238967   -0.0640471013
 H   -0.5254391183    2.0842169185   -0.7683097192
 H   -0.3231786719    2.0153362168    0.9894789290
 H   -1.0456772955   -0.1867196479    0.0129770599
 H    0.3729206501    0.3041146320   -2.1323030336
 H    1.6760291538   -0.5087043877   -1.2921267231
 H   -1.1255084115   -1.6643710543   -1.7775427986
 H    0.2376805497   -1.9565602274   -2.8371108292
 H   -0.2059641572   -3.8676424321   -1.3806006157
 H    1.4176153931   -3.2475092719   -1.1577943556
 H   -0.8900486414   -2.6288412322    0.7448034874
 H    1.3381242528   -4.7199017253    1.0063893358
 H    0.1174238611   -4.3479152768    2.2298949632
 H   -0.3649297078   -5.0768495623    0.6894344690
 H    1.2908169810   -2.2677031040    2.2538552609
 H    2.0898821234   -2.0543469906    0.7177206158
 H    1.5879766175    0.1207621387    1.4667471883
 H    0.0150054755   -0.3141212348    2.0916738437