18

 C    0.0195738364   -1.1994165526   -0.0424456592
 C    0.0377360768    0.0010770789   -0.0109955950
 C    0.0105095128    1.4595289083    0.0477541070
 C   -0.7507606176    1.9751537298    1.2855335243
 C   -0.6948800453    3.5079925188    1.3383635345
 C    0.7568991871    3.9914184759    1.2192892087
 C    1.4204171182    3.3537593800   -0.0022540430
 O    1.3537208848    1.9355216726    0.0395691840
 H    0.0152402506   -2.2607094046   -0.0780184289
 H   -0.5051566872    1.8366222213   -0.8552597358
 H   -1.7839024034    1.6146994963    1.2514039262
 H   -0.2803389596    1.5437161681    2.1761092011
 H   -1.2850026122    3.9213591699    0.5087206780
 H   -1.1545078971    3.8736691383    2.2623725282
 H    0.8033942888    5.0833453501    1.1379434330
 H    1.3195283813    3.7050037255    2.1161055563
 H    0.9411152627    3.7249498928   -0.9255384756
 H    2.4846781430    3.5995563905   -0.0558696638