21

 C   -0.0367171772    1.6347577685   -0.3923768316
 C   -0.0240698125    0.2135064963    0.1819071619
 C   -1.3766270796   -0.4641038586    0.0702376618
 O   -1.8530589549   -0.6038058512   -1.3081757042
 C   -2.1481310233   -1.9852738574   -1.0907267487
 C   -0.8862541361   -2.7624880361   -0.8215768895
 C   -1.5585849940   -1.9746374103    0.2885963669
 O   -2.0335251437   -2.5479823243    1.4431049615
 C   -1.0146663306   -2.9398647612    2.3516450317
 H    0.9501114120    2.1004881510   -0.3151874464
 H   -0.3266790866    1.6168621309   -1.4464822993
 H   -0.7510730963    2.2711723762    0.1413288793
 H    0.7307580814   -0.3904090495   -0.3338635292
 H    0.2568908825    0.2372702159    1.2433638476
 H   -2.1340827450    0.0828126279    0.6491455091
 H   -3.0657447333   -2.3890388550   -1.5005572939
 H   -1.0354654692   -3.8343564231   -0.7277642366
 H    0.0512488616   -2.4568650683   -1.2767445849
 H   -1.5118362457   -3.4230450154    3.1954043747
 H   -0.3160290112   -3.6483854040    1.8868616128
 H   -0.4442652682   -2.0765889221    2.7211239471