19

 C    0.0595502470    1.5300476752   -0.0292056763
 C   -0.0315524325    0.0315896521   -0.0477221651
 C   -1.1617299915   -0.6434924231   -0.2642033608
 C   -1.2013999048   -2.1283371609   -0.1480491606
 O   -1.4856270840   -2.8574087872   -1.3767268532
 C   -0.3124200142   -3.6791187288   -1.1940289862
 C    0.1711668207   -2.8211136177   -0.0159525275
 O    1.2629151962   -2.0147100310   -0.3938004511
 C    1.2570336697   -0.7259140119    0.1914731637
 H    0.7378467742    1.8939800252   -0.8113757176
 H   -0.9193249298    1.9923796492   -0.1787947175
 H    0.4624828625    1.8915050887    0.9259746138
 H   -2.0934092129   -0.1263424821   -0.4806055012
 H   -1.9119590615   -2.4353726092    0.6338956597
 H   -0.5720932610   -4.7137027149   -0.9353039859
 H    0.3512212616   -3.6653320009   -2.0643493261
 H    0.3695484028   -3.3312081811    0.9361793095
 H    2.0950632708   -0.1907067090   -0.2688079462
 H    1.4727964468   -0.7807324826    1.2743805386