17

 C   -0.0179979932    1.5716528778    0.0474940303
 C   -0.0399808793    0.0700379824    0.0620860041
 C    1.1291216072   -0.7879784701   -0.3544594047
 C    0.5868329223   -0.9495209104    1.0417990495
 C    1.3417480881   -0.7299146825    2.2319239920
 N    1.9407175840   -0.5321069476    3.2028048692
 N   -0.5950024232   -1.8450954697    1.0117231235
 C   -1.7230474793   -1.0293409652    1.5106407767
 C   -1.2716820566   -0.8024626322    0.1198395314
 H    0.9715884403    1.9518581476    0.3180441300
 H   -0.2587563779    1.9538675714   -0.9512205559
 H   -0.7443237049    1.9873781690    0.7525461139
 H    0.9989517162   -1.6199371006   -1.0404934701
 H    2.0814331818   -0.2722562178   -0.4277273951
 H   -2.6263079014   -1.6138445453    1.6542858320
 H   -1.5307070547   -0.2825305908    2.2764785426
 H   -1.8585415196   -1.1127948062   -0.7390774192