15

 N   -0.0770405812    1.2668118557    0.3986865718
 C   -0.0088823701    0.0811952455   -0.0165040190
 O    1.1741430662   -0.5754144919   -0.2063172860
 C    1.2579157402   -1.7044216634   -1.0708833367
 C    0.0360750955   -2.6137091387   -0.8835274414
 C   -1.2001991337   -1.7226892105   -1.0707439855
 O   -1.1527369684   -0.6262461732   -0.1695484287
 C    0.0491117374   -3.7228328904   -1.8298778760
 N    0.0596723374   -4.5905017552   -2.5927423317
 H    0.8601982455    1.6422117251    0.5275682303
 H    1.3185428378   -1.3740996485   -2.1160198753
 H    2.1874400406   -2.2142720974   -0.8127618666
 H    0.0355999544   -3.0125192101    0.1373165088
 H   -1.2502037068   -1.3648734817   -2.1076908745
 H   -2.1233975748   -2.2572024353   -0.8431467394