19

 C   -0.0668589699    1.4097830062   -0.6761948516
 C    0.0144526629    0.0265486843   -0.0665647725
 C    1.2985865612   -0.6956284142   -0.0441403860
 O    0.7974453493   -0.0506305450    1.1309870894
 C   -1.2779617556   -0.7542886342   -0.0380250379
 C   -1.5482133079   -1.7213462252    1.1134899018
 C   -2.3045466393   -0.4417926458    1.0457241117
 C   -1.8247273187   -1.1759981999   -1.3571613786
 O   -2.8974143944   -1.7096691436   -1.5149637234
 H    0.9068320587    1.9039052864   -0.6403592197
 H   -0.3946975250    1.3626185696   -1.7202474410
 H   -0.7881579542    2.0243724600   -0.1280297890
 H    1.3033297788   -1.7839500536   -0.0089410576
 H    2.1840854701   -0.2378783816   -0.4823874937
 H   -2.0689382048   -2.6340812240    0.8485613342
 H   -0.7557019109   -1.8051320227    1.8468824081
 H   -2.0383970056    0.3435039314    1.7443439317
 H   -3.3427090143   -0.4770830632    0.7364074276
 H   -1.1556789105   -0.9824041249   -2.2260061137