18

 C   -0.1623337339    1.5527681987    0.0662704391
 C    0.0213207311    0.0587196219   -0.0423439776
 C    0.5998082002   -0.6612331479   -1.2325262386
 C    1.4059018806    0.1254892840   -2.1860053630
 C    2.4778608095    0.6578325159   -1.5732614557
 C    2.5119308313    0.2238703713   -0.1210632218
 N    1.3121003422   -0.6261369194    0.0799410088
 C    3.4701235661    1.5318869367   -2.1939014058
 O    4.3874628450    2.0491936777   -1.5925105608
 H    0.5081434114    2.1177979421   -0.5833457423
 H   -1.1914731683    1.8181313894   -0.1957277978
 H    0.0086727070    1.8786140326    1.0985663605
 H   -0.7572378330   -0.5011135144    0.4752650381
 H    0.1609765632   -1.6031387295   -1.5520190142
 H    1.1544515456    0.2439623375   -3.2339863141
 H    3.4096658506   -0.3630560827    0.1018345175
 H    2.5141494196    1.0756494144    0.5688326803
 H    3.3337639019    1.6911728317   -3.2869095628