14

 N    0.0731409660    1.3421214685    0.1114395260
 C   -0.0181529465   -0.0111160340    0.0245055359
 C   -1.1134934941   -0.8123413147    0.0245001810
 C   -0.6971987464   -2.2119392719   -0.0119286415
 O   -1.3588804648   -3.2138691059   -0.1010748991
 N    0.7758880629   -2.2512891414    0.0608948142
 C    1.4033322311   -1.7604657000   -1.1739173042
 C    1.2115133854   -0.8577362214    0.0035470167
 H    0.9291463131    1.7882666700   -0.1742236268
 H   -0.7611432137    1.8941103669   -0.0036048830
 H   -2.1495617755   -0.5083752572   -0.0186986706
 H    2.3914473060   -2.1608843670   -1.3850096732
 H    0.7657379777   -1.6001696557   -2.0399360864
 H    2.0582112289   -0.5709812864    0.6218134908