20

 C   -0.6670712988    1.5121351333    0.3163898923
 C   -0.0781732931    0.1383998616    0.1001155250
 C   -0.8176834840   -1.0855262391    0.5915259233
 C    0.4996091482   -0.6985204919    1.2249097915
 C    1.7554286450   -1.3962452995    0.7326543166
 C    1.6314633309   -1.3509720575   -0.8195938244
 C    0.8159406135   -0.0606584215   -1.1190519459
 C    2.9175533293   -1.3980598784   -1.5057616486
 N    3.9398050010   -1.4266178610   -2.0450687512
 H    0.1158583510    2.2788114690    0.3509455809
 H   -1.3583898119    1.7808949765   -0.4909096702
 H   -1.2248523490    1.5602624884    1.2567706986
 H   -1.7122954983   -0.9083599452    1.1791454913
 H   -0.8779884472   -1.9764817211   -0.0264421760
 H    0.4894969374   -0.3342133286    2.2466106104
 H    2.6418826212   -0.8382676146    1.0519428343
 H    1.8671694301   -2.4236347027    1.0925935125
 H    1.0587784808   -2.2210876007   -1.1562023063
 H    0.2649092203   -0.1447558557   -2.0612518082
 H    1.4949263239    0.7942543487   -1.2137237160