21

 C    0.0168509018    1.5826880913    0.1559299029
 C    0.0636384818    0.0767840403    0.0321754895
 C   -0.8510069080   -0.7530735359    0.8965342218
 C    0.6476483321   -0.8129029668    1.1501278103
 C    1.3067720958   -1.9795545914    0.4761713340
 C    1.2880362240   -1.7969675358   -0.8455616425
 C    0.9888283230   -2.5137539879   -2.1444279558
 C   -0.1548490963   -1.4447588814   -2.3130447140
 C    0.5882813332   -0.5294422699   -1.2639466713
 H    0.9732888569    2.0341709291   -0.1326068019
 H   -0.7587750189    2.0092236613   -0.4917432434
 H   -0.2029026145    1.8964373496    1.1813477872
 H   -1.4569844807   -0.2037966567    1.6109351377
 H   -1.3314520411   -1.6383750022    0.4919765786
 H    1.0344347753   -0.3881894819    2.0715060226
 H    1.5653855799   -2.8913762037    1.0035725338
 H    1.7646319187   -2.3832896635   -2.9064748518
 H    0.7093057688   -3.5685941860   -2.0977191859
 H   -0.2952459328   -1.0287496611   -3.3134088534
 H   -1.1084767915   -1.8154182732   -1.9312388871
 H    1.2318362923    0.1832020759   -1.7964019714