16

 C    0.0112916984    1.5446829008    0.2098880597
 C   -0.0181342650    0.0322985224   -0.0851381848
 C   -1.4008154486   -0.5293113611   -0.1243679711
 C   -2.0834200294   -1.0379197966   -1.1812057313
 C   -3.4044420246   -1.4467949059   -0.7235864210
 O   -4.3404667510   -1.9399677082   -1.3045608587
 C   -3.4170041384   -1.1065693730    0.8166435528
 O   -4.2893484811   -1.2805895675    1.6227164360
 N   -2.1638655933   -0.5509761315    1.0463339073
 H    1.0436689213    1.9030428300    0.2312374823
 H   -0.5303120718    2.1009419729   -0.5599946083
 H   -0.4447762479    1.7790062733    1.1763012598
 H    0.4647218438   -0.1715519671   -1.0443729807
 H    0.5578755422   -0.5003401021    0.6836843938
 H   -1.7114165855   -1.1241407415   -2.1900466541
 H   -1.8402025191   -0.2596577250    1.9541595684