15

 N   -0.0521065478    1.2611129543   -0.0242512563
 C   -0.0361670100    0.0071197213   -0.0106287552
 O    1.1132806659   -0.7794627914   -0.0401778648
 C    0.7182765870   -2.1424940418   -0.0732298176
 C   -0.6480533995   -2.1241034850   -0.7613205108
 C   -1.2172819914   -0.9478800732    0.0448438294
 N   -1.4092362175   -1.3734833210    1.4462890227
 C   -0.5262784178   -2.1585276877    1.9029478797
 O    0.5812759038   -2.6327320853    1.2638324975
 H    0.8964105708    1.6406263141   -0.0501858288
 H    1.5151899906   -2.7264928939   -0.5287139500
 H   -0.5399402699   -1.8906904090   -1.8230888914
 H   -1.2046125886   -3.0534474253   -0.6353434748
 H   -2.1308444947   -0.4956902347   -0.3327942618
 H   -0.5811862410   -2.5508241515    2.9150709623