23

 C   -0.4486542048    1.3360669180    0.9815906320
 C    0.2992790120    0.1471653385    0.3927225717
 O    0.9595840358    0.6261984375   -0.7808284894
 C    2.0747083336   -0.1394425454   -1.2423125444
 C    2.9084117342    0.7940867953   -2.1101255413
 C    2.8539332905   -0.7279871358   -0.0524448056
 C    1.9403308782   -1.7315151450    0.6974066668
 C    1.3149109581   -0.4795682261    1.3648534099
 C    2.6914246427    0.2191528294    1.1711041287
 H    0.2518307019    2.0927646767    1.3486930746
 H   -1.0804773838    1.7985179020    0.2184575357
 H   -1.0845272958    1.0160278547    1.8128634925
 H   -0.4319409417   -0.6301035368    0.1079716834
 H    1.7100523138   -0.9759116617   -1.8646198860
 H    3.3521117325    1.5924770228   -1.5070217557
 H    3.7131911010    0.2415966176   -2.6049589810
 H    2.2806257131    1.2555232293   -2.8771980113
 H    3.8526396201   -1.0498949073   -0.3577126493
 H    1.2841685762   -2.3718072037    0.0971160450
 H    2.4965363253   -2.3473326862    1.4093143601
 H    0.8923689699   -0.5720633292    2.3684150709
 H    3.3891982358   -0.0329972930    1.9730100799
 H    2.7033494213    1.2972190483    0.9950957829