13

 N   -0.1649289671    1.1548423289   -0.5524204343
 C    0.0016431478    0.0013330405   -0.0374771188
 C   -1.2400414962   -0.7103719921    0.3985862640
 N   -1.5211414484   -1.9460451725    0.2977522295
 C   -0.6961822039   -2.9186553090   -0.2765308243
 O   -1.1315512433   -3.8397994383   -0.9174100951
 N    0.6803142140   -2.8856629328    0.0456827584
 C    1.4943928316   -1.8084872601    0.2849142642
 N    1.2524091974   -0.5542001312    0.2375899770
 H    0.7451800141    1.5539072885   -0.7996262022
 H   -1.9946293045   -0.0605517296    0.8454422225
 H    1.1381075420   -3.7708918675   -0.1333202635
 H    2.5146378066   -2.1126402646    0.5209777026