19

 C    0.6659663003    1.1801215154   -0.6936241373
 C    0.3201689950   -0.0612239462    0.1155858473
 O   -0.2257775865   -1.0970883937   -0.7139928070
 C    0.6492610077   -1.9438486156   -1.2706548614
 N    0.2473259946   -2.8133086089   -2.0934775849
 C    1.1824513625   -3.7538318119   -2.6864732330
 C    1.0866649755   -3.6836406990   -4.2215284966
 C    2.5894650185   -3.5946115059   -2.2545155170
 N    3.6756236518   -3.4297830949   -1.8934253981
 H    1.4621825745    0.9720740133   -1.4150472325
 H   -0.2107349329    1.5369364912   -1.2408343335
 H    1.0095390814    1.9779605001   -0.0276656430
 H    1.1969001221   -0.4421419326    0.6546501900
 H   -0.4585390654    0.1534662191    0.8516523282
 H    1.6891489721   -1.8189170346   -0.9394017560
 H    0.8736918799   -4.7609323193   -2.3752985277
 H    1.4142887926   -2.7039589826   -4.5780138727
 H    1.7066127593   -4.4547001242   -4.6860476000
 H    0.0444746970   -3.8301603696   -4.5121530748