18

 C    0.0033781284    1.5481931845    0.1092103808
 C    1.5545205286    1.5460476546   -0.0740343911
 C    1.5423364942    0.0158951939    0.0205730556
 N    2.4080454597   -0.8357507494   -0.7713604531
 C    2.6898324028   -1.8222140748   -0.0214316968
 O    2.2101127957   -1.8795016954    1.2503852116
 C    1.4482274469   -0.6619767846    1.4234448956
 C   -0.0833913890   -0.8213568989    1.2660930334
 C   -0.0303711513   -0.0036000209   -0.0541121009
 H   -0.3361792118    1.8929166635    1.0902283943
 H   -0.5462600315    2.1020297676   -0.6538729520
 H    1.8514862157    1.8681360692   -1.0751820772
 H    2.1581855307    2.0857913324    0.6617915087
 H    3.3079581437   -2.6692420140   -0.2984990960
 H    1.8221718006   -0.1505006518    2.3141290182
 H   -0.3581649682   -1.8689528732    1.1192330584
 H   -0.6950493878   -0.4066582073    2.0728409301
 H   -0.5711011474   -0.3867510954   -0.9195534595