19

 C    0.3054157959    1.4674587256    0.2827805054
 C   -0.1991116028    0.0852530220   -0.1707972174
 C    0.5375514008   -0.4448648796   -1.3130817534
 C    1.1589428361   -0.8586527847   -2.2569850102
 C    1.9147996951   -1.3821289315   -3.4009374296
 C    2.0944308115   -2.9127261221   -3.2839313482
 N    1.1794342179   -1.0937766587   -4.6447328941
 C    3.2634536040   -0.7439325613   -3.4058497678
 N    4.3066890925   -0.2494974505   -3.4719461117
 H    1.3578507740    1.4208993695    0.5742060191
 H    0.2105362606    2.1998170419   -0.5232161021
 H   -0.2759191743    1.8194632211    1.1397521884
 H   -0.1296532691   -0.6256527645    0.6621937860
 H   -1.2640811803    0.1454228504   -0.4282450602
 H    1.1066527855   -3.3763099611   -3.2818898901
 H    2.6678273812   -3.2883097705   -4.1365076170
 H    2.6240435661   -3.1691794016   -2.3648088255
 H    1.0167343714   -0.0937242562   -4.7193914373
 H    1.7520756137   -1.3614976882   -5.4416343044