15

 O   -0.0742580341   -0.0284131165    0.2300859490
 C   -0.0045351594    1.1506251916    0.0529658313
 O   -1.1379734787    1.9235152179   -0.1363082133
 C   -0.8322365396    3.2280045599   -0.6865629872
 C    0.6577608327    3.3865441018   -0.4930776322
 C    1.2663660529    3.2783941298    0.8542200677
 C    1.1867067578    2.0472996178   -0.0405556809
 C    2.1497962845    2.1933717948   -1.2270138822
 O    1.6080264596    3.5136487021   -1.5544082727
 H   -1.0849858550    3.2418048315   -1.7514360657
 H   -1.4463766309    3.9594321667   -0.1559146374
 H    2.2460389485    3.7096093439    1.0284078007
 H    0.5906540737    3.2920617422    1.7022457802
 H    3.2191407517    2.2352481165   -0.9989350087
 H    1.9637020562    1.4807730698   -2.0357233285