15

 C   -0.1569440653    1.5357047792    0.0181401518
 C    0.1019516158    0.0403168327    0.0265462402
 O    1.2122444441   -0.4444788146    0.1343945244
 N   -1.0241469892   -0.7408825282   -0.0698090712
 C   -1.0159241075   -2.1289080793   -0.0337260830
 C    0.0049744615   -3.0180631661    0.0825790339
 O   -0.5621667008   -4.2721766953    0.0612807784
 C   -1.8802824849   -4.0537185814   -0.0658264510
 N   -2.2215853685   -2.8058255548   -0.1284600076
 H    0.6989430354    2.0349386300   -0.4374768528
 H   -1.0693557776    1.8085444221   -0.5189711270
 H   -0.2458137101    1.8935508283    1.0495091657
 H   -1.9350526427   -0.3190683129   -0.1592320166
 H    1.0695006905   -2.9442593671    0.1776906559
 H   -2.5226182208   -4.9190877626   -0.1034763212