17

 C   -0.2548838797    1.3241195220   -0.0551831056
 O    0.1645967934   -0.0246194611    0.0894958164
 C    0.7409631859   -0.5350413703   -1.0499503720
 C   -0.0334794119   -1.0014387702   -2.2526370624
 C    0.8284342121   -1.9809132295   -1.4703953071
 C    2.3470318790   -1.7815120393   -1.7558669674
 N    2.5215539028   -0.7078022376   -2.7719792209
 C    2.2729811078   -0.3672449055   -1.3484460380
 H    0.5896338207    1.9893504865   -0.2842130674
 H   -1.0037312397    1.4257092619   -0.8521037765
 H   -0.6956092523    1.6246028248    0.8979238255
 H   -1.0939056573   -1.1223814224   -2.0515339480
 H    0.2282582087   -0.7063755890   -3.2605451946
 H    0.4194691227   -2.8573237646   -0.9862123141
 H    3.1202699570   -2.5179624840   -1.5811784633
 H    3.5240267900   -0.6099999821   -2.9339687323
 H    2.9598488208    0.2334824107   -0.7661587923