18

 C    0.0236307340    1.4625570848    0.0371980340
 N   -0.0617499111    0.0157031248    0.0655819694
 C   -1.2280226935   -0.6546926546   -0.0896965434
 O   -2.3254217836   -0.1385813284   -0.2270946751
 C   -1.0896054464   -2.1911968967   -0.0889044568
 C   -1.0651803068   -2.7216411064   -1.5161012518
 O    0.1137959423   -2.6243740219    0.5584604782
 C   -2.2809621563   -2.7520750492    0.7057899003
 O   -3.0822958097   -3.5373188541    0.2857374889
 H    0.4765226123    1.8501358979    0.9559009694
 H    0.6136776640    1.8105928470   -0.8177495711
 H   -0.9928203288    1.8483537382   -0.0520502966
 H    0.7711670370   -0.5460889569    0.1541750275
 H   -0.1654730255   -2.3727102493   -2.0292924169
 H   -1.0738833416   -3.8130388385   -1.5065898657
 H   -1.9467308864   -2.3680159053   -2.0533533832
 H    0.0365510611   -2.4421499527    1.5037071192
 H   -2.3098219612   -2.3975842089    1.7642966937