21

 C    0.5984170189    1.3631112344    0.0155041728
 C   -0.0448506312   -0.0193718271    0.0031555233
 C    0.6332673115   -1.0383253898   -0.9710894219
 C    1.2787552955   -1.6989147036    0.2515368408
 C    0.3608627567   -0.9327288078    1.2059861588
 O    1.5695011901   -3.0828048263    0.3687747494
 C    2.6604158467   -2.1401538708    0.4697308566
 C    3.6803336810   -2.2536499483   -0.6337975769
 O    4.4390955917   -3.4450402094   -0.5088216530
 H    1.6839593971    1.2943723865    0.1527138603
 H    0.4160142307    1.8932533591   -0.9255017455
 H    0.1995870452    1.9771233382    0.8301376923
 H   -1.1244427587    0.0743205145   -0.1369590458
 H   -0.0820023992   -1.7095843979   -1.4547065186
 H    1.2966438613   -0.6222097595   -1.7343219702
 H    0.8275306018   -0.4429648234    2.0652931746
 H   -0.4598825639   -1.5628225246    1.5601809562
 H    3.0750692881   -2.0610685996    1.4764473610
 H    3.1753401618   -2.1985229722   -1.6094822903
 H    4.3946925006   -1.4247744936   -0.5754358881
 H    3.8041231642   -4.1702471188   -0.4840835559