17

 C    0.6483954765    1.4112879284   -0.2088138983
 C   -0.0863777632    0.1041608853    0.0821994107
 N    0.0472519725   -0.8637101402   -1.0394784622
 C    1.2929575672   -1.6187598852   -0.8315101464
 C    1.6660387014   -1.4046915358    0.6330479658
 O    2.7013158292   -1.6607494463    1.1959146121
 C    0.5096118521   -0.6561168124    1.2905319591
 O    0.9299694768    0.1045953312    2.3847750608
 H    1.7146062404    1.2412428071   -0.3961353457
 H    0.2231361907    1.8902469767   -1.0939704726
 H    0.5698136750    2.0874196276    0.6455367876
 H   -1.1490951179    0.3127648002    0.2289656932
 H   -0.7410758731   -1.4998183206   -1.0240221460
 H    1.1801580462   -2.6824052278   -1.0633310645
 H    2.1100717713   -1.2428456478   -1.4605696325
 H   -0.2286381684   -1.4218625833    1.5982009619
 H    1.8051696735   -0.2380018070    2.6245242170