18

 N   -0.0792549981    1.3061834548   -0.0857481599
 C   -0.0115275934    0.0404156532    0.0091197021
 O    1.2050496575   -0.6025752375    0.0155854267
 C    1.2811752890   -1.9443550882    0.5349519343
 C    0.2347605448   -2.8076073811   -0.1453086372
 C   -0.4748541523   -4.0133874496    0.5578628121
 C   -1.8577793919   -3.3821980960    0.1652616325
 C   -1.0963952033   -2.1025326391   -0.0843191566
 C   -1.2240309134   -0.7896805990    0.0841844798
 H    0.8635260484    1.7008481647   -0.1110458925
 H    2.3104476676   -2.2614187503    0.3509178984
 H    1.1086210141   -1.9254009107    1.6199465923
 H    0.5362620721   -3.0621648192   -1.1679228403
 H   -0.2549835590   -5.0104626997    0.1728756301
 H   -0.3191541708   -4.0020254894    1.6396197888
 H   -2.2565160767   -3.8252671642   -0.7538797383
 H   -2.6519091227   -3.3633507615    0.9154185130
 H   -2.1566177818   -0.2736474273    0.2772978446