18

 C    0.0655576209    0.8029922269   -0.6646534724
 O   -0.2970858863    0.6090506232    0.7067513584
 C    0.4783939364   -0.2802437749    1.3689594510
 C    0.8701976890   -1.5754741493    1.1414494484
 N    0.5925041908   -2.3748816664    0.0091423610
 N    1.6511774643   -2.0150927931    2.1884129108
 C    1.7246159966   -1.0202987050    3.0484348395
 C    2.4595421425   -1.0371737230    4.3459984276
 N    1.0184835707    0.0599450887    2.5963153856
 H    0.0727917511   -0.1484557406   -1.2053304761
 H   -0.6852464327    1.4730521809   -1.0876485931
 H    1.0573807374    1.2651214279   -0.7410583859
 H   -0.3714948391   -2.6946265600    0.0040569788
 H    1.1836454691   -3.1988795183    0.0439882117
 H    3.2408648709   -0.2686565765    4.3896683208
 H    1.7908740026   -0.8751380470    5.2000404956
 H    2.9323892089   -2.0134078673    4.4620761630
 H    0.8931569870    0.9499437238    3.0488943852