16

 O   -0.0895271351    0.0253296528    0.2834852896
 C   -0.0419067067    1.1939090298    0.0439377572
 O   -1.1633841883    1.9707759588   -0.1337842896
 C   -0.7898220726    3.3427914350    0.0002050012
 C   -0.4593410563    3.8075018915    1.4558387188
 C    1.0703216741    3.7821236779    1.1385949052
 C    1.7216029266    2.3873839942    1.2615021459
 N    1.1238228260    1.9903540129   -0.0698615965
 C    0.7119586353    3.3947507546   -0.3307764059
 H   -1.5013685178    3.9439300272   -0.5632680867
 H   -0.8198488069    4.8215437818    1.6441069222
 H   -0.8173324338    3.1536455585    2.2553913339
 H    1.6572508577    4.6546580716    1.4208361765
 H    2.8126184474    2.4054074410    1.1986976301
 H    1.4178214679    1.7436040688    2.0917058482
 H    1.1012764526    3.8415759436   -1.2454562401