19

 C   -0.4105824187    1.4482879754   -0.1456137296
 N   -0.0173196460    0.0542965854    0.0115617307
 C    1.2965520290   -0.4722310102   -0.3031791293
 C    2.5063536985    0.3764759886   -0.6276585034
 O    2.7003074077    1.5349496866    0.1890628306
 C    2.3319459217    1.5772343885    1.5013261754
 N    2.6165040378    2.5803342659    2.2204540779
 C    1.5583928979    0.4161894186    2.0857998076
 C    0.8018502324   -0.4557984737    1.1019267950
 H    0.3165270976    2.1992746725    0.1824665419
 H   -0.6272265043    1.6263981904   -1.2038319224
 H   -1.3397297114    1.6049718002    0.4112445818
 H    1.2919678509   -1.3989675689   -0.8784226004
 H    3.4003404825   -0.2612810921   -0.5661584401
 H    2.4528406776    0.7634873964   -1.6507601497
 H    3.1601395145    3.2560208375    1.6794104885
 H    2.2744131036   -0.2323436082    2.6088696502
 H    0.9054161752    0.8258487862    2.8608948277
 H    0.4178733437   -1.3721888790    1.5482146775