19

 C   -0.0285811871    1.4981293076   -0.0026474097
 C   -0.0295092798    0.0421523255   -0.0008065513
 C   -0.0333611201   -1.1620204056    0.0028738392
 C   -0.0428793513   -2.6190107768    0.0156600830
 C    0.7247816677   -3.2578187767    1.2134442696
 C    0.0891345342   -4.6528267706    1.4117097307
 C   -1.3397005699   -4.4679990072    0.9386035995
 O   -1.9605100327   -3.2763358407    1.4475090483
 C   -1.4298607798   -3.2548159618    0.1205157306
 H    0.7327572453    1.8966933216    0.6772034648
 H    0.1793374943    1.8970607883   -1.0018064087
 H   -0.9977027207    1.8963879183    0.3178252851
 H    0.3933131173   -2.9864543653   -0.9255404769
 H    1.8002208279   -3.2986294605    1.0303994541
 H    0.5577200279   -2.6435447652    2.0991326249
 H    0.5740991799   -5.4111357373    0.7841920895
 H    0.1523807442   -4.9959906699    2.4489402480
 H   -2.0035895912   -5.3185886409    0.8055283158
 H   -2.1546098262   -3.1139506730   -0.6769933763