18

 C   -0.1112918211    1.5671110243    0.1390383228
 C   -0.0689482620    0.0704048567    0.0318471006
 N    1.1182052012   -0.5720653126   -0.4970810327
 C    0.7089085013   -0.9741180463    0.8612937744
 C    1.6456861728   -0.7300298084    1.9733846643
 O    1.5493156912   -1.2481912130    3.0606023246
 C   -0.4976335218   -1.8840662728    0.8690648988
 C   -1.6907195119   -1.1768928494    1.4531196866
 C   -1.2752892708   -0.8544131217    0.0402846924
 H    0.8836158752    1.9745333220    0.3306347189
 H   -0.4743804799    2.0003172291   -0.8005221587
 H   -0.7882756949    1.8859164567    0.9372202963
 H    0.9062938033   -1.3070612522   -1.1690064817
 H    2.4596519897   -0.0136284952    1.7302000689
 H   -0.4683664561   -2.9586739482    0.7353982292
 H   -2.5907913256   -1.7765674044    1.5532957404
 H   -1.5508088306   -0.4491941396    2.2466389853
 H   -1.9231672901   -1.0374989350   -0.8097635002