20

 C   -0.0292653849    1.5236466269   -0.0137908681
 C    0.0677076257    0.0070840608    0.0350065587
 O    0.8218976360   -0.4163998007   -1.1050004051
 C    0.8087769913   -1.8310318887   -1.2652552873
 C    1.4481931756   -2.5428018553   -0.0709951154
 C    0.8039512313   -2.0693600662    1.2414621867
 C    0.7661697870   -0.5320192180    1.2965554498
 O    2.0750274053    0.0152649228    1.4046204762
 H    0.9580726670    1.9761460249    0.1043045116
 H   -0.4541114258    1.8445621483   -0.9681769738
 H   -0.6697463734    1.8870466873    0.7956002959
 H   -0.9438004334   -0.4304209308   -0.0218507773
 H   -0.2311569726   -2.1749803103   -1.3982125914
 H    1.3510523301   -2.0370531844   -2.1928101145
 H    1.3494672488   -3.6275379529   -0.1881993661
 H    2.5218427558   -2.3213199104   -0.0535219413
 H   -0.2231199113   -2.4520393577    1.3133989925
 H    1.3556611826   -2.4510996911    2.1057557495
 H    0.2226150408   -0.2030521088    2.1896729238
 H    2.4383287640    0.0156566643    0.5099560257