17

 C   -0.0386315935    1.4996493327    0.2051300736
 N    1.4588223553    1.4982208966   -0.0318887912
 C    1.2499947483    0.3161282027   -0.8602695634
 C    0.0346647088   -0.0430091955   -0.0673796723
 O   -0.6904834532   -0.8963499781   -0.9536159893
 C    0.2883089019   -1.0587960094   -1.9794994330
 C    0.8276557616    0.3138888518   -2.3900235682
 N    2.1893505793   -0.2207654275   -2.7524822092
 C    1.8407236263   -0.9607771705   -1.4939245815
 H   -0.3309012084    1.8247533115    1.2057564010
 H   -0.6084017875    2.0427305543   -0.5576600081
 H    1.8273826373    2.3086206698   -0.5196172473
 H    0.2352713225   -0.5725344092    0.8686604403
 H   -0.0004367779   -1.8145095108   -2.7100981158
 H    0.3260546619    1.0942738805   -2.9638422606
 H    2.1031057714   -0.8458116697   -3.5608722847
 H    2.4821187059   -1.7273999893   -1.0581863402