11

 N   -0.0292876870    1.3608320290    0.0100271716
 C    1.2882932651    1.7582858125   -0.0003983511
 N    2.1418678389    0.7692828816   -0.0144240575
 N    1.3170798036   -0.3345445222   -0.0125259386
 C    1.3357052231   -1.7058753857   -0.0205362733
 N    0.0955962018   -2.1421224577   -0.0104981869
 N   -0.7879599761   -1.0656314334    0.0039852003
 C   -0.0073062554   -0.0163430532    0.0022483984
 H   -0.8436595699    1.9487542901    0.0217071424
 H    1.5816947161    2.7963370167    0.0025649174
 H    2.2298754698   -2.3047199976   -0.0327376727