20

 O    0.4009220090    1.0065603662   -0.4239106195
 C    0.0304664792   -0.2985205409   -0.0315979905
 C   -1.4636336126   -0.3815903221    0.2771938288
 N   -2.1898092286    0.0834827480   -0.9100752691
 C   -2.7209728291   -0.9223508083   -1.8300761266
 C   -3.6388175751   -0.0993630960   -0.9957717430
 C   -4.4311498805   -0.7226184549    0.1141000519
 C   -5.3996299324   -1.7974232299   -0.1495895846
 O   -4.1436351573   -2.0750688458    0.4725733410
 H   -0.3062273439    1.2958067043   -1.0167282683
 H    0.2800264677   -1.0394290220   -0.8109361902
 H    0.6115253875   -0.5538842509    0.8611958945
 H   -1.7418685086   -1.3975158928    0.5887800462
 H   -1.6949835085    0.3059766981    1.0991447280
 H   -2.6036957678   -0.7127125624   -2.8895439743
 H   -2.6178199812   -1.9666085435   -1.5439055791
 H   -4.1539018753    0.7447459389   -1.4548059359
 H   -4.6218986413   -0.0735288770    0.9703179943
 H   -6.2716050306   -1.9104277058    0.4919539109
 H   -5.5085997306   -2.1748425832   -1.1648366344