17

 N   -0.0803543897    1.3002510287   -0.3648390959
 C   -0.0336385340   -0.0650905268   -0.1559354777
 C   -1.1958003548   -0.8526633385   -0.2477346931
 C   -1.0916131809   -2.2242791095   -0.0834645805
 C   -2.3181297073   -3.1115201891   -0.1515226760
 O   -3.4184899818   -2.5316829087   -0.8273049413
 C    0.1742077675   -2.7710125335    0.1622425966
 C    1.2563922185   -1.9076430738    0.2391261661
 N    1.1760117480   -0.5824021392    0.0888729415
 H    0.7375990572    1.7886936529   -0.0319391915
 H   -0.9530681816    1.7626839503   -0.1650681001
 H   -2.1613057517   -0.3999997981   -0.4434925510
 H   -2.0399041892   -4.0830912211   -0.5883906907
 H   -2.6758723284   -3.3169752652    0.8648371642
 H   -3.1454340883   -2.3604474493   -1.7350300509
 H    0.3106045704   -3.8395544191    0.2887838366
 H    2.2535534862   -2.2985239800    0.4308380637