14

 N   -0.2075694712    1.4039776712    0.0770818268
 C   -0.0826632845   -0.0246811284    0.0418694041
 C    1.0229252759   -0.5787109843   -0.7190099935
 N    1.9287364582   -0.9786126677   -1.3181474073
 C   -0.4910533399   -0.8607425540    1.2538272534
 N   -1.5682742705   -0.2308945833    2.0021522440
 C   -2.3950265256   -0.1574175337    0.8598591511
 O   -3.4797135512    0.3049042655    0.6806964091
 C   -1.3513821785   -0.8950743791    0.0110488160
 H    0.6762385083    1.8417532120    0.3170529754
 H   -0.5026114479    1.7674623118   -0.8234946734
 H    0.1350087173   -1.6315048370    1.6814464105
 H   -1.4215310745    0.5792066627    2.5941946092
 H   -1.4993436158   -1.6692958657   -0.7274849153