16

 N   -0.2230163664    1.2950196244   -0.3091690942
 C   -0.1440131597    0.0495935100   -0.1240956843
 O    1.0912242850   -0.5934826544   -0.1711890760
 C    1.2536392192   -1.9290415540   -0.4703090603
 O    2.3504142335   -2.3980116556   -0.4011608483
 C    0.0165402103   -2.6842217092   -0.9187470357
 C   -1.2499149244   -2.2456626631   -0.2183713139
 C   -1.2085129747   -1.8853173785    1.2353963438
 C   -1.3165444919   -0.7887240521    0.1857075590
 H    0.6963649898    1.6869262962   -0.5178387223
 H   -0.0807922115   -2.5197992360   -2.0007584126
 H    0.2281121998   -3.7464560843   -0.7737811979
 H   -2.1635674199   -2.6881428051   -0.6005755387
 H   -2.0920289402   -2.0634922347    1.8363978238
 H   -0.2715000342   -1.9862976097    1.7726938778
 H   -2.2526812947   -0.2531875137    0.1018579799