20

 C    0.0464983092    1.5764627962   -0.0274808989
 C    0.0652760179    0.0551498879    0.1295593678
 O    0.7121458256   -0.3373459531    1.3405484112
 C   -1.3276976113   -0.5522417334    0.0476561532
 C   -2.0074890881   -0.7771299413   -1.3122646696
 C   -1.1917616518   -2.0646100258   -1.6492203461
 C   -2.4997799202   -2.8110535770   -1.8757041121
 N   -2.9005592752   -1.9018054759   -0.7179325631
 C   -1.4765545349   -2.0695883609   -0.1144042423
 H    1.0585572743    1.9793406612    0.0650671037
 H   -0.3586171553    1.8705191859   -1.0014460677
 H   -0.5792605002    2.0386788574    0.7462620989
 H    0.6926238597   -0.3759769267   -0.6599456731
 H    0.2034669241    0.0278760292    2.0733660602
 H   -1.9983080100   -0.1230052481    0.8050887242
 H   -2.4323394937   -0.0557463368   -2.0137214756
 H   -0.2288730480   -2.1464275157   -2.1635204495
 H   -3.0570572797   -2.6139266814   -2.7977615118
 H   -2.5379478050   -3.8765131474   -1.6253234777
 H   -1.2697219376   -2.8698016942    0.5976442383