25

 C   -0.5962312554    0.8706122613    0.3217617699
 C    0.0737225808   -0.3692712376    0.8825312443
 C    1.3717931380   -0.9695274776    0.4200874087
 C    1.2140426303   -0.4785603262    1.8657929440
 C    2.3913581629    0.5067036322    1.6868294328
 C    2.1643210774    1.9861921383    2.0080892328
 C    3.5910463318   -0.0005259728    2.4971625435
 C    2.4509776395    0.0999444633    0.1577896869
 C    3.7645160525   -0.4158090327   -0.4193493396
 H    0.1100278248    1.5867262111   -0.1019894969
 H   -1.2873701071    0.5881812205   -0.4804667984
 H   -1.1780815726    1.3907613962    1.0907018172
 H   -0.6554966754   -1.1508921148    1.0971466724
 H    1.4384745206   -1.9890493140    0.0548049601
 H    1.0945459750   -1.0778592156    2.7639514100
 H    1.9611599067    2.1241170734    3.0766111984
 H    3.0570269173    2.5762481107    1.7665807333
 H    1.3254734175    2.4128805553    1.4555250890
 H    3.7609900241   -1.0715977374    2.3556668690
 H    4.5113546849    0.5300746173    2.2308812123
 H    3.4129321633    0.1631383596    3.5664305701
 H    2.0978435515    0.9100623565   -0.4919561836
 H    4.1560920705   -1.2744239122    0.1335302341
 H    3.6160504777   -0.7362189392   -1.4567929812
 H    4.5354827036    0.3622048742   -0.4232588194