17

 C   -0.1146885537    1.5855723844    0.0474148599
 C    0.0642425051    0.0703884199   -0.0434000562
 N    0.9555759234   -0.3740891265   -1.1016955658
 C    1.9378521706   -1.2212140029   -0.6573185844
 O    2.7555470883   -1.8276933464   -1.3067216596
 N    1.8243764593   -1.2464867275    0.7503209283
 C    2.7446758287   -1.9688005178    1.6056637040
 C    0.7578155435   -0.5047689707    1.2019491576
 O    0.4370536692   -0.3360586102    2.3544435029
 H    0.8565864459    2.0849055985    0.1015181509
 H   -0.6536449279    1.9674056028   -0.8243106937
 H   -0.6856179601    1.8271350106    0.9473523146
 H   -0.9207219549   -0.4116419469   -0.1225275351
 H    0.7163128624   -0.3701650365   -2.0788436968
 H    3.4390166307   -2.5042997870    0.9575473664
 H    3.2940754906   -1.2778850108    2.2512691872
 H    2.1994511190   -2.6746162530    2.2373050900