13

 N   -0.0538706084    1.2937442106    0.0103727852
 C   -0.0337077760    0.0315489834    0.0036923374
 O    1.0968041037   -0.7476290814   -0.0081549394
 C    0.7394017225   -2.1304650567   -0.0128500749
 C   -0.7562906091   -2.1407190062   -0.0025975908
 C   -1.2088827072   -0.8771711751    0.0070773561
 C   -2.5448142355   -0.4185730975    0.0186832324
 C   -3.6824587190   -0.0276422826    0.0285220589
 H    0.8954949944    1.6693382600    0.0057691287
 H    1.1637508544   -2.6111936904   -0.9051087652
 H    1.1759487127   -2.6203714792    0.8684682183
 H   -1.3515785804   -3.0429264042   -0.0031704551
 H   -4.6818674420    0.3311307392    0.0371118784