21

 C    0.1429766911    1.0410905414   -0.5502615841
 O   -0.1534227873    0.1748203388    0.5317258051
 C   -1.3334051988   -0.5343851937    0.3456593176
 C   -1.5006185204   -1.5988846575   -0.6970623418
 O   -0.2697479149   -2.2695493183   -0.9460616094
 C   -0.2529238365   -2.7841536441    0.4204380300
 C    1.0701764745   -2.6178949245    1.1384943184
 C   -1.4974510041   -1.9622917747    0.7947565545
 C   -2.5617038659   -2.4298697257    1.7453522918
 H    1.0714729951    1.5588074032   -0.2988559170
 H    0.2807206855    0.4776802800   -1.4816261237
 H   -0.6509781964    1.7882977261   -0.6986196044
 H   -2.2409838764    0.0582101742    0.4981620609
 H   -2.2647182344   -1.6309504374   -1.4673291376
 H   -0.5315012187   -3.8473542838    0.3810710501
 H    1.3513240773   -1.5671454408    1.1993431153
 H    0.9947787005   -3.0279298288    2.1520217484
 H    1.8534377347   -3.1735921946    0.6120779159
 H   -2.2207171356   -2.3606163136    2.7855215874
 H   -3.4685261502   -1.8233823078    1.6577993709
 H   -2.8373857488   -3.4727417784    1.5523797517