12

 O   -0.0684225740    0.0007082178    0.0035732422
 N   -0.0099090689    1.2236476212    0.0068752298
 O    0.9989005451    1.8969452381    0.0024213652
 C   -1.3317887550    1.9422927499    0.0174919138
 N   -1.2769513940    3.2556950637    0.0200983861
 C   -2.4606237658    3.8733390945    0.0295604051
 N   -3.6608323722    3.2911366740    0.0364692298
 C   -3.6682422533    1.9565244767    0.0335027428
 C   -2.4991330885    1.1989344076    0.0237546598
 H   -2.4406306209    4.9592489682    0.0318079155
 H   -4.6416828481    1.4733841525    0.0391008104
 H   -2.4876864644    0.1191128358    0.0211735196