14

 C    0.0094173107    1.4766360615   -0.0600565629
 C    0.0146685558   -0.0192923963   -0.0570201601
 N    0.6040917980   -0.8784441671   -1.1428180768
 C    0.0828682368   -1.8851130186   -0.1625069901
 C    0.5039047436   -1.0112505885    1.0502596601
 O   -0.7858443158   -1.0897838408    1.7229358239
 C   -1.1354714320   -1.0300110691    0.3099367854
 H    1.0262439503    1.8668901178   -0.1656518899
 H   -0.5946367320    1.8706090059   -0.8845290425
 H   -0.4129277929    1.8445510185    0.8803311620
 H    0.0067624813   -0.8547312550   -1.9738384859
 H    0.1653209254   -2.9637440591   -0.2939004652
 H    1.4167374739   -1.0148430631    1.6441198080
 H   -2.1888074732   -1.0565765061    0.0240965941