8

 N    0.0151331704    1.2610567998    0.0092789263
 N    1.2202348311    1.8132422785    0.0003313782
 C    2.0319662765    0.7544357864   -0.0135001746
 C    1.2504054218   -0.4117939627   -0.0122790370
 N   -0.0374785504   -0.0634966203    0.0023922831
 H   -0.8215034412    1.8217486595    0.0206998903
 H    3.1029214669    0.8767068034   -0.0234000089
 H    1.5444332950   -1.4488407846   -0.0209464973