18

 C   -0.1054177494    1.4990235399   -0.1934221672
 C    0.0614801877    0.0079423276    0.0114088266
 C    1.3275203287   -0.7783320421   -0.1954980223
 C    2.5606781936   -0.0103882956    0.2957573344
 C    1.9427230871    0.0211177836    1.7447900499
 C    1.8243855640    1.2797237650    2.4614723777
 C    1.7465094801    2.3161464935    3.0678456983
 C    0.6825965699   -0.6835860467    1.1961387894
 H    0.7487675994    2.0737252828    0.1675052948
 H   -0.2420735415    1.7243857871   -1.2572469535
 H   -0.9880765743    1.8647963740    0.3419074292
 H   -0.8023654594   -0.5583673121   -0.3357226461
 H    1.3679142819   -1.6324402146   -0.8609088038
 H    3.4822236172   -0.5941873571    0.2643518192
 H    2.7468239123    0.9612833621   -0.1685723666
 H    2.4971694214   -0.6846644185    2.3714535433
 H    1.6672971869    3.2319178851    3.5992757657
 H    0.1442415843   -1.4406339838    1.7546040211