18

 N   -0.1581546600   -1.1307461394   -0.2936728816
 C   -0.0990651401    0.0114102778   -0.1307156054
 C   -0.0430880999    1.4749909428    0.0128832911
 N   -0.6875849291    1.9274392220    1.2626519361
 C    0.3881444519    2.2563873580    2.2131208529
 C    1.5803496881    2.7803070121    1.3839669562
 C    2.9183843915    2.0189996836    1.5547279697
 N    2.4541577501    1.0566044382    0.5314135654
 C    1.4295060911    2.0008222364    0.0514270924
 H   -0.5818492351    1.8958751714   -0.8427376389
 H   -1.2291103482    2.7590836089    1.0583098800
 H    0.0191989355    2.9711522155    2.9525052090
 H    0.6793818017    1.3446367572    2.7470405965
 H    1.6235627075    3.8688853751    1.3368856757
 H    3.7819623381    2.6261096555    1.2520497788
 H    3.1243582364    1.5757095811    2.5358682685
 H    3.1339900722    0.7330644705   -0.1452676154
 H    1.6845193382    2.5466629934   -0.8643742312