11

 N    0.0858048027    1.3721077925    0.1782977321
 C   -0.0669354776   -0.0026083729    0.0522043128
 C   -1.1488933755   -0.8314009072    0.0026994357
 C   -0.6113298894   -2.1649097249   -0.0271532828
 C    0.7359948569   -2.0439149265    0.0006541485
 O    1.0848604964   -0.7129665788    0.0523979422
 H    0.9273441168    1.7109274719   -0.2710933093
 H   -0.7220473758    1.8836401313   -0.1487347053
 H   -2.1861088501   -0.5382827181   -0.0104121231
 H   -1.1692446499   -3.0875084325   -0.0694905217
 H    1.5594150655   -2.7364409748   -0.0105854791