16

 N   -0.2614518567    1.1385812298   -0.3683580599
 C   -0.1234952427   -0.0700341735   -0.0669223593
 O    0.9675764490   -0.7762028554    0.3907554863
 C    0.1712291769   -1.9937126239    0.5601559493
 C   -1.0576265945   -1.2793692223   -0.0280217728
 O   -2.1430106028   -1.2281283052    0.8502525812
 C   -3.2125164051   -0.4187547174    0.3567094235
 C   -4.3165358405   -0.4476655128    1.3034908701
 C   -5.2430798379   -0.4528351710    2.0669961729
 H    0.6012440107    1.6674335520   -0.2257432802
 H    0.5904077301   -2.8223168218   -0.0130758521
 H    0.0623072938   -2.2520915168    1.6150441775
 H   -1.3580674138   -1.6248726251   -1.0281902636
 H   -2.8646410215    0.6115588326    0.2023119110
 H   -3.5468841005   -0.8003272669   -0.6224068549
 H   -6.0597272145   -0.4575417822    2.7459589509