13

 O   -0.4645245790    0.6616957507   -0.7088684663
 C    0.1494277407    1.0195534474    0.2565329493
 C    1.3364554146    1.9995399124    0.1810678648
 C    1.4361896877    2.6801749861   -1.2058659749
 C    2.6825396509    3.4094005505   -1.3823562717
 C    3.7216123763    3.9989345437   -1.5056995945
 C    1.2524618134    2.9494334646    1.2897576912
 N    1.1411767479    3.6814278274    2.1767623872
 H   -0.0793097136    0.6523287956    1.2775825476
 H    2.2371871620    1.3884955243    0.3438318125
 H    1.3312049936    1.8942627311   -1.9601590636
 H    0.5771542611    3.3468386458   -1.3373429633
 H    4.6331845845    4.5308488803   -1.6248962384