17

 O   -0.0177640591    1.4266750200    0.0497388826
 C    0.0725629931    0.0093690882    0.0337293965
 C   -1.3576848188   -0.5213213191    0.0885403698
 C   -1.4335583677   -2.0427380943    0.0514435622
 O   -0.7547515974   -2.5411497093    1.1738055863
 C   -2.8361742136   -2.6265843132   -0.2754832698
 O   -2.3563643417   -3.0678027247   -1.5858639639
 C   -1.0698758230   -2.6700650188   -1.3222048862
 O   -0.1012318876   -2.8368624554   -1.9911694881
 H    0.8752068152    1.7821331134    0.0261452897
 H    0.5682302582   -0.3545341108   -0.8782640612
 H    0.6370750471   -0.3715132288    0.8951158462
 H   -1.8367528894   -0.1735822665    1.0110188921
 H   -1.9245337940   -0.1055600629   -0.7513501426
 H   -0.6072667053   -3.4874402384    1.0691265065
 H   -3.1284089213   -3.4801833846    0.3407669166
 H   -3.6598768447   -1.9181354747   -0.3785908667