15

 O   -0.0935037287    1.3716403374    0.0207119774
 N    0.0633684489   -0.0313931949   -0.0041139484
 C   -1.0517228109   -0.6117416551   -0.0738790159
 C   -2.5481143786   -0.3538388784   -0.0005781927
 C   -3.0530524448   -0.9034829466   -1.3533612566
 C   -2.2379833621   -2.2435683248   -1.3577950333
 C   -1.5106082284   -2.0518248159   -0.0076040886
 O   -2.6006399530   -1.5553714698    0.8484205605
 H    0.8182052049    1.6725204497    0.1002907378
 H   -2.9936998564    0.5359095254    0.4368126771
 H   -4.1322414683   -1.0672050186   -1.3295328124
 H   -2.8121444385   -0.2456186390   -2.1918259347
 H   -2.8793834792   -3.1267421663   -1.3340426356
 H   -1.5468069979   -2.3285416981   -2.1998117707
 H   -0.9241130969   -2.8610533651    0.4218511060