20

 C   -0.0070974847    1.5151798102    0.0259175487
 C    0.0084993087    0.0093941779    0.0802126732
 N    0.0857410811   -0.6519091030    1.1695381626
 O    0.1347383628    0.1970272777    2.2904894709
 C   -0.0582914199   -0.7614599591   -1.2222253475
 C    0.0464805647   -2.3042188763   -1.1185111899
 C   -0.8773211074   -2.8609221037   -2.2304789995
 C   -1.8031170221   -1.7030730809   -2.5151917319
 C   -1.3669406534   -0.5670984450   -1.9769430430
 H    0.8452834767    1.9224066102    0.5780824267
 H    0.0253729832    1.8786181834   -1.0031322229
 H   -0.9067084971    1.9081199698    0.5114135860
 H    0.2085387036   -0.4330440851    3.0146799300
 H    0.7588384294   -0.3630714294   -1.8483717988
 H    1.0778303011   -2.6546306565   -1.2020696584
 H   -0.3217946535   -2.6108079245   -0.1378488021
 H   -0.3146934730   -3.1323273867   -3.1354373019
 H   -1.4085086367   -3.7673943534   -1.9190038539
 H   -2.6952154105   -1.7995686585   -3.1248386603
 H   -1.8440822929    0.4014826731   -2.0764006480