14

 N   -0.0021804153    1.4553711354    0.0484978989
 C    0.0113039691    0.0209383274    0.0182365956
 C   -0.4403168209   -0.6856307367    1.2784672860
 C   -1.3561179208   -0.6895629778    0.0764512277
 C   -2.5611942449    0.0815213575    0.0400325539
 C   -3.5930817038    0.6954440227   -0.0161132677
 C    1.0240282277   -0.6257579588   -0.7923629976
 N    1.8468823302   -1.1024860697   -1.4523200226
 H    0.8912407535    1.8160767877    0.3677615574
 H   -0.1817537222    1.8377144993   -0.8745827310
 H    0.0398174566   -1.6184293960    1.5473429853
 H   -0.7043643901   -0.0267419846    2.0959313292
 H   -1.3925257253   -1.6236478135   -0.4758644714
 H   -4.4999756538    1.2462067572   -0.0567405936