23

 C   -0.6736980436    1.5051292215   -0.5106360071
 C   -0.2611185470    0.0490011662   -0.3210944171
 C    1.0395063423   -0.5055586432   -1.0339497962
 C    1.8802846360    0.3948211240   -1.9327109452
 C    1.5743049597   -0.8965128218    0.3490739290
 O    2.2475276551   -2.0820100174    0.6090928651
 C    1.6493283708    0.2859916131    1.2762848418
 C    0.3132801867   -0.3946191795    1.0387365584
 C   -0.4898739664   -1.0053507194    2.1509403832
 H    0.1248428522    2.2042690611   -0.2444389945
 H   -0.9539548294    1.7044990837   -1.5508123774
 H   -1.5407742477    1.7449120607    0.1147554096
 H   -1.1103874547   -0.5920042210   -0.5825491876
 H    0.7805987565   -1.4188013831   -1.5793177551
 H    2.1930227745    1.3123483566   -1.4245706019
 H    2.7869985507   -0.1265681924   -2.2603625406
 H    1.3282322291    0.6867941801   -2.8326795975
 H    3.1942393323   -1.9069402987    0.5842155989
 H    2.0906811644    0.0561542554    2.2418670267
 H    1.8597191638    1.2916026500    0.9213209190
 H   -1.0795094843   -0.2513256649    2.6862433128
 H   -1.1864498469   -1.7594981196    1.7664933544
 H    0.1621962259   -1.4970409214    2.8799215914