16

 C    0.0542282258    1.5458884119   -0.0377219251
 N    1.2699533138    0.7079932049    0.0131546310
 C   -0.0357131556    0.0711464886    0.0011139294
 C   -0.5472243204   -0.8917538268    1.1277387595
 N   -1.0388751409   -1.7056666253    0.0019143317
 N   -1.7520554924   -2.7683152092   -0.3782286990
 C   -1.7603659355   -2.6182738959   -1.7158062200
 C   -1.0768219819   -1.4572857923   -2.1717255174
 C   -0.6276698162   -0.8958489451   -0.9891336486
 H   -0.1338316882    2.1287926789    0.8596901512
 H   -0.2103100570    2.0415568764   -0.9680552444
 H    1.7088933894    0.6421261978   -0.9016801997
 H    0.2368252678   -1.3689003142    1.7196632554
 H   -1.3392161585   -0.5002611323    1.7710578852
 H   -2.2617493131   -3.3591781935   -2.3221155425
 H   -0.9554160471   -1.1234360941   -3.1882265265