23

 C    0.0867987925    1.6077535619    0.0975564901
 C   -0.0210694042    0.0726912514   -0.0038109460
 C    0.4795437557   -0.4516174622   -1.3646554438
 C    1.9285767690   -0.1899643595   -1.6835812192
 C    2.9810186852   -0.3524918671   -0.8846955681
 C    3.0630177344   -0.8508721295    0.5306270035
 C    1.8542268147   -0.9955744080    1.4278555348
 C    2.2070648693   -1.6381500209    2.7512732382
 C    0.5974185432   -0.6035189840    1.1976515032
 H    1.1292441769    1.9295403794    0.0231071939
 H   -0.4793558120    2.0916883680   -0.7066147779
 H   -0.3097253113    1.9663292194    1.0525675339
 H   -1.0920055786   -0.1699729325    0.0313160924
 H    0.2825809038   -1.5312603618   -1.4131939916
 H   -0.1384403088   -0.0004517092   -2.1501722920
 H    2.1296291125    0.1563599685   -2.6955136246
 H    3.9612986406   -0.1322870280   -1.3062051615
 H    3.5806581198   -1.8256861179    0.5035080501
 H    3.7818086623   -0.2108668267    1.0693741586
 H    2.5991673360   -2.6536973666    2.6078339564
 H    2.9938946181   -1.0746609461    3.2702520471
 H    1.3419440817   -1.7006503296    3.4156169694
 H   -0.1064768908   -0.7640024291    2.0140669330