21

 C   -0.5172918673    1.3236118798    0.3139393456
 O    0.8366823282    1.0455324749   -0.0676748990
 C   -0.0581754769   -0.0450861628    0.0641929349
 C    0.1479603484   -1.1977712912    1.0528842531
 C   -0.4745391014   -2.1537575222   -0.0073415141
 C   -1.9733425686   -2.4835485853    0.1204678586
 C   -2.5342399466   -2.2180473243   -1.2885076975
 C   -1.8137915706   -0.9287133458   -1.7477502238
 C   -0.4233553422   -1.0082935879   -1.0793462579
 H   -0.6530664065    1.6690826081    1.3387305604
 H   -1.1125852358    1.8476257652   -0.4332455415
 H    1.2113257622   -1.3838714016    1.2279159369
 H   -0.3604856313   -1.1293029565    2.0189680401
 H    0.1148935322   -3.0452536187   -0.2308383810
 H   -2.1584210369   -3.5026986877    0.4719584614
 H   -2.4492672624   -1.8043552935    0.8396442398
 H   -2.2646551003   -3.0482308940   -1.9530585324
 H   -3.6247072168   -2.1294833509   -1.3094713845
 H   -1.7557199251   -0.8505125230   -2.8367165024
 H   -2.3604774683   -0.0472404306   -1.3941848724
 H    0.3966127657   -1.0925757219   -1.7966682144