19

 C    0.4579675980    1.3982424498   -0.0498462269
 C    0.1626720759   -0.0899839771   -0.0118476503
 O    0.7288345930   -0.6867510838   -1.1797339582
 C    0.4790663950   -2.0446271982   -1.3137274475
 C    1.1060381008   -2.5364997997   -2.6236474493
 C    2.5157454274   -2.9356346403   -2.1809796445
 C    2.3486177500   -3.2647312344   -0.7012567915
 O    3.1006325765   -3.8386149906    0.0279344088
 O    1.1347935750   -2.7958058836   -0.2748723534
 H    1.5370103178    1.5757729633   -0.0584256945
 H    0.0267752945    1.8568310376   -0.9442112390
 H    0.0342555218    1.8883963051    0.8315191408
 H    0.5887796534   -0.5546526504    0.8855707585
 H   -0.9231184669   -0.2753523500    0.0007218146
 H   -0.5911182174   -2.2627545802   -1.2043106007
 H    0.5515420010   -3.4035348631   -2.9922007218
 H    1.0750595127   -1.7524867406   -3.3801740411
 H    2.9426025106   -3.7896902051   -2.7077995830
 H    3.2229973006   -2.1044449089   -2.2632065310