18

 O    3.6691894876    1.5664308275   -1.7475904363
 C    3.2489484937    1.5465816638   -0.6180149312
 C    1.9968527014    2.2514024414   -0.1389531934
 C    1.2860587624    3.0931867843   -1.1800844911
 C    0.7143472758    2.3164325025   -2.3663523514
 C   -0.2862756953    1.3293160851   -1.9548868778
 N   -1.0626289077    0.5504663568   -1.5989652032
 C    0.5238653900    4.3092164271   -0.7107368319
 C    1.8190557445    4.4740021688   -1.4675591219
 H    3.7808181327    0.9770166930    0.1776282321
 H    1.3294233880    1.4785763725    0.2730857990
 H    2.2848218385    2.8636538796    0.7267593471
 H    0.2474391455    3.0069181751   -3.0766318426
 H    1.5234078805    1.8029527374   -2.8951647696
 H   -0.4026089220    4.5551787637   -1.2184630633
 H    0.5143823546    4.5285213453    0.3513981562
 H    2.6971853577    4.8006732846   -0.9213868771
 H    1.7777434621    4.8370198413   -2.4887115536