22

 C   -0.0304010927    1.4964052413   -0.0730703734
 C   -0.0047374318   -0.0215562549    0.0198494536
 C   -1.2342027101   -0.6370750458   -0.6337034706
 C    1.3223236622   -0.7339071294   -0.1280939156
 C    0.6545456533   -0.6803659976    1.2312498430
 C    1.2826999236    0.1700176098    2.3258645710
 C    0.0865722303   -1.9715670769    1.7859961480
 O    1.1613428219   -2.7230848859    2.3471526771
 H    0.8746526488    1.9630435143    0.3190776682
 H   -0.1308913541    1.8064303836   -1.1199681784
 H   -0.8851074257    1.9129298190    0.4738295602
 H   -1.3365128568   -0.2590518511   -1.6578740232
 H   -1.1869727570   -1.7257770394   -0.6984414145
 H   -2.1520293868   -0.3700970864   -0.0955072385
 H    1.3377273666   -1.6862571815   -0.6492354524
 H    2.2176471467   -0.1377269449   -0.2762357123
 H    1.8765443810    0.9956547251    1.9300076078
 H    0.5187608789    0.5936663214    2.9898677254
 H    1.9434471058   -0.4553136107    2.9319513791
 H   -0.6668970619   -1.7397285731    2.5573716292
 H   -0.4140458979   -2.5539397134    1.0028730244
 H    0.7855205056   -3.4813510334    2.8035932718