19

 C    0.0111875935    1.4934402914   -0.2316848026
 C    0.0299502919    0.0262981563    0.1928282329
 N   -1.3039750576   -0.5515110876    0.2438393536
 C   -2.2324240505    0.0022402909    1.2355776955
 C   -3.1236626048   -1.1610342868    1.5667169401
 C   -2.6469982273   -2.2884348137    1.0543958159
 C   -1.3519408708   -2.0129994793    0.3181924591
 C   -1.2983327164   -2.6252122114   -1.0252634181
 N   -1.2397282906   -3.1196340683   -2.0679312605
 H    1.0324402141    1.8783774031   -0.3060161759
 H   -0.4756975203    1.6038113390   -1.2047475035
 H   -0.5249356466    2.1164258782    0.4911476783
 H    0.6101571986   -0.5497799677   -0.5366545248
 H    0.5509070816   -0.0738615925    1.1659667187
 H   -1.7126307310    0.3634379308    2.1445535730
 H   -2.7866881711    0.8591939839    0.8303561147
 H   -4.0187183196   -1.0618871955    2.1677120351
 H   -3.0609317423   -3.2838745690    1.1386795024
 H   -0.5012368108   -2.4404281117    0.8861159761