16

 O    0.6325406988    0.2164826679   -0.7871796835
 C   -0.1243583807    0.3150685167    0.4226053564
 C   -1.5045660887   -0.2248207274    0.2873048466
 C   -2.7362230155    0.3070793114    0.6003098450
 C   -3.7202460300   -0.6705581784    0.2697034746
 O   -5.0897356284   -0.6543365453    0.4465370653
 C   -3.0558868942   -1.7628965247   -0.2356898174
 O   -3.5157227532   -2.9464058351   -0.7054186870
 N   -1.7176738376   -1.5035611403   -0.2065158884
 H    0.1209671854    0.6595862760   -1.4732995991
 H    0.4657497746   -0.2502770439    1.1550846524
 H   -0.1859635969    1.3506571062    0.7870903910
 H   -2.9124290077    1.2781615128    1.0384078657
 H   -5.4541516439    0.1035345806   -0.0223741195
 H   -4.4766054398   -2.9171558190   -0.6190389064
 H   -1.0046079623   -2.0939379476   -0.5997736455