20

 N   -0.0941413616   -1.1804108234    0.0343680054
 C   -0.0706001477   -0.0250033794    0.0227159160
 C   -0.0182905946    1.4361573751    0.0058007109
 C    1.4191029028    1.9963895851    0.0073318936
 C    1.4106119607    3.5259507914   -0.1444829674
 C    2.8358564592    4.0837643840   -0.0223244523
 C    3.4998109894    3.5587873181    1.2515871544
 O    3.4887828438    2.1413869761    1.2983410017
 C    2.1788507631    1.6123795790    1.2873139083
 H   -0.5534970710    1.7893802156   -0.8831812311
 H   -0.5718986565    1.8135676675    0.8747488067
 H    1.9609941624    1.5604160692   -0.8410402568
 H    0.9598095104    3.8144356571   -1.1010604645
 H    0.7801143510    3.9606776782    0.6449516285
 H    3.4325471457    3.7701816218   -0.8871878529
 H    2.8241317104    5.1793721803   -0.0131322786
 H    4.5505298217    3.8569275770    1.3053805698
 H    2.9856723220    3.9683240417    2.1391606976
 H    1.6135026140    1.9704603723    2.1679807132
 H    2.2811198948    0.5270060733    1.3721901176