16

 C   -0.0666581938    1.4518143203    0.0054036650
 N    0.0251974964    0.0065134457   -0.0106491731
 C    0.1067532849   -0.7934014801   -1.1268102517
 O    0.0420941634   -0.1683536632   -2.3358584336
 C    0.2436651508   -2.1052324068   -0.7544706289
 C    0.2438032746   -2.1052806496    0.6850347527
 O    0.4143201984   -3.1646037889    1.5555256959
 C    0.1130898756   -0.8114601914    1.0991663409
 O    0.0724148797   -0.2534301371    2.3393304904
 H    0.9227510914    1.9232621814   -0.0214095725
 H   -0.6363474674    1.7857791101   -0.8630063771
 H   -0.5775333923    1.7645207666    0.9172311898
 H    0.0480196331   -0.8442166124   -3.0195951938
 H    0.3431674333   -2.9588497706   -1.4064061378
 H   -0.3084816267   -3.7881070101    1.4263970559
 H    0.1628366687   -0.9832228440    2.9633576078