21

 C    0.0026653582    1.5054498582    0.3965801745
 C   -0.0525970129    0.0073732935    0.2137477710
 C   -1.2687398870   -0.6910958716   -0.2190829282
 O   -0.1881429984   -0.4755943810   -1.1285981312
 C    1.3707379220    2.0941781302    0.0494916311
 C    1.8608909196    2.0877801791   -1.4433315361
 C    2.0818745408    3.6033733777   -1.3570325169
 C    0.7870508856    4.2901158490   -1.0342836008
 C    1.5491330289    3.6201499036    0.0784309076
 H   -0.7781586359    1.9623740618   -0.2216945411
 H   -0.2386960828    1.7408397669    1.4427639767
 H    0.6669001070   -0.5619968517    0.8069129765
 H   -1.4367602429   -1.7274240130    0.0714151183
 H   -2.1714692386   -0.1155693627   -0.4217144783
 H    2.1317242067    1.6212383235    0.6803406750
 H    2.7787543505    1.5119128401   -1.5771858150
 H    1.1308151316    1.7531444307   -2.1859406427
 H    2.9265279780    4.1405301716   -1.7708571699
 H    0.8230369756    5.3749109966   -1.0187413111
 H   -0.1547839954    3.8869538265   -1.3992138916
 H    1.9057991393    4.1856915709    0.9318372723