15

 O   -0.0067935934    0.0096044201    0.0508929997
 C    0.0272048447    1.2051274613   -0.0112276618
 N   -0.9643245800    2.1708123278   -0.0407085418
 C   -0.0766737701    3.3356048911   -0.0564932725
 C    0.4417593687    3.8077485826    1.3412067853
 N    1.4354605643    2.7031783764    1.3765774116
 C    1.1225505065    2.3076753360   -0.0163487012
 C   -0.3304276021    4.3248214901   -1.0714983996
 C   -0.5339010565    5.1729713234   -1.8994253206
 H   -1.9535164344    2.1097175388    0.1573120178
 H    0.8850894459    4.8068285876    1.2806184872
 H   -0.2911912629    3.7828233497    2.1538800396
 H    2.3879650426    3.0219816982    1.4984076123
 H    1.9300831456    2.2668732366   -0.7458335595
 H   -0.7162286289    5.9133109401   -2.6389861866