17

 C    0.0032176407    1.3264709216   -0.0226969784
 O   -0.0784549674   -0.0996545463   -0.1005351720
 C   -1.3070024201   -0.5900026859   -0.0259085253
 N   -2.4301739339    0.0448095320    0.0959697550
 C   -3.3741801521   -0.9837377434    0.1190965707
 N   -4.7196839007   -0.6665087746    0.3064194781
 C   -2.7590375758   -2.1882631675    0.0083804634
 C   -3.1842699277   -3.6068334638   -0.0135747492
 O   -1.3831826286   -1.9197600934   -0.0894556322
 H    1.0646807271    1.5644919356   -0.0898642294
 H   -0.5466796988    1.7888798482   -0.8472737545
 H   -0.4118979038    1.6842028155    0.9236660054
 H   -4.9091986918    0.2836352309    0.0152798728
 H   -5.3551639462   -1.3066736011   -0.1501105639
 H   -2.9293032847   -4.1084993280   -0.9558169339
 H   -2.7290522888   -4.1862239225    0.7993758737
 H   -4.2691510373   -3.6652851473    0.1131939695