17

 C   -0.1159852201    1.5122783375    0.0486718799
 C   -0.0726270379   -0.0269514770   -0.0311027439
 C   -1.3768374978   -0.6231528102    0.1704998596
 C   -2.4493832988   -1.1395992003    0.3413178817
 C    0.7512581832   -0.5667553462   -1.2634110840
 O    0.9001077865    0.3922351320   -2.2779493262
 C    1.9809896464   -0.8481638879   -0.3457108027
 C    1.0768944013   -0.5932032576    0.8650893638
 O    1.1742911900   -0.7894355505    2.0377152599
 H    0.8807263405    1.9424255451   -0.0755574342
 H   -0.7566875386    1.9070616193   -0.7422642913
 H   -0.5150363557    1.8143865084    1.0193782438
 H   -3.3986828394   -1.5891838244    0.4971917017
 H    0.3062556691   -1.4939418712   -1.6414645613
 H    1.3542048410   -0.0164451163   -3.0211163756
 H    2.4528881959   -1.8321191314   -0.3939264231
 H    2.7499987542   -0.0749498093   -0.4473815482