19

 O    0.0736414758    1.4341924441   -0.0470013709
 C    0.0286228603    0.0064564483   -0.0166506208
 C    0.7591762437   -0.5307816596    1.1919630647
 C    0.1050462533   -1.0901718743    2.2075169831
 C   -1.3929818350   -1.2127442236    2.2144529359
 O   -2.0113289740   -0.3946888078    1.2323032089
 C   -1.3927826232   -0.5218705695   -0.0259513286
 C   -2.2836304160   -0.2942381495   -1.1977800045
 C   -1.7851753071   -1.6947337715   -0.8910644526
 H   -0.4050530859    1.7334492075    0.7351995495
 H    0.5379952314   -0.3073632979   -0.9345921911
 H    1.8379056112   -0.4076296834    1.2133143585
 H    0.6312482300   -1.4819172393    3.0744996891
 H   -1.6874372460   -2.2687176447    2.0789137981
 H   -1.8021054971   -0.8895471720    3.1783722521
 H   -3.3241362477   -0.0804466608   -0.9821387391
 H   -1.8728832501    0.2369380347   -2.0489633537
 H   -1.0389924987   -2.1401362622   -1.5404583548
 H   -2.5027741150   -2.3939174784   -0.4764579739