19

 C    0.1432003562    1.4458287665    0.0005534087
 O    1.1802471706    0.4727576707   -0.1404057192
 C   -0.1738182487    0.0154136829   -0.0637521353
 C   -0.5189667950   -0.7581866040    1.1831891559
 O   -1.9511058570   -0.7551512545    1.4070487045
 C   -2.2391754247   -2.1636381168    1.5120245917
 C   -1.0954803310   -2.6965963741    2.4073950444
 C   -0.2602485366   -2.2754839213    1.1540235000
 C   -1.4798590060   -2.7731639055    0.3111289885
 H    0.1097355641    1.9583121376    0.9609948747
 H   -0.0307557969    2.0750441976   -0.8707220119
 H   -0.5698405125   -0.3783156590   -0.9995959118
 H   -0.0067990970   -0.2817528913    2.0297210482
 H   -3.3002251921   -2.3041898766    1.7104169816
 H   -0.9142216377   -2.1755032418    3.3507316691
 H   -1.1227456203   -3.7773782047    2.5543708617
 H    0.7625713030   -2.6049820884    0.9796565162
 H   -1.5358686819   -3.8619621354    0.2696913987
 H   -1.6650998166   -2.3396027019   -0.6736398156