17

 N    0.0858756597    1.5150323638    0.1690301409
 C    0.0427012161    0.0798983990   -0.0104798890
 C    0.6209852650   -0.6246404333    1.2204772541
 O   -0.4661773370   -0.6739464343    2.1382291969
 C   -1.5676721150   -1.1497651013    1.3912623775
 C   -1.4307638158   -0.5336533407   -0.0406238938
 O   -2.3395767182    0.5230428436   -0.2970326442
 C   -1.5574797650   -1.5683695288   -1.0767861649
 N   -1.6723189106   -2.3825220368   -1.8902851650
 H   -0.4618404200    1.9713166766   -0.5538762572
 H   -0.3605776186    1.7562575629    1.0501498882
 H    0.5726533281   -0.1817563609   -0.9291014720
 H    0.9700411024   -1.6393382277    0.9732232533
 H    1.4343775571   -0.0587345462    1.6761602229
 H   -1.5583571696   -2.2486610799    1.3389891402
 H   -2.4910396782   -0.8174882483    1.8720785825
 H   -3.2141175304    0.1464936222   -0.4460284604