17

 C   -0.4826954803    0.1514876234    2.1541960815
 O   -0.9360999679   -0.5019877212    0.9884326908
 C    0.0562990091   -0.7433912777    0.0147202119
 C    0.5804089234   -2.1655561730    0.0287621922
 N    0.6744940403   -2.8547536339   -1.0162257329
 O    0.9288980630   -2.5117143131    1.3409662740
 C    1.4249044135   -3.7489416246    1.6693455832
 N    1.6051372721   -3.8013151267    3.0152127002
 O    1.6909714771   -4.6390857994    0.8979217297
 H   -0.0243421374    1.1244614224    1.9194466373
 H   -1.3595705245    0.3212327568    2.7840934716
 H    0.2470602155   -0.4499866970    2.7120199266
 H   -0.3800897139   -0.5859883440   -0.9744040331
 H    0.9021830311   -0.0487148927    0.1323130459
 H    1.0834544710   -3.7696537839   -0.8273077811
 H    1.1948587091   -3.0990851599    3.6054606026
 H    1.8368739688   -4.6969090257    3.4086125296