21

 C   -0.3980777514    1.6907293053    0.0758903536
 C   -0.0013188119    0.2110094206    0.0629083392
 C   -1.2411275292   -0.6837613480   -0.0901273092
 O   -1.9110595465   -0.3278890991   -1.2920275085
 C    1.0137788879   -0.1147084255   -1.0661551521
 O    1.8238033636   -1.1981130888   -0.6070094627
 C    1.8646797628   -1.1333102803    0.7949185691
 C    2.2083268194    0.1778506558    1.4527505067
 C    0.7584326674   -0.2562565142    1.3043288468
 H    0.4794755361    2.3288886206    0.2160329733
 H   -0.8886736038    1.9705154085   -0.8599180954
 H   -1.0973946486    1.8983640264    0.8931915553
 H   -0.9224334796   -1.7365030889   -0.1111797150
 H   -1.9002905693   -0.5480300522    0.7828481884
 H   -2.6235187456   -0.9561261100   -1.4383621087
 H    0.5199622944   -0.4227688618   -1.9899602863
 H    1.6374467432    0.7630315371   -1.2863059483
 H    2.1582950247   -2.0772471317    1.2383784684
 H    2.6302300578    0.1326007452    2.4511088270
 H    2.5896891526    0.9934338682    0.8479214300
 H    0.1889007659   -0.5000852673    2.1950014585