17

 C    0.0640909255    1.3531449751   -0.1655322245
 O   -0.0687894428   -0.0772928183   -0.2120831438
 C   -1.2656886743   -0.5586525702    0.1366047667
 O   -2.2037267225    0.1106582888    0.4818579976
 C   -1.2848435922   -2.0927964657    0.0947732749
 C   -2.7290818500   -2.6375314191    0.0751859656
 N   -2.7116144695   -4.0803154152    0.2882246489
 C   -0.5038503530   -2.6332224124   -1.0190062714
 N    0.0621656813   -3.1058952941   -1.9086712696
 H    1.0810296608    1.5629893705   -0.4941416779
 H   -0.6621916765    1.8239852222   -0.8316599557
 H   -0.0965130568    1.7175456451    0.8518261587
 H   -0.8132426099   -2.4415422296    1.0235492793
 H   -3.2614333206   -2.1583020794    0.8996134846
 H   -3.2135802479   -2.3070461256   -0.8567822628
 H   -3.6585615566   -4.4196441073    0.4194134724
 H   -2.3463571652   -4.5533779749   -0.5337953029