16

 C   -0.1495224155    1.3172887339    0.1375361205
 N   -0.0524091767   -0.1143314968   -0.0938418647
 C   -0.0187389293   -0.9718854122    1.0752904137
 C   -1.3833309070   -1.1022145406    1.7402462021
 O   -1.5454684247   -1.2296751575    2.9237650700
 C    0.0685082419   -0.6992007411   -1.3308054839
 O    0.1769303776   -1.9037959715   -1.4908668529
 C    0.0592204119    0.2003869244   -2.4755580642
 C    0.0620453364    0.8519559755   -3.4864641784
 H    0.7134947097    1.6749761276    0.7127983527
 H   -0.1804782463    1.8436452484   -0.8152229007
 H   -1.0583318711    1.5599459117    0.7008939650
 H    0.2815938212   -1.9702827768    0.7372554968
 H    0.7070746366   -0.6106602267    1.8118595602
 H   -2.2362711526   -1.0886299117    1.0230997418
 H    0.0654291080    1.4240148134   -4.3824065681