27

 C    0.0373491198    1.5769673396   -0.1121475297
 C    0.0685357900    0.0503381908    0.0476691243
 C    0.8711510995   -0.3378427278    1.2978861223
 C   -1.3643036035   -0.5194360573    0.0524702762
 C   -1.4779504900   -2.0387833244   -0.0545681794
 C   -1.2440937733   -2.9636595041    1.1766692860
 C   -2.4038756147   -3.8652739242    0.6803980698
 C   -2.8924359547   -2.6973410158   -0.2263740886
 C   -4.0695797546   -1.9220285689    0.3622125970
 H    1.0498128424    1.9928265101   -0.1515957093
 H   -0.4842366368    1.8736776026   -1.0282622295
 H   -0.4805489711    2.0483399385    0.7321102193
 H    0.5866011587   -0.3671629194   -0.8285334906
 H    1.8765125118    0.0957795718    1.2654095324
 H    0.3811927406    0.0343614858    2.2060262914
 H    0.9797135114   -1.4204531534    1.3982727535
 H   -1.8850506900   -0.1660334993    0.9535678079
 H   -1.9042297275   -0.0792424837   -0.7978781190
 H   -0.8408559892   -2.3800354064   -0.8806949149
 H   -0.2603102188   -3.4269556838    1.2857968473
 H   -1.4872479106   -2.4585766310    2.1167538377
 H   -2.0423144519   -4.7181998380    0.0991814928
 H   -3.1107053360   -4.2333712706    1.4297095242
 H   -3.1328121311   -2.9787378132   -1.2570765980
 H   -3.8954469391   -1.6460825708    1.4081381947
 H   -4.2705892812   -1.0009907218   -0.1950061163
 H   -4.9786118500   -2.5329259451    0.3325391588