21

 C   -0.0039233473    1.4767368908    0.4218047572
 C    0.0460480756    0.0522355135   -0.1494395634
 C   -1.3152779067   -0.5461305704   -0.3228234139
 C   -2.4012570822   -0.1953604063   -1.3552048275
 C   -2.9641022427   -1.6528738168   -1.1806589762
 O   -2.8019384003   -2.4864469188   -2.3081512576
 C   -1.8393028096   -1.9195064835   -0.1627223411
 C   -1.2209488395   -3.2348091186    0.1732654775
 O   -2.0346514094   -0.9393543799    0.8686891840
 H    1.0039451568    1.8830457704    0.5470062856
 H   -0.5570553152    2.1514310471   -0.2399264776
 H   -0.4992274036    1.4817705923    1.3970651702
 H    0.5556067726    0.0551783367   -1.1211840834
 H    0.6297270550   -0.5935570337    0.5161158634
 H   -3.0579745258    0.6369758913   -1.0894201108
 H   -2.0067684745   -0.0634916225   -2.3666394786
 H   -3.9761678583   -1.7224025736   -0.7598159085
 H   -3.4411963619   -2.2194353020   -2.9758848272
 H   -1.0006511164   -3.7874573175   -0.7441451056
 H   -0.2968323145   -3.0978268521    0.7412291745
 H   -1.9054314620   -3.8403145861    0.7782826490