16

 N   -0.1140639725    1.3422954560    0.0269811683
 C    0.0946643741    0.0003157345   -0.0467411305
 O    1.1819904196   -0.5156428433   -0.2169101856
 C   -1.2052087511   -0.8248381097    0.0445552839
 C   -0.9770461766   -2.3377842491    0.1564178332
 C   -1.7450995676   -2.7362324652    1.3880548996
 C   -2.3430224173   -1.7053336284    2.0010031552
 C   -2.0655516397   -0.4555437092    1.2740474981
 O   -2.4258017319    0.6678781327    1.5648715707
 H    0.7054836927    1.9250561400    0.0977574909
 H   -0.9797163599    1.6676793531    0.4408011051
 H   -1.7977407743   -0.5655730634   -0.8404407726
 H   -1.3284659883   -2.8882231246   -0.7236782011
 H    0.0922253255   -2.5558086962    0.2518501538
 H   -1.7864811534   -3.7666917513    1.7252744516
 H   -2.9377579392   -1.7312349559    2.9044660792