11

 O    0.1210882619    1.3322884902    0.0569381689
 C    0.0798828651   -0.0050595806    0.0418996419
 N    0.0782816887   -0.7257298400   -1.0723940144
 N    0.0305649574   -1.9784076159   -0.5955215147
 N    0.0017469930   -2.1260497603    0.7033864728
 C    0.0322618335   -0.8635113089    1.1682694131
 C    0.0168726071   -0.5052283458    2.5903314691
 O   -0.0246713150   -1.2931328003    3.5047893582
 H    0.1477849884    1.6441404934   -0.8568793556
 H    0.0176145304   -2.7708902211   -1.2184696260
 H    0.0476306895    0.5911235293    2.7650475766