23

 C    0.1012959316    1.5547737866   -0.0846836225
 C   -0.0057170483    0.0301918685    0.0145365216
 C   -1.4504102680   -0.5126379427    0.0633286785
 C   -1.4692896650   -2.0350818324   -0.1566754590
 C   -2.8383732279   -2.6338182890    0.1446358689
 O   -2.7851621061   -4.0151878447   -0.1909255364
 C   -3.2021733231   -2.4092935169    1.6170745342
 C   -2.9213386681   -0.9921566399    2.0465816308
 C   -2.1583768975   -0.1507011745    1.3488250717
 H    1.1476700013    1.8687187305   -0.1517220412
 H   -0.4150620245    1.9294056379   -0.9757374637
 H   -0.3336748079    2.0572746595    0.7850209284
 H    0.4965183728   -0.4178812683   -0.8522649975
 H    0.5371048019   -0.3251839062    0.9000139103
 H   -1.9961832919   -0.0373624273   -0.7688511784
 H   -1.1850178511   -2.2776161324   -1.1859164324
 H   -0.7307756979   -2.5131562962    0.5003675615
 H   -3.5881913883   -2.1211845928   -0.4820603506
 H   -3.6399362611   -4.4050401943    0.0190471621
 H   -4.2607486703   -2.6510261765    1.7883954331
 H   -2.6275529314   -3.1197386413    2.2290540190
 H   -3.3824589004   -0.6575744219    2.9730104762
 H   -2.0224075487    0.8638398744    1.7155831357