13

 C    0.3029342619    1.5629202830    0.1527695545
 N    1.2382897851    0.4879111125   -0.1774991216
 C   -0.1829433296    0.1547434188    0.0569030499
 C   -0.4965723061   -0.6447325618    1.2480272601
 C   -1.3827433597   -1.6589890064    1.4617761870
 N   -1.2701868010   -2.0173392827    2.7822058642
 N   -0.4086574852   -1.3156947405    3.3650005579
 O    0.1290965350   -0.3929576900    2.3944207043
 H    0.4457122834    2.0000216692    1.1358990577
 H   -0.0155603177    2.2542924110   -0.6228158405
 H    1.4278522623    0.4718584704   -1.1763541396
 H   -0.7968811129   -0.1003624741   -0.8021963901
 H   -2.0694514756   -2.1448275694    0.7904115962