15

 N    0.0248920760    1.3348769457    0.4458840534
 C   -0.0618265851    0.0099268646    0.0748786899
 N   -1.1630429400   -0.6279423806    0.1255382247
 C   -1.1325808054   -1.9615378445   -0.4663159228
 C    0.1437176727   -2.7279108021   -0.2024487905
 N    0.1497210096   -3.9751923576    0.0054638269
 O    1.2942969886   -1.9882496526   -0.1791333175
 C    1.1990906819   -0.6021185150   -0.4944561864
 H    0.8877626778    1.6367190362    0.8725890920
 H   -0.8051215898    1.6807251808    0.9083732611
 H   -1.9611790121   -2.5580547192   -0.0832810698
 H   -1.2786891602   -1.8890173558   -1.5563841839
 H    1.1062497862   -4.3062312904    0.1497295459
 H    1.2089503667   -0.4584747295   -1.5850566763
 H    2.1046735931   -0.1376740698   -0.0939565769