16

 O    0.0709280825   -0.0805823761   -0.0823522264
 C   -0.0213836447    1.1316717602   -0.0333733183
 N   -1.1985065950    1.8060659461   -0.1655867648
 C   -1.3735397222    3.2462841726   -0.0175536981
 C   -0.1169418593    4.0257104940   -0.3974847024
 C    1.0738514970    4.0605615795    0.5178143935
 O    1.1005730610    2.8824119167    1.3252996063
 C    1.1831836877    2.0519286902    0.1231135616
 C    1.1567675676    3.2944502443   -0.7739032021
 H   -2.0210684841    1.2250541669   -0.2283543320
 H   -2.1984734875    3.5493841261   -0.6704213702
 H   -1.6613811442    3.4991123648    1.0120289074
 H   -0.2845590699    4.9420908232   -0.9551162553
 H    1.5661141766    4.9492452660    0.8936792621
 H    2.1011932238    1.4635558694    0.1175891309
 H    1.7148742606    3.4479363562   -1.6863265120