25

 C    0.2474433826    1.4949944808    0.0525266036
 C   -0.0143466979   -0.0228230681    0.1008327947
 C    0.4127234930   -0.5692026313    1.4753068329
 C   -1.5164466252   -0.2890968006   -0.1022987376
 O   -2.2543767266    0.3562907419    0.9277833947
 C    0.7320531501   -0.6923451617   -1.0700280115
 C    2.2877986259   -0.7171036891   -1.1279858121
 C    2.1959366157   -2.1078386039   -1.8116636074
 C    0.7481391091   -2.2382266208   -1.2681804883
 H    1.3103395859    1.7120339556    0.1997300432
 H   -0.0491273335    1.9154384125   -0.9154592122
 H   -0.3205125340    2.0107167522    0.8304365702
 H   -0.1961838921   -0.1132190398    2.2592059949
 H    0.2777425023   -1.6536028734    1.5442074076
 H    1.4622093061   -0.3450744403    1.6880238865
 H   -1.8198743525    0.0870053142   -1.0931703269
 H   -1.6993889542   -1.3753354803   -0.0906026951
 H   -3.1855665128    0.1548565209    0.8018982982
 H    0.3668455165   -0.2354112980   -1.9995624180
 H    2.7889892013    0.0888049517   -1.6696102137
 H    2.7331129768   -0.7941369638   -0.1319439435
 H    2.2126146385   -2.0241583778   -2.9022413942
 H    2.9206480489   -2.8687435311   -1.5125001364
 H    0.7283136454   -2.7748079640   -0.3153088953
 H   -0.0079522891   -2.6751677057   -1.9257554842