21

 C   -0.2358506375    1.5284638760   -0.1383182122
 C   -0.0866659669    0.0069279129   -0.2286770980
 C    1.0685973631   -0.4664497721   -1.1329747794
 C    2.4570239476   -0.0854274837   -0.5981904051
 C    0.9886486862   -1.9671011286   -1.3096123491
 O   -0.0696122331   -2.4845045758   -2.1126844494
 C    1.2779450311   -2.6578396675   -2.5876326861
 C    1.6626532503   -1.9515398948   -3.7804243854
 C    2.0134160020   -1.3934090037   -4.7859902119
 H    0.6354713128    2.0022926497    0.3244804983
 H   -0.3669669717    1.9706362101   -1.1322189801
 H   -1.1106439416    1.7971662533    0.4618360549
 H    0.0494430219   -0.4109246803    0.7786244942
 H   -1.0165991913   -0.4228652483   -0.6182874143
 H    0.9360433095   -0.0149181846   -2.1235486889
 H    2.6384399394   -0.5354220512    0.3853744542
 H    3.2452781703   -0.4276139394   -1.2759141263
 H    2.5586116358    0.9975047871   -0.4911708537
 H    1.1728056941   -2.5483538944   -0.4013943776
 H    1.6304956714   -3.6880531557   -2.5374299390
 H    2.3135647667   -0.8964614688   -5.6754416353