19

 C    0.0438316371    1.4967351472   -0.0816984240
 C   -0.0617080047    0.0010011889   -0.0315675646
 O    0.4215498274   -0.6797947312   -1.1987755198
 C   -0.4454875539   -1.7932994776   -0.8387434376
 C    0.4054733318   -2.7298608633    0.0077406293
 O    1.0966255941   -1.9458989065    0.9818110199
 C    0.3753714054   -0.7716543606    1.3024841160
 C   -1.1260969713   -1.0800091275    1.5632399401
 C   -1.3425986599   -0.8654804569    0.0554483893
 H    1.0955376353    1.7997995312   -0.1309274289
 H   -0.4700176261    1.8930743312   -0.9625585121
 H   -0.3973531651    1.9475009330    0.8132012911
 H   -0.8982716163   -2.2741045109   -1.7092552868
 H   -0.2124733817   -3.5056252032    0.4859945042
 H    1.1661538406   -3.2232046280   -0.6050347652
 H    0.9544704223   -0.2345381399    2.0552496917
 H   -1.3578729865   -2.0475435177    2.0157628904
 H   -1.6127835235   -0.2901985509    2.1428841797
 H   -2.3082571549   -0.5785081873   -0.3624596830