18

 C   -0.0551443601    1.5451536333    0.0527411430
 C    0.0389358097    0.0307123887    0.0175023950
 O   -1.2063959099   -0.5869851338    0.2498409579
 C    0.6585487231   -0.6347270856   -1.2209940757
 N    2.0563148138   -0.1609590873   -1.2967332748
 C    1.7080562443   -1.3040892026   -0.4147312410
 C    1.2031394037   -0.6776063349    0.8883153533
 C    2.1421466991    0.2034868621    1.6645562063
 O    1.9172920956    0.5834399936    2.7898676948
 H    0.8868918361    1.9958633391   -0.2675889150
 H   -0.8565737521    1.8821488581   -0.6120112481
 H   -0.2712913456    1.8961832046    1.0685862037
 H   -1.5873060701   -0.2005585070    1.0463387779
 H    0.1179098360   -0.9700347209   -2.0969553316
 H    2.4621843392   -0.5399639859   -2.1508573127
 H    2.1730456397   -2.2725039214   -0.5479037727
 H    0.7136147104   -1.3871434818    1.5568224895
 H    3.0584280870    0.5166541718    1.1212139998