21

 C   -0.2816065570    1.5341579991    0.0006653295
 C    0.0320240265    0.0394612014    0.0221337924
 C    0.7791902185   -0.4826120086   -1.2628636385
 C    1.9485264591   -1.3321971497   -0.7091415787
 C    3.0137803528   -0.3721976335   -0.1309695568
 C    2.3210156553    0.2309627331    1.1457505534
 C    0.9385293052   -0.4610696494    1.1811421315
 C    1.3190715366   -1.8322203868    0.6007035677
 O    1.1653794074   -2.9409114483    1.0304249081
 H    0.6199018209    2.1429422113   -0.1229059936
 H   -0.9481669719    1.7692537316   -0.8363646057
 H   -0.7795805019    1.8529304727    0.9225604096
 H   -0.9196889678   -0.4982646718    0.1093968477
 H    0.1121808906   -1.0777387180   -1.8922817215
 H    1.1522438316    0.3467926034   -1.8733482878
 H    2.3279315999   -2.1046781096   -1.3759020663
 H    3.9246287146   -0.9143638705    0.1378904206
 H    3.2919614872    0.3978978439   -0.8560431038
 H    2.8878132147   -0.0121584288    2.0486300119
 H    2.2420468783    1.3190853319    1.1017791970
 H    0.4552746995   -0.4860045234    2.1570953335