18

 C    0.0521215531    1.4527776962    0.0087446927
 C    0.0229558848   -0.0030383518    0.0013986667
 C    0.0155968147   -1.2068539025   -0.0046319582
 C   -0.0308348753   -2.6637551955   -0.0112947496
 C   -1.4686221912   -3.1886668233   -0.0008946978
 O   -1.4047177053   -4.6054503769   -0.0082086569
 C   -2.6757647141   -5.2017132949    0.0004572055
 C   -2.5257595682   -6.6602212108   -0.0078608963
 N   -2.4417661076   -7.8114855675   -0.0136909128
 H    1.0815899383    1.8274234011    0.0016943492
 H   -0.4563672958    1.8666898658   -0.8689721519
 H   -0.4409290489    1.8574678882    0.8994721841
 H    0.4783304794   -3.0641073572   -0.8962120213
 H    0.4941297842   -3.0726541013    0.8603946148
 H   -1.9994270547   -2.8297964492    0.8942963594
 H   -2.0153835115   -2.8213305795   -0.8829605656
 H   -3.2547180542   -4.9139859959    0.8937699272
 H   -3.2706781877   -4.9056946748   -0.8795388189