15

 N    0.7355285097   -0.8115548359    0.6945097245
 C    0.3433210320    0.2240604028    0.3636735335
 C   -0.1802801067    1.5375635310   -0.0645549142
 C   -0.9202255685    2.2797769328    1.0907861740
 C    0.1018022513    3.2985270931    1.5644125231
 C    1.4984079279    2.7955886313    1.8930914419
 C    1.1750821429    3.3111937263    0.5179088284
 O    0.8739410814    2.3847529554   -0.5045837858
 H   -0.8379359246    1.3576383644   -0.9209672936
 H   -1.7991385826    2.7918701235    0.6893256010
 H   -1.2545399024    1.5831313126    1.8628520165
 H   -0.2596643815    4.2093457751    2.0256805707
 H    2.1100384551    3.4320468387    2.5235513503
 H    1.6656615975    1.7334893437    2.0348149051
 H    1.6379101986    4.2036244853    0.1158995346