25

 C   -0.1555278626    1.5078094774    0.0467944608
 C    0.0127881217   -0.0109018780   -0.0975281599
 C    0.7929016034   -0.3703357937   -1.3697969710
 C    0.6767335396   -0.6068801525    1.1430729355
 C   -0.0477198175   -0.5333634328    2.5186641628
 C    0.4611868785   -1.9689573502    2.8333784607
 C   -0.4552414812   -2.9528745920    3.5437677704
 C    0.7515487081   -2.1621689520    1.3088864785
 O   -0.2173144910   -2.9045573741    0.5905534648
 H    0.8200730153    2.0028767495    0.1236364554
 H   -0.6739949985    1.9305185394   -0.8202846824
 H   -0.7310203765    1.7675983942    0.9412179828
 H   -0.9915375254   -0.4503511791   -0.1892239980
 H    1.8151717090    0.0248927660   -1.3261100844
 H    0.8497195662   -1.4543866094   -1.4989513670
 H    0.3133956058    0.0535367649   -2.2586352707
 H    1.6902991339   -0.1962430208    1.2369654637
 H    0.2368786536    0.2671452867    3.2057125027
 H   -1.1387464444   -0.5052391335    2.4025323925
 H    1.4179803275   -1.9081574412    3.3641405266
 H   -1.4039032686   -3.0799187731    3.0114522187
 H    0.0070502675   -3.9422459748    3.6240846109
 H   -0.6886985951   -2.6057478373    4.5561629344
 H    1.7042524029   -2.6336286217    1.0551553464
 H   -1.0875685421   -2.5296857219    0.7607881659