19

 N   -0.2097289429    1.2694943058   -0.4740441912
 C   -0.1216641062   -0.1107907789   -0.3262650157
 O    0.9036543697   -0.7249490209   -0.5699885525
 N   -1.2531796147   -0.7258297660    0.1517925690
 C   -2.4095620204   -0.0487916213    0.7385972554
 C   -3.3729041143   -1.1798936744    1.0466011678
 C   -3.6882149023   -2.1255654586   -0.0853676558
 C   -2.6126311504   -2.4798438025    0.9092113944
 C   -1.1857861413   -2.1423884726    0.5244714567
 H    0.5458776079    1.6356055260   -1.0331871337
 H   -1.1094389913    1.6784517697   -0.6735098883
 H   -2.1461413646    0.4996773162    1.6554124544
 H   -2.8406388539    0.6742197070    0.0325176160
 H   -4.1041050256   -1.0240259106    1.8303544992
 H   -4.6216995994   -2.6739980339   -0.0274239955
 H   -3.3889981603   -1.8470920141   -1.0915421596
 H   -2.7739851044   -3.3033015059    1.5939680376
 H   -0.7988337091   -2.7252262218   -0.3158006661
 H   -0.5047468065   -2.3014987533    1.3722731978