16

 C   -0.0007030010    1.5285311812    0.0721966942
 N    1.2105079150    0.6892648831   -0.0504797901
 C   -0.0967285515    0.0587553107    0.0269453900
 C   -0.4517791024   -1.0051166794    1.0573046591
 O   -1.8537061383   -1.2731548618    0.9007398650
 C   -0.9397143554   -1.9151492699    0.0009987042
 C   -0.6288795604   -0.8729122633   -1.0709583851
 C   -1.2016581610   -0.6366979093   -2.3910802261
 O    0.1443665756   -1.1334095143   -2.2262887686
 H   -0.0971080464    2.0563542612    1.0168672064
 H   -0.3452623648    2.0854367314   -0.7961520946
 H    1.5330529288    0.6553870715   -1.0167909431
 H    0.0135619952   -1.2138111245    2.0123392455
 H   -0.9455047588   -2.9958372548   -0.0692473127
 H   -1.9106005973   -1.3474290960   -2.8119945520
 H   -1.2743130672    0.3787705244   -2.7767212220