21

 C   -0.3210990564    1.4529189464    0.0726749382
 C    0.0375814827   -0.0283974816   -0.0083685031
 C    0.7360010740   -0.3749684869   -1.3303188449
 C    0.7949669439   -1.8655427559   -1.6751569695
 C    1.5607195209   -2.7603646385   -0.7255488748
 O    2.7213416020   -2.2432901348   -0.0582369995
 C    1.6061707487   -2.6434467285    0.7385512416
 C    0.9063919847   -1.6031903946    1.5961157496
 O    0.8825313569   -0.2903697270    1.1081533765
 H    0.5803006636    2.0658026875   -0.0277147862
 H   -1.0188384969    1.7299551816   -0.7228925841
 H   -0.7808719312    1.6791312052    1.0380244270
 H   -0.8839208080   -0.6293274712    0.0893789450
 H    0.2143516512    0.1369325327   -2.1477218671
 H    1.7496304175    0.0365091284   -1.2849401719
 H   -0.2230637620   -2.2720458764   -1.7631182878
 H    1.2440559676   -1.9757578206   -2.6706172677
 H    1.7101322822   -3.7682935441   -1.1220465212
 H    1.7658467301   -3.5734064559    1.2940189218
 H   -0.1131681186   -1.9733750397    1.8101332978
 H    1.4350255171   -1.5469186362    2.5550769106