19

 O    0.1386987460    1.3771681156    0.0674276892
 C    0.0404431379   -0.0387387377    0.0947529032
 C   -1.4051008670   -0.5237528883   -0.0625806304
 C   -2.0289305753    0.0274458328   -1.3418282193
 O   -3.1581630959   -0.2207947705   -1.6996440983
 C   -1.5265601357   -2.0396399420   -0.0034898809
 C   -1.7952802772   -2.7319385042    1.3221754538
 C   -2.8732837380   -2.6609432860    0.2808068146
 O   -3.9552626261   -1.8244964563    0.5395085198
 H   -0.2737960135    1.7208368771    0.8666555440
 H    0.6478195397   -0.3915281084   -0.7472039669
 H    0.4767486489   -0.4656855227    1.0082585041
 H   -2.0100815756   -0.1077315505    0.7554004808
 H   -1.3852037781    0.6949540701   -1.9496226765
 H   -0.8898631523   -2.5681041212   -0.7092569668
 H   -1.3153082457   -3.6838708698    1.5194184145
 H   -1.9307392644   -2.0997182618    2.1931932180
 H   -3.1139475079   -3.5794950877   -0.2548211353
 H   -4.0797901897   -1.2923404384   -0.2632466777