21

 C   -0.2160153426    1.3810011825   -0.0954680788
 O    0.0655008532    0.0098151814    0.0551915931
 C    0.4862675530   -0.5856303122   -1.1350966549
 C    0.7714214988   -2.0610877933   -0.8999041535
 O    0.6377291211   -2.5903426541    0.1752026649
 C    1.2508361052   -2.8818584054   -2.1154130328
 C    2.6436567536   -3.4469332074   -1.8003806274
 C    0.2359463233   -4.0052110082   -2.3732716885
 O    1.3076566188   -1.9861928649   -3.2269100728
 H    0.6698306273    1.9484720270   -0.4228463463
 H   -1.0225788609    1.5567902417   -0.8251770060
 H   -0.5344875865    1.7546618121    0.8804276576
 H   -0.2665791747   -0.5008516974   -1.9379407523
 H    1.3985476007   -0.1158129895   -1.5419461988
 H    2.6143051951   -4.0348478465   -0.8803385565
 H    2.9839443885   -4.0920739786   -2.6184810730
 H    3.3673077504   -2.6360424796   -1.6773621535
 H   -0.7351296584   -3.5872922468   -2.6538109590
 H    0.5835010315   -4.6489128503   -3.1894477796
 H    0.1104616034   -4.6151287306   -1.4759255791
 H    1.6057563793   -2.4844206899   -3.9944058730