19

 C   -0.1548594842   -1.2175094169    0.1274222512
 C   -0.0595822458   -0.0186180489    0.1392882383
 C    0.0170277054    1.4127293009    0.1159347166
 C    0.6508272231    2.1946859970    1.2597241538
 C    1.3415388573    2.1417316914   -0.0695772276
 C    2.6482191127    1.4019288035   -0.2368975562
 C    3.9394017659    2.2032413718    0.0616687950
 C    4.2100282638    1.1009811670    1.1027323424
 O    2.9432040778    0.4668788597    0.8274228701
 H   -0.2217200700   -2.2767443941    0.1334422390
 H   -0.8349591404    1.8932421387   -0.3578580531
 H    0.1623135628    3.1108043393    1.5714669890
 H    1.0923490686    1.6017804880    2.0512860106
 H    1.2840032413    3.0281797296   -0.6975951944
 H    2.6634782916    0.8883555131   -1.2081224088
 H    4.6551691589    2.2816271150   -0.7576703247
 H    3.7597732306    3.1938623112    0.4838153076
 H    5.0522075332    0.4364448055    0.8727179014
 H    4.2888087376    1.4240333282    2.1473050998