17

 C   -0.0600666043    1.4393457986   -0.0422914056
 N   -0.0918288343   -0.0086178406    0.0036753896
 C    0.5289492153   -0.6294428214   -0.9089616275
 N    0.5478841033   -2.0244022041   -0.9384965266
 C   -0.1693400059   -2.7369263334    0.1138606431
 C    1.2464075797   -2.6483117926   -1.9630075887
 O    1.8403595402   -2.0390331456   -2.8326435001
 C    1.2387590965   -4.1024899518   -1.9538596887
 C    1.3030603235   -5.2997881953   -2.0492236694
 H    0.5173012351    1.8463499591   -0.8868075783
 H   -1.0841624122    1.8253931811   -0.1028832420
 H    0.3681733044    1.8250770862    0.8900368669
 H    1.0883538299   -0.1773615991   -1.7301829424
 H   -1.2260698926   -2.4591412339    0.0966838911
 H   -0.0635346480   -3.8084499930   -0.0418613356
 H    0.2331202292   -2.4594756690    1.0912227697
 H    1.3586034302   -6.3581051253   -2.1322928655