19

 N   -0.1008966155    1.3736562551    0.1702888658
 C    0.0527062610   -0.0014400378    0.0032678872
 O    1.1440235330   -0.5294350486   -0.1059809578
 N   -1.1389848322   -0.6939816043   -0.0113375588
 C   -1.1441702297   -2.1506552905    0.0467067556
 C   -1.2147830740   -2.6828221731    1.5087103775
 C   -2.6876608584   -2.9518279035    1.7067199537
 C   -3.3492969488   -2.9628123974    0.5492957560
 C   -2.4318565978   -2.7010892320   -0.6230817348
 H    0.7437972100    1.8764630896   -0.0582262899
 H   -0.9349874071    1.7931389975   -0.2140036730
 H   -1.9434769912   -0.2349388667    0.3906585268
 H   -0.2314076692   -2.4687622652   -0.4546994695
 H   -0.6319852086   -3.6074733134    1.6208969269
 H   -0.7924043939   -1.9626062043    2.2171131556
 H   -3.1240411572   -3.1474767967    2.6800317598
 H   -4.4065725424   -3.1726284639    0.4312454814
 H   -2.8338000669   -1.9916695755   -1.3544091711
 H   -2.2258040211   -3.6307917594   -1.1707108312