21

 C   -0.0989432706    1.6000796073   -0.0805472790
 C    0.0430504337    0.0895792760    0.0002462434
 C    1.2065995617   -0.6219303966   -0.7447024816
 O    2.3623162268    0.0720996289   -0.2541356473
 C    2.2461623502   -0.3444418303    1.1181477508
 C    2.4773281307   -1.8643732724    1.0077191066
 C    1.1121797879   -1.8250550210    0.2978052112
 C    0.2798545749   -3.0409681397   -0.0154447465
 C    0.6831223049   -0.6079739075    1.2132357596
 H    0.8692200991    2.0866610148    0.0582180619
 H   -0.4958958982    1.9075452553   -1.0546759844
 H   -0.7862407542    1.9707742957    0.6878350278
 H   -0.9046483554   -0.4105305378   -0.2275774820
 H    1.2538807209   -0.7496807265   -1.8262421810
 H    2.8051777062    0.3161299561    1.7783636172
 H    3.3702564937   -2.1906004116    0.4670743846
 H    2.3946075734   -2.3780810592    1.9704211647
 H    0.1121185274   -3.6479017698    0.8809286744
 H   -0.7006155653   -2.7735000130   -0.4242293140
 H    0.7813759171   -3.6753026539   -0.7560987779
 H    0.2216973050   -0.7123280248    2.1947265213