17

 C   -0.0806664783    1.5067478284    0.1125451090
 C    0.0069711486    0.0268802357   -0.1889181620
 O    1.0374972580   -0.5083877307   -0.5383234483
 C   -1.2682806435   -0.7696985530   -0.0331384571
 O   -2.4328790243   -0.0295459809    0.1916253309
 C   -1.3740687093   -2.0931405185   -0.7319508190
 C   -1.2289494919   -2.0816144241    0.7748217183
 C    0.0025756791   -2.6131419645    1.4205374477
 O   -0.0100195516   -3.1339128144    2.5101447488
 H    0.9166024693    1.9435903398    0.0587235553
 H   -0.7392483511    2.0040468443   -0.6081798903
 H   -0.5254349383    1.6720378649    1.0983830732
 H   -2.8015446763    0.2250078758   -0.6615537226
 H   -2.3431321322   -2.3677527172   -1.1322131878
 H   -0.5072085423   -2.3972336360   -1.3087675856
 H   -2.1318087732   -2.2299832017    1.3569328115
 H    0.9314889774   -2.5188619379    0.8269001581