15

 O    0.3728298076    1.1762519566   -0.5346032197
 C    0.0080616974   -0.0884737684   -0.0144212612
 C    0.4374287631   -0.2816106307    1.4676487874
 O   -0.5170935836   -1.1371171579    2.0849928635
 C   -1.7160353582   -1.0457965986    1.3561271132
 C   -2.2949413666    0.3174773235    1.0922317994
 C   -1.4776747376   -0.4038332057    0.0233772699
 H   -0.2217032817    1.8298266645   -0.1494655772
 H    0.5142288008   -0.8154872996   -0.6574439750
 H    1.4245584089   -0.7378822580    1.5768382942
 H    0.4662684165    0.7040657020    1.9566714075
 H   -2.3564723302   -1.9049715289    1.5146392059
 H   -3.3644401071    0.3855453337    0.9271001181
 H   -1.8714922018    1.1730407596    1.6098325808
 H   -1.9670270175   -0.7381209221   -0.8830524067