16

 C   -0.0208219385    1.3425286615   -0.4718022834
 C   -0.0289600220   -0.1488689825   -0.1236962100
 C   -1.4188084457   -0.6393482818    0.2590351580
 O   -2.3823414887   -0.5815177911   -0.8360093491
 C   -2.6430749207   -1.9942004245   -0.8430688130
 C   -2.2938817299   -2.6543394675   -2.0958467569
 N   -1.9945825918   -3.1862497442   -3.0773306362
 C   -1.6263319295   -2.1536353954    0.3369905882
 O   -1.2155716409   -3.0571374137    0.9856395617
 H    0.9820369266    1.6644088279   -0.7650296871
 H   -0.7014197683    1.5476174612   -1.3024973962
 H   -0.3347905773    1.9506499972    0.3831792083
 H    0.3358492696   -0.7384926360   -0.9722650135
 H    0.6375478843   -0.3564591258    0.7221430511
 H   -1.7994613176   -0.1020736933    1.1387287162
 H   -3.6770727096   -2.2344895420   -0.5647157483