21

 C   -0.0839454575    1.3915270161   -0.0853611426
 O   -0.0672576272   -0.0147015485   -0.0916933610
 C    0.7710967464   -0.5492156341   -1.0964341766
 C    0.6747709743   -2.0604719115   -1.0423753291
 C   -0.6851815955   -2.7310946658   -1.4549127635
 C    0.0715163949   -3.4869296724   -2.5632784426
 C   -0.2440406345   -4.8128324276   -3.1738036087
 O    0.6619748413   -2.4778812626   -3.4023562356
 C    1.3424605731   -2.8377008015   -2.1898500048
 H    0.9161396412    1.8128337520    0.1070731273
 H   -0.4469158669    1.8018485485   -1.0413001603
 H   -0.7587100761    1.7090111732    0.7137163033
 H    0.4627230461   -0.1937478496   -2.0917922292
 H    1.8152985239   -0.2249060157   -0.9380949791
 H    1.0066129880   -2.4219988358   -0.0647235858
 H   -1.0855103826   -3.3813276600   -0.6738085451
 H   -1.4703154665   -2.0578912148   -1.8067243628
 H   -1.1568935283   -4.7547883436   -3.7776968142
 H    0.5727505715   -5.1395003599   -3.8229710834
 H   -0.4031197698   -5.5693947315   -2.3985856133
 H    2.3704626239   -3.1720557548   -2.2842181929