21

 C   -0.0953615363    1.4639136740   -0.1504734835
 C   -0.3480008467   -0.0411999927   -0.1640452878
 O    0.8067748162   -0.7769535337    0.2430995955
 C   -1.5537900113   -0.4371826435    0.7093362456
 N   -1.7538251922   -1.8752026342    0.8472612247
 C   -2.7434235136   -2.5037541924   -0.0188849260
 C   -2.4192324665   -2.5848814709   -1.5284360286
 C   -3.0106041102   -3.8611068636    0.4953572499
 N   -3.2105558632   -4.9355831518    0.8697862881
 H    0.7846556198    1.7082253117   -0.7509765785
 H   -0.9532646618    2.0127364396   -0.5527585638
 H    0.0768877667    1.8212797689    0.8726558725
 H   -0.5215176908   -0.3709327296   -1.1941965657
 H    1.0808036476   -0.4420284332    1.1052882598
 H   -1.3944433187   -0.0058046198    1.7106442112
 H   -2.4679427083    0.0257575915    0.3192327834
 H   -0.8564448391   -2.3461971877    0.7854846896
 H   -3.6784229457   -1.9403637375    0.1010521233
 H   -1.4747743150   -3.1120706904   -1.6901389603
 H   -3.2087737321   -3.1173593691   -2.0672361409
 H   -2.3369250489   -1.5796871957   -1.9495243087