16

 C    0.0023304436    1.4852022927    0.0057309385
 C    0.0126202561    0.0303594558   -0.0209246931
 C    0.0042236436   -1.1777061962   -0.0487076980
 C    0.0213341333   -2.5878621400   -0.0767090244
 C    1.1577120567   -3.3940601981   -0.0079477642
 N    2.5012077624   -3.0482997172    0.0189649299
 N    0.7212275874   -4.6727726481   -0.0512260441
 N   -0.6361518240   -4.7757937939   -0.1419767318
 C   -1.0503281836   -3.5218540203   -0.1624311751
 H    0.6404142226    1.9084565605   -0.7788387055
 H   -1.0109824880    1.8707270902   -0.1534854308
 H    0.3546139896    1.8773431040    0.9671377521
 H    2.6125096161   -2.0493193433    0.1430992076
 H    3.0474613785   -3.5478383816    0.7100402925
 H    1.2784744021   -5.5093082754   -0.0767336232
 H   -2.1051646565   -3.2995950192   -0.2279373103