19

 C   -0.3008965978    1.4766591007   -0.0447448613
 C   -0.0394362280   -0.0237775417   -0.0694089057
 C    1.2114963344   -0.4815246160   -0.8220552350
 O    1.6649277025   -0.3860145543   -1.9175764843
 O    1.7645761009   -1.1068868473    0.2653374513
 C    0.6445947831   -0.7266753527    1.1312447713
 C    0.9638383741   -0.0001002279    2.4510795288
 C   -0.1327202247   -0.8667731745    3.1334586729
 C   -0.0628856899   -1.8406335931    1.9227398461
 H    0.5825272288    2.0340764294    0.2792231098
 H   -0.5644048399    1.8239502892   -1.0477275362
 H   -1.1283432439    1.7226130815    0.6279883503
 H   -0.9265991537   -0.5652241457   -0.4131107936
 H    1.9674616048   -0.2675227115    2.7920502854
 H    0.8591041396    1.0864054607    2.4778106717
 H    0.1006188795   -1.2788709864    4.1160696455
 H   -1.0922965742   -0.3471234812    3.1910288152
 H   -0.9966266935   -2.2354345033    1.5146895347
 H    0.6242275882   -2.6708575760    2.1064632731