19

 O    0.3280499306    0.5404628123    0.9822897307
 C   -0.1215668079    0.3615000224   -0.3513682253
 C   -1.4886360003   -0.3154384172   -0.3689122012
 C   -2.0335798652   -0.9826869024   -1.6944017993
 C   -1.0921006103   -2.1962806732   -1.3767140737
 C   -1.5300355044   -1.8171620644    0.0819143041
 O   -0.8111652171   -2.1705822188    1.2295736286
 C   -3.0427066883   -2.0893055669   -0.0072711401
 C   -3.3708410759   -1.5356768426   -1.1774483134
 H    0.3011781164   -0.3300515358    1.3991312172
 H   -0.2021774178    1.3639216698   -0.7875172746
 H    0.6201768027   -0.1865457394   -0.9509119634
 H   -2.2078657196    0.3218955702    0.1518657275
 H   -2.0088824303   -0.4693579225   -2.6535645086
 H   -1.4029782440   -3.1735108295   -1.7526041984
 H   -0.0358462140   -2.0150238118   -1.5848134364
 H   -0.7748621307   -3.1303161734    1.3002155025
 H   -3.6438200587   -2.5857342024    0.7416303186
 H   -4.3302230548   -1.4584594242   -1.6692144851