16

 C   -0.0285188251    1.3617197334   -0.0117158359
 O    0.0052508514   -0.0436106726    0.0029634999
 C    0.6758690526   -0.5645988932    1.1292153339
 C    0.6535025911   -2.0840789237    1.0442451415
 C    1.3558339321   -2.7478558239    2.2209117726
 O    1.2733886567   -4.1527125025    2.0361375207
 H    0.9839261691    1.7967842813   -0.0349045738
 H   -0.5637534085    1.6680322249   -0.9138992427
 H   -0.5532715391    1.7692795368    0.8677135179
 H    1.7157605557   -0.1924866028    1.1610035031
 H    0.1871476522   -0.2201686346    2.0583988101
 H   -0.3849366465   -2.4293630051    1.0039642238
 H    1.1339330440   -2.4019376416    0.1129268161
 H    2.4057266825   -2.4137180379    2.2684433086
 H    0.8760452272   -2.4419309057    3.1655699622
 H    1.7147050347   -4.5790578029    2.7763777021