19

 C   -0.0201929151    1.4671119988    0.0231301123
 C    0.0481034794   -0.0412116765    0.0002289596
 C    0.6175251173   -0.7008491346   -1.2865154042
 C    0.1978392597   -2.1611887246   -1.0552615042
 O    1.0590362508   -2.7786623224   -0.0697828022
 C    0.2637920041   -2.1890281293    0.9856942392
 C    0.6988395693   -0.7351714309    1.2290728620
 C   -0.9332663725   -1.9694593684    0.0056343764
 O   -1.2841658911   -0.6098085247    0.0355290729
 H    0.9866209313    1.8944540196   -0.0015237354
 H   -0.5746654028    1.8413060956   -0.8426310956
 H   -0.5207387881    1.8165406548    0.9310711331
 H    0.1222353427   -0.2747103121   -2.1649262977
 H    1.7000372128   -0.6072494149   -1.3975041090
 H    0.0708607226   -2.7782084207   -1.9460099804
 H    0.1940245369   -2.8302084926    1.8656306103
 H    1.7863445235   -0.6436865196    1.2723761232
 H    0.2617340911   -0.3335572807    2.1489420941
 H   -1.8023443018   -2.6215272167    0.0248222657