20

 C    0.5499058246   -0.5487527919   -1.5008626592
 N   -0.1575142815   -1.7975488546   -1.2187608380
 C   -1.4704198291   -1.6040751628   -0.6838691859
 C   -2.2254559430   -2.7760767134   -0.1175569821
 C   -1.6945734732   -4.1901653886   -0.1659107335
 C   -1.6059227600   -1.7416568205    0.8425251584
 N   -0.4067371719   -1.9974879429    1.5910751895
 C   -2.5347062034   -0.8447987139    1.4916952478
 N   -3.3051199309   -0.1441829193    1.9964256753
 H    1.5243752815   -0.7747763050   -1.9417879778
 H    0.0032424115    0.1215401602   -2.1840112860
 H    0.7166992210   -0.0093986269   -0.5636557730
 H   -0.1959118438   -2.3818807742   -2.0463445385
 H   -2.0726177321   -0.8091920493   -1.1292400696
 H   -3.3039893923   -2.6974983078   -0.2201611522
 H   -0.6128682024   -4.2248761372   -0.0251758614
 H   -2.1616439856   -4.8040954227    0.6112351686
 H   -1.9221277202   -4.6557775307   -1.1310941216
 H   -0.5257827728   -2.7728089486    2.2343898305
 H    0.3351678338   -2.2286613601    0.9359945786