15

 O    0.0070863149    1.3880820375    0.0069780324
 C   -0.0117629528   -0.0251693224    0.0025647767
 C   -1.4276799241   -0.4853278468    0.0122774231
 C   -2.5561347040    0.2357896264    0.0230924625
 C   -3.7255965056   -0.6893219977    0.0295509473
 O   -4.9063563079   -0.4396567835    0.0393846960
 N   -3.1685090781   -1.9764227829    0.0215183540
 C   -1.7789488427   -1.9329957648    0.0108554444
 N   -0.9164359856   -2.8697509640    0.0014867499
 H    0.9241865986    1.6756570571    0.0004849563
 H    0.4906202578   -0.4472324824   -0.8825962555
 H    0.5045804682   -0.4529503534    0.8768717020
 H   -2.6568710887    1.3097690863    0.0269608523
 H   -3.7289006366   -2.8125720847    0.0234346239
 H   -1.3529054735   -3.7933292947    0.0022347447