16

 C   -0.4112263541    1.0092451619   -0.1985080628
 O    0.5683419857    0.0227907288    0.0910534051
 C    1.0145369712   -0.6420620647   -1.0323166409
 C    1.4988616031   -2.0415132441   -0.8339531042
 C    0.1881951148   -1.8041892198   -1.5864861007
 O   -1.0067417422   -2.0442237807   -0.8982483220
 C    0.1521258221   -2.0184348684   -3.0077906767
 C    0.1160597369   -2.2131719200   -4.1949509690
 H   -0.0220736068    1.7658273389   -0.8959893631
 H   -1.3136213229    0.5574358726   -0.6258333537
 H   -0.6588134276    1.4941706079    0.7481750295
 H    1.5115985831   -0.0195439923   -1.7780245808
 H    2.3648584212   -2.3894679623   -1.3841021910
 H    1.3748360724   -2.4346688290    0.1689285470
 H   -1.1941579365   -2.9879956732   -0.9527390517
 H    0.0793774097   -2.3745631255   -5.2438061750