10

 O   -0.0590972957   -0.0388789155    0.0033171627
 C   -0.0422096433    1.1553645546    0.0092937269
 N   -1.0859799711    2.0669264704    0.0287442112
 C   -0.5534434724    3.3335360259    0.0284666076
 N    0.7467667524    3.3086972418    0.0111119772
 O    1.0876389798    1.9446378655   -0.0010023868
 C   -1.3297464574    4.5132471751    0.0456116131
 C   -2.0216595637    5.4955468535    0.0605122101
 H   -2.0587209690    1.8133581216    0.0405524423
 H   -2.6208875798    6.3736237374    0.0735720057