16

 C   -0.0767761070    1.5173975051    0.1361031439
 C    0.0361855421    0.0060055740   -0.0433247002
 C    0.7569804027   -0.3939366091   -1.3192057411
 O    1.1985481621    0.4038346497   -2.1161048539
 C    0.8899624283   -1.8291908121   -1.5346340780
 C    0.9977079982   -3.0167029419   -1.7085097945
 C    1.1251506621   -4.4557655307   -1.9136879449
 C    1.8338119231   -4.8141370872   -3.1491796509
 N    2.3879697944   -5.1179590625   -4.1149002101
 H    0.9118556897    1.9818891263    0.1685265965
 H   -0.6219430184    1.9698365296   -0.6959273896
 H   -0.6022453487    1.7534354513    1.0652272622
 H    0.5672504584   -0.4634969916    0.7961164453
 H   -0.9512424415   -0.4755612323   -0.0579914550
 H    1.6537088121   -4.9102003201   -1.0656455899
 H    0.1309587723   -4.9206925684   -1.9360613097