16

 C   -0.1735252223    1.3563514716   -0.1327507369
 C   -0.0587449304   -0.0376552222    0.3944508558
 C   -1.0541321533   -0.9631873916    0.4840472935
 C   -1.6887924971   -1.4792971868   -0.7988855291
 N   -0.6968681851   -2.6571056771   -0.6820181273
 C   -0.5418843679   -2.3658332007    0.7534339685
 C    0.6901439702   -2.2582688244   -0.0565834377
 C    1.1926159901   -0.8331753788    0.1227393506
 O    2.2928568543   -0.4169884364   -0.1465857299
 H    0.6311373546    1.5765306981   -0.8400353062
 H   -1.1453807382    1.5356177743   -0.6057979570
 H   -0.0797454043    2.0780874822    0.6886581552
 H   -2.6745824738   -1.9446924030   -0.7257627623
 H   -1.6164955535   -0.8502906277   -1.6900865536
 H   -0.7670228266   -3.0641895676    1.5509658042
 H    1.3914835532   -3.0713094498   -0.2021263479