19

 C   -0.0567086739    1.5170945603   -0.1012954358
 C    1.2935890486    0.8460064547    0.0240960618
 C    0.0225032221    0.0220596465    0.0135545906
 C   -0.1343260398   -0.6361590641    1.3823042979
 C    1.0932664537   -1.5357868851    1.6029003414
 O    2.2881926660   -0.7496875381    1.5144330704
 C    1.9803383012    0.6488920636    1.3698045375
 C    1.0735565263    1.0449767454    2.5323003317
 O   -0.1731296754    0.3421365548    2.4215624490
 H   -0.4684542123    2.0789502169    0.7273450441
 H   -0.2963460385    1.9194126501   -1.0793843061
 H    1.9445356229    0.8386121136   -0.8431270746
 H   -0.2197229803   -0.5946409709   -0.8460792623
 H   -1.0601364979   -1.2098588199    1.4716595902
 H    1.0398086618   -2.0027125017    2.5953570256
 H    1.1322384348   -2.3314131659    0.8468077937
 H    2.9390627463    1.1683814744    1.4358935276
 H    1.5620040928    0.7780751694    3.4784603866
 H    0.8707855615    2.1228529160    2.5392442111