19

 O    0.0266857944    1.4620303776   -0.2188847812
 C    0.0469727531    0.0535031202   -0.0280612277
 C   -1.3597723636   -0.5283111501    0.0647207089
 C   -1.5008642944   -2.0509479945    0.3188409767
 C   -0.9520145108   -2.1524304273    1.7587219944
 O   -1.3684273074   -0.9070753701    2.3620564262
 C   -2.1383286347   -0.2566494935    1.3617049079
 O   -3.3679553252   -0.9322767935    1.1673455255
 C   -3.0314072374   -2.1362440316    0.4407586067
 H   -0.2181387679    1.8699362197    0.6172383389
 H    0.5541424149   -0.3568144216   -0.9081965112
 H    0.6430340040   -0.2158366552    0.8530643706
 H   -1.9363248040   -0.2063613437   -0.8073299852
 H   -1.0506683905   -2.7335612176   -0.4017411102
 H   -1.3870970177   -2.9935651989    2.3108687710
 H    0.1397910500   -2.2340720982    1.8034751194
 H   -2.3443933297    0.7634989424    1.6827820167
 H   -3.5348747613   -2.1325626080   -0.5341898952
 H   -3.3676402217   -3.0102055760    1.0102425878