15

 C   -0.0475285331    1.3569271843   -0.0470147971
 O    0.0270259270   -0.0747867337    0.0390130535
 C    0.6666491394   -0.5403449968    1.1182988312
 O    1.1649534972    0.1233940040    1.9874778376
 N    0.6830771542   -1.9415183612    1.1041066279
 C    1.2717752184   -2.7326792062    2.0847880391
 C    1.0604782830   -4.0153230512    1.6858112471
 N    0.3592715575   -4.0540289427    0.4880113409
 C    0.1492623711   -2.8100935609    0.1667547679
 H    0.9547606966    1.7891750270   -0.0865144474
 H   -0.5923599060    1.5646835412   -0.9671273644
 H   -0.5790929975    1.7635718119    0.8161237275
 H    1.7597599205   -2.2825848194    2.9310469620
 H    1.3670630400   -4.9230488091    2.1818432116
 H   -0.3681813782   -2.4456914372   -0.7053885673