13

 C    0.0937200568    1.4316287045   -0.0358228771
 N    0.0575852250   -0.0150502316   -0.0203086206
 N    0.1346515853   -0.7526843789   -1.1587092111
 C    0.0710227768   -1.9770659368   -0.7475540178
 O   -0.0445478196   -2.0973263060    0.6060511976
 C   -0.0553478205   -0.8007176737    1.1101320213
 O   -0.1440716201   -0.4981170099    2.2633846382
 C    0.1093615589   -3.2059233256   -1.5622627040
 O    0.2090423813   -3.2092782840   -2.7624564071
 H    1.0333667846    1.7828873029   -0.4692077158
 H   -0.7437165397    1.8256933276   -0.6168174680
 H    0.0156685120    1.7632550724    1.0001324141
 H    0.0368464092   -4.1306411209   -0.9556302299