23

 C   -0.0324424615    1.6115435484    0.0678746289
 C    0.0769651591    0.0928620965    0.0283455134
 C    1.0956345949   -0.6176615012   -0.9428012146
 C    2.1260313016    0.2356598033   -1.6786440710
 C    1.5408449110   -1.5601276823    0.2296341899
 C    2.7971499333   -1.2317705434    1.0537132035
 O    3.9687082702   -0.9212311586    0.3322311460
 C    2.0213634299   -0.1133698544    1.8103849711
 C    0.6925359874   -0.6776309320    1.2221393528
 H    0.9313360823    2.0995736820    0.2396786571
 H   -0.4295455701    1.9998679412   -0.8765503991
 H   -0.7117013121    1.9306553617    0.8667294005
 H   -0.9228657273   -0.3139596055   -0.1620561226
 H    0.5571650354   -1.2041795771   -1.6940647242
 H    2.7195136645    0.8601471037   -1.0089833004
 H    2.8308825727   -0.3980115131   -2.2249440913
 H    1.6249206802    0.8875499634   -2.4036525204
 H    1.3461749870   -2.6190241978    0.0510321018
 H    2.9834241048   -2.0720640486    1.7402365067
 H    4.6854832367   -0.7951456351    0.9619844437
 H    2.1092357964   -0.1257098289    2.8997389316
 H    2.2721939859    0.8893433086    1.4562971811
 H    0.0073867677   -1.1081916508    1.9539020755