20

 C    0.4214319173    0.6688457109    0.2752117601
 O   -0.1543626496   -0.5433131779   -0.1855837527
 C   -1.5755698127   -0.5608634564   -0.1493327897
 C   -2.0757561700   -1.8302211804   -0.8391977875
 N   -2.0680519291   -2.9141149673    0.1647234863
 C   -0.8039502889   -3.6493747948    0.2233230151
 C   -2.4179922652   -2.2710983556    1.4314253293
 C   -2.0316243588   -0.7887326428    1.3135475502
 O   -2.0545217984    0.0360920189    2.1904389441
 H    1.5031172155    0.5607503215    0.1679459688
 H    0.0823286429    1.5206348735   -0.3333653968
 H    0.1756519026    0.8713638512    1.3238415477
 H   -1.9888343460    0.3703231743   -0.5609492214
 H   -3.1056114287   -1.6681505093   -1.1842880070
 H   -1.4613105212   -2.0930122457   -1.7021087805
 H    0.0624662657   -3.0310900179    0.5060427412
 H   -0.9000553014   -4.4701552256    0.9409747090
 H   -0.6018467662   -4.0903798024   -0.7573886032
 H   -3.5030803118   -2.3135018810    1.6116919732
 H   -1.9312162860   -2.7401028733    2.2902031439