17

 O    0.1889788879    1.3717485837   -0.2823382700
 C    0.0648524121   -0.0145528921   -0.0278260632
 C    0.6999435763   -0.5123759618    1.2485069015
 C   -0.1428890251   -1.2476421683    1.9812933966
 C   -1.4827220221   -1.3507202993    1.3557123048
 C   -2.3353075137   -2.6156547866    1.3177520650
 C   -2.7958968861   -1.4449066281    2.1162472962
 C   -1.4071532552   -0.4982407849    0.1202278241
 O   -2.3231659455   -0.2061369271   -0.6058895734
 H   -0.2298358448    1.8456660862    0.4448593481
 H    0.5003757776   -0.5016000778   -0.9106686367
 H    1.7301153314   -0.2905176838    1.4992546514
 H    0.0964845263   -1.7245106036    2.9258432802
 H   -2.8366518856   -2.8201944922    0.3778029949
 H   -1.9459558102   -3.4844016880    1.8372232754
 H   -2.7371573434   -1.4933395671    3.1981789549
 H   -3.6084663897   -0.8480206092    1.7159961101