13

 O   -0.0763613992    0.0193983335    0.5413012604
 C   -0.0315374189    1.1862899260    0.2771359581
 O   -1.1364743266    2.0442528256    0.2113465666
 C   -0.6386785354    3.2608848058   -0.1129074428
 N    0.6339826312    3.3064146339   -0.2615191831
 N    1.0274331493    2.0068358041   -0.0113325292
 C    2.4121012432    1.5855346033   -0.1190378199
 C    2.9085216445    1.5594481824   -1.4923436761
 C    3.3297232845    1.5369390498   -2.6159800815
 H   -1.3259016996    4.0844251082   -0.2180600175
 H    3.0278633132    2.2505340484    0.4960386816
 H    2.4490861273    0.5848974384    0.3237280693
 H    3.6986813465    1.5155575606   -3.6118482160