15

 N   -0.1039405341    1.2818964896    0.2819454607
 C    0.0903474902   -0.0038375759   -0.1228855348
 O    1.1182044224   -0.4381987438   -0.5873508855
 C   -1.2035381993   -0.8615946994   -0.0062421331
 N   -0.9675915099   -2.2817662416   -0.2706779839
 C   -1.4220010403   -2.9072888049    0.7398696155
 N   -1.9823684171   -2.1159117983    1.7434318716
 C   -1.8829323024   -0.7853700788    1.3662755438
 N   -2.2441756107    0.2798995208    1.9630760633
 H    0.7190362390    1.8617961851    0.3333078188
 H   -0.8814402898    1.4823774814    0.9029829179
 H   -1.8927103108   -0.4647536558   -0.7627407947
 H   -1.4055077531   -3.9855572021    0.8578777094
 H   -2.3339977928   -2.4443906792    2.6274106220
 H   -2.6731058512    0.1046414029    2.8710318291