14

 N    0.2608662062    1.4107367244   -0.1630118376
 C   -0.0866589418    0.0177235533    0.1434222826
 C    0.7058804087   -0.4784141312    1.3056604646
 N    0.2788979376   -1.0182588804    2.4081657698
 C    1.4280370033   -1.3118858414    3.1153243475
 O    1.3779118378   -1.8903041852    4.3287842400
 C    2.5182764551   -0.9311060040    2.4055864916
 O    2.0484146053   -0.3927318140    1.2243140919
 H    1.2435510338    1.4622303534   -0.4148151487
 H   -0.2604996529    1.7130168669   -0.9803004250
 H   -1.1399653679   -0.0376856694    0.4293023797
 H    0.0599770267   -0.6792201486   -0.7012701871
 H    0.4436831901   -2.0111639740    4.5374460860
 H    3.5811563282   -0.9508644898    2.5553407646