19

 C   -0.1059446995    1.3023739089    0.0238931562
 O    0.1725067191   -0.0772186608    0.0657630433
 C    0.5283015379   -0.5997874310   -1.1899251996
 C    0.7690118801   -2.0998515025   -1.0372874647
 O   -0.4136147414   -2.8510016863   -0.8151774710
 C   -0.8181302433   -3.4657323103   -2.0422969527
 C    0.4799320359   -3.8051053146   -2.7772002154
 C    1.4097630685   -2.6911427815   -2.3030219002
 O    2.4309426398   -2.3144670282   -2.8138936860
 H    0.7630813692    1.8851506867   -0.3205689120
 H   -0.9548505784    1.5275675360   -0.6410488138
 H   -0.3609589923    1.6137931011    1.0395114300
 H   -0.2674857833   -0.4161091215   -1.9325680669
 H    1.4541665533   -0.1371653543   -1.5699257399
 H    1.4351574907   -2.2454332703   -0.1778165469
 H   -1.4271657038   -4.3349309402   -1.7858650412
 H   -1.4363402727   -2.7777701145   -2.6394019522
 H    0.8906029851   -4.7615627289   -2.4319095716
 H    0.4127345050   -3.8333751980   -3.8659714854