21

 O   -0.0033773942    1.4755337278   -0.0388733668
 C    0.0004638948    0.0671028180    0.0513671291
 C    0.2269924680   -0.6292352547    1.4188231031
 C   -0.5242126677    0.1155497208    2.5512305685
 C   -1.9914591242   -0.3161007052    2.3213017562
 C   -2.4008701530    0.1449245339    0.9034261098
 C   -1.3849696405   -0.6002522003   -0.0011262484
 C   -0.8244946470   -1.7112592172    0.9669148709
 C   -1.8306995277   -1.8363771144    2.1103110181
 H    0.9033916684    1.7872752018    0.0443676710
 H    0.6623056121   -0.3699109279   -0.7106960320
 H    1.2437283408   -0.9306716171    1.6800523662
 H   -0.1733769906   -0.2174391269    3.5337212644
 H   -0.3833674713    1.1982368612    2.4879659211
 H   -2.6801141573   -0.0093986460    3.1114069001
 H   -3.4223501653   -0.1782528653    0.6764220248
 H   -2.3496691200    1.2278126861    0.7684321473
 H   -1.7808088184   -0.8719883992   -0.9809216064
 H   -0.4367095010   -2.6194581848    0.5081980838
 H   -1.4237899259   -2.3536872543    2.9857403739
 H   -2.7615295601   -2.3306797564    1.8121753953