18

 C   -0.0773141448    1.5372581865    0.0598372788
 C    0.0120118290    0.0102102265   -0.0248079719
 C    0.7720053581   -0.5178742962   -1.2541462561
 C    2.2477146787   -0.0982315351   -1.2739012152
 C    0.6414467865   -2.0399791892   -1.3338056450
 O    1.2192937628   -2.4841249758   -2.5539419869
 H    0.9085175896    1.9984860773    0.1707168565
 H   -0.5405134381    1.9557909005   -0.8407897463
 H   -0.6821577020    1.8459146788    0.9182703913
 H    0.4886482012   -0.3777720060    0.8864663977
 H   -1.0052058704   -0.4031635466   -0.0341889812
 H    0.2875856409   -0.1161909276   -2.1558871200
 H    2.7553840533   -0.4185730779   -0.3550916449
 H    2.7599888878   -0.5597134271   -2.1208519732
 H    2.3603640350    0.9862653647   -1.3562528689
 H    1.1466653190   -2.4976774479   -0.4662183594
 H   -0.4226174118   -2.3215431711   -1.2792218479
 H    1.2022702052   -3.4450961240   -2.5629216175