15

 O    0.0039859960    1.4045316184    0.0079057525
 C   -0.0256379465   -0.0071144820    0.0023639823
 C   -1.4419148961   -0.4694560065    0.0122559514
 C   -2.5617185141    0.2564759286    0.0230654126
 C   -3.7182206188   -0.6441538286    0.0295950793
 N   -4.9430060138   -0.3243142048    0.0400904275
 O   -3.2456145831   -1.9415612810    0.0222036768
 C   -1.8198713514   -1.9279010153    0.0111719804
 H    0.9225522515    1.6880650938    0.0002844112
 H    0.4820177094   -0.4232643208   -0.8863525273
 H    0.4968413574   -0.4305506765    0.8789613579
 H   -2.6505627009    1.3310531873    0.0268622804
 H   -5.5297960260   -1.1601559599    0.0423274433
 H   -1.4584173328   -2.4599331468   -0.8801092662
 H   -1.4446215407   -2.4646956060    0.8938579177