21

 O    0.0564365418    1.3398713967    0.4916191806
 C   -0.0431612405   -0.0240164969    0.1378440510
 C   -1.4890214492   -0.5251064266   -0.0420050574
 C   -2.1307602973   -0.0324858705   -1.3661303974
 C   -2.2007286315    1.4169123631   -1.5295637507
 C   -2.2633307435    2.6105954012   -1.6728717636
 C   -1.5429357970   -2.0407874745    0.0064175322
 C   -1.5936344833   -2.7615301154    1.3287439486
 C   -2.8042279208   -2.7533523562    0.4271546751
 H   -0.3856404041    1.8567273678   -0.1926492370
 H    0.5355868270   -0.2522745726   -0.7751801286
 H    0.4219928825   -0.5822751070    0.9569422175
 H   -2.0737121450   -0.1228470933    0.7951128300
 H   -1.5671421921   -0.4579631693   -2.2081184315
 H   -3.1438212949   -0.4459365823   -1.4407543069
 H   -2.3325224302    3.6625656781   -1.8022885986
 H   -0.9646041107   -2.5303738538   -0.7752377236
 H   -1.0365662805   -3.6854771310    1.4362963350
 H   -1.6325041830   -2.1596009522    2.2308760350
 H   -3.6513539532   -2.1449466206    0.7283707393
 H   -3.0768508545   -3.6716894847   -0.0809295491