17

 C   -0.0403832395    1.5570462918   -0.0412602754
 C   -0.0119355269    0.0575989725    0.0021199475
 C   -0.0279388443   -0.7528438230   -1.0702506158
 C    0.0083690513   -2.2183061069   -0.7372075718
 C    0.0523672548   -2.2404818595    0.8106867043
 C    0.0381077434   -0.7731723834    1.2217820476
 N    0.0690059514   -0.4799184257    2.4663408877
 O    0.0514178828    0.9077707049    2.7089509608
 H    0.8409336655    1.9846209696    0.4446156967
 H   -0.0766574067    1.9068995217   -1.0771238671
 H   -0.9070996851    1.9529096693    0.4951222150
 H   -0.0637583719   -0.3940678265   -2.0942416110
 H   -0.8691223814   -2.7428261232   -1.1359823811
 H    0.8807987999   -2.7105549328   -1.1852190887
 H   -0.8042732767   -2.7671825548    1.2397103237
 H    0.9495400162   -2.7365527749    1.1905236313
 H    0.0788750270    0.9383021508    3.6705043763