15

 C   -0.1753072576    1.5311213016    0.0977786790
 C    0.0266284778    0.0235246941    0.1055882612
 N    1.0794374703   -0.4686518274   -0.8041846944
 C    1.8430531694   -1.0952889750    0.1384730267
 O    2.8634021975   -1.7250396347    0.1042669862
 C    0.8292690218   -0.6666760971    1.2564662309
 C    1.4220787279    0.0911317376    2.4128664737
 O    1.1668622572    1.2257576473    2.7268985944
 H    0.7645338471    2.0626953926    0.2529279908
 H   -0.5991884439    1.8386292551   -0.8648729207
 H   -0.8671239422    1.8307772521    0.8881497494
 H   -0.9302135815   -0.4829794820   -0.0693880806
 H    1.1743219080   -0.4311637030   -1.8087609517
 H    0.3387266635   -1.5607440878    1.6593021042
 H    2.1567947747   -0.5151352234    2.9875402812