20

 C   -0.2616237333    1.4985347892   -0.1465850085
 C    0.0935355365    0.0156713419   -0.0137360341
 C    0.7042905263   -0.5579986435   -1.2906983993
 N    1.0140441742   -1.9827431467   -1.1289897908
 C    1.5780290484   -2.5846526891   -2.3185979326
 C    1.7241373378   -4.1170890800   -2.2979507080
 O    0.7567304371   -4.2385996536   -3.3915739029
 C    0.5447643691   -2.8853135747   -3.4209266980
 O   -0.2161644496   -2.2801336745   -4.1048391855
 H    0.6234091663    2.1021833738   -0.3760109765
 H   -0.9891931248    1.6596878120   -0.9492544798
 H   -0.6966345497    1.8850926790    0.7796785041
 H    0.8001498355   -0.1198484546    0.8173156961
 H   -0.7976812634   -0.5687074508    0.2408445538
 H   -0.0053973690   -0.4658848935   -2.1198284259
 H    1.5965479463    0.0322584145   -1.5748032029
 H    1.6675714295   -2.0971713825   -0.3588296278
 H    2.4620977063   -2.0642090654   -2.7270480461
 H    2.6924953202   -4.5260878064   -2.5911592322
 H    1.3444083863   -4.5963489150   -1.3937818832