19

 O   -0.0354127460    1.4081368866    0.0364864705
 C    0.0598025871   -0.0108148029    0.0500536430
 C   -1.3155822643   -0.6210537372    0.0398050041
 C   -2.3053462517   -0.3890049054    1.2161554704
 C   -3.0088416857   -1.6590790357    0.7441061439
 C   -2.9713621113   -1.6654261048   -0.7913110580
 C   -1.7771585984   -2.1383930515    0.0197413294
 C   -2.1932599461   -0.4380228716   -1.2350133153
 O   -2.8002304199    0.8144638192   -1.4865616738
 H   -0.6973880331    1.6434810758   -0.6258445390
 H    0.6440403328   -0.3834536290   -0.8088273777
 H    0.6124017566   -0.2760366426    0.9587918590
 H   -1.8070013172   -0.5404751426    2.1775490931
 H   -2.8575517649    0.5587342899    1.2497548929
 H   -3.7343673062   -2.2605279901    1.2764929631
 H   -3.6522065689   -2.2746485464   -1.3719083833
 H   -1.2484243853   -3.0792828101    0.0107412527
 H   -1.6007741522   -0.6606113121   -2.1282141208
 H   -3.4533036054    0.9763860305   -0.7977557042