13

 N   -0.0031458618    1.4265589511    0.1667966973
 C   -0.0418197108    0.0419080751    0.0611212698
 C   -1.1742551253   -0.6942565768    0.0305056738
 O   -2.4118633730   -0.1698322567    0.0275764576
 O   -1.1592007483   -2.0529574146   -0.0108827038
 C    0.0591868086   -2.6559283079   -0.0177953567
 N    1.1879273289   -2.0785236955   -0.0088993885
 C    1.2400210440   -0.6651714492    0.0102074072
 O    2.2964714392   -0.0621171696   -0.0211192861
 H    0.9148374214    1.7683751653   -0.0927362086
 H   -0.7578309994    1.9179342044   -0.2900889545
 H   -3.0567265199   -0.8874602334    0.0103005927
 H   -0.0571636836   -3.7345716822   -0.0352549703