18

 C   -0.0751184255    1.3967478154    0.0851266409
 C    1.3440945728    1.9326521568   -0.1000012518
 C    2.1865254484    0.7705530344    0.4384018920
 C    1.3273699651   -0.4538747037    0.0730726300
 O    0.0166219289    0.0091431952   -0.2304936835
 C    3.6870114166    0.7280226357    0.0455312835
 N    4.4345137689    0.9152875487    1.2973526148
 C    3.5580517620    0.9793281411    2.2092155270
 O    2.2447867907    0.8863693605    1.8981717184
 H   -0.4117933489    1.5401700404    1.1227695699
 H   -0.8119757005    1.8468234660   -0.5855318244
 H    1.5624301369    2.0753872341   -1.1639984693
 H    1.5461978545    2.8649355690    0.4311012435
 H    1.7289522103   -0.9696914794   -0.8083343453
 H    1.3109458228   -1.1599764581    0.9127722440
 H    3.9689410518   -0.2278861356   -0.4112800554
 H    3.9444611390    1.5160771418   -0.6699185217
 H    3.7599831964    1.1032989279    3.2676273675