17

 O   -0.1745469003   -0.0284898506   -0.2617173571
 C   -0.0051860499    1.1442185195   -0.0480182797
 C    1.3519127089    1.8272062779   -0.0767767023
 C    1.3874861358    2.9249553443   -1.1202461351
 C    1.4617647397    2.5931328558   -2.6247660036
 O    2.4775858241    3.6098328008   -2.8291970646
 C    2.5116991264    3.9412072197   -1.4333742649
 C    1.4812677565    5.0085432997   -1.0381442200
 O    0.4563554926    3.9961526499   -0.8455173941
 H   -0.8550703319    1.8213513504    0.1815761463
 H    1.5291390797    2.2772494404    0.9085998459
 H    2.1202253700    1.0747430295   -0.2734978984
 H    1.8457933391    1.5946750443   -2.8668964265
 H    0.5425033996    2.7900851458   -3.1857578162
 H    3.5213336324    3.9731388914   -1.0199784897
 H    1.6916240230    5.5392795723   -0.1013366619
 H    1.2289681343    5.7223918491   -1.8284425282