20

 C    0.0292070115    1.4621884391   -0.0019062711
 C    0.0738476651   -0.0532597911    0.0259978236
 C    0.0679579120   -0.6564299795   -1.3719077227
 O   -0.0440742368   -2.0640236713   -1.4264474214
 C   -1.0547664543   -2.5470022701   -0.5577229090
 C   -0.7617077813   -2.1243685355    0.8683352548
 C    0.7379551458   -2.1750918207    1.2634994188
 C    0.7032616744   -0.6528700303    1.2293705519
 N   -0.8185675540   -0.6154137807    1.0670068908
 H    0.9332080118    1.8728719937   -0.4655430785
 H   -0.8378790383    1.8143914428   -0.5703575585
 H   -0.0529040805    1.8605657391    1.0120838793
 H   -0.7695814587   -0.1942980072   -1.9247722322
 H    0.9929916555   -0.3989200836   -1.8992264278
 H   -2.0485353198   -2.1794840761   -0.8656064660
 H   -1.0444779684   -3.6373262194   -0.6539131622
 H   -1.4419990466   -2.6090634513    1.5715608120
 H    0.8800157073   -2.5494176368    2.2792938231
 H    1.4259017002   -2.6834827480    0.5856954282
 H    1.1971464751   -0.0161052532    1.9586750170