19

 C    0.0639423313    1.5384920103   -0.2573646224
 C    0.0533894102    0.0487809010   -0.0386490309
 O    1.3345244345   -0.6106030151    0.0166795022
 C    0.5425427726   -0.5848332669    1.1888562191
 C    0.9858755958    0.0662699977    2.5106775924
 C    0.2621303413   -1.0945332421    3.2219238830
 O   -0.0786561902   -1.2922593907    4.3516183244
 C    0.0381940559   -1.8590116295    1.9005402638
 C   -1.3468139609   -2.4279487548    1.6224223176
 H    0.8162525891    2.0219382549    0.3709146214
 H    0.2910983865    1.7702987034   -1.3029602811
 H   -0.9169943492    1.9671175772   -0.0245505771
 H   -0.6876467405   -0.5014448025   -0.6215177875
 H    2.0710873374    0.0405594080    2.6575647281
 H    0.6216428809    1.0706099881    2.7425469793
 H    0.8037502195   -2.6428251603    1.8122100068
 H   -2.1132651165   -1.6486052518    1.6771954022
 H   -1.3945384654   -2.8859507119    0.6297302135
 H   -1.5951660723   -3.1937608550    2.3629557150