18

 C    0.0227933473    1.5753884628    0.0077258292
 C   -0.0318048500    0.0453978037    0.0031090167
 N   -1.3899212457   -0.4762625408    0.0129667838
 C   -2.1495625577   -0.7521032740    1.1303795416
 O   -1.5607582520   -0.5340375131    2.3406870563
 C   -3.3813038728   -1.2033204237    0.7485985709
 C   -3.3929484424   -1.2005199788   -0.6932109403
 C   -2.1676368989   -0.7474899669   -1.0930949635
 O   -1.5986573436   -0.5244201691   -2.3119389597
 H    1.0630814267    1.9165066061    0.0000871101
 H   -0.4791830570    1.9818025686   -0.8746307262
 H   -0.4641925803    1.9758353001    0.9011335870
 H    0.4642238741   -0.3509416890   -0.8862386020
 H    0.4794166413   -0.3567443248    0.8811972418
 H   -2.1612162336   -0.8492598430    3.0222076431
 H   -4.1882032797   -1.4981098812    1.4012429409
 H   -4.2102986321   -1.4927862714   -1.3338752079
 H   -2.2093702536   -0.8385653855   -2.9847893618