16

 C   -0.0549454709    1.5530769924   -0.0413442409
 C   -0.0148185836    0.0229381252   -0.0031639056
 C   -1.4008948798   -0.6163222814    0.0717027481
 O   -2.2251075273   -0.2578159833   -1.0474491666
 C   -1.3605293735   -2.1425309410    0.1814787983
 O   -2.6624675580   -2.6850546447    0.1784659376
 H    0.9492613800    1.9731919986   -0.1489515498
 H   -0.6665394852    1.9039666738   -0.8769523685
 H   -0.4910426480    1.9567643934    0.8786700794
 H    0.5033913247   -0.3618178841   -0.8942538143
 H    0.5735776027   -0.3183761593    0.8579519210
 H   -1.9462726448   -0.2239424303    0.9389719037
 H   -1.7312582339   -0.4683412817   -1.8495334557
 H   -0.7525512876   -2.5461479664   -0.6505141099
 H   -0.8751045787   -2.4463543368    1.1157466955
 H   -3.1518739761   -2.1588608444   -0.4679104826