20

 C   -0.0736506015    1.5320632058    0.0162239145
 C   -0.0489342447    0.0244570541   -0.0076297196
 C    0.6779716454   -0.8129812249   -1.1252171009
 C   -0.2745906044   -1.9619217933   -0.6513741457
 C    0.2492839037   -2.2177553643    0.7816275550
 C    0.4193016018   -0.7351209830    1.2631215015
 C   -1.2511010735   -0.8236848593   -0.4008176152
 N   -2.4620449844   -0.5259986100   -0.5932189620
 O   -3.1904334772   -1.6344186147   -1.0949856410
 H    0.9288918186    1.9366305962    0.1936974356
 H   -0.4443515911    1.9367016037   -0.9302061549
 H   -0.7287643629    1.8979585178    0.8137453866
 H    0.4510938096   -0.4562879995   -2.1314874033
 H    1.7530929391   -0.9773767850   -1.0004381529
 H   -0.5251623940   -2.8146956895   -1.2765885092
 H   -0.4642543516   -2.7785187479    1.3900813277
 H    1.1944518784   -2.7679626816    0.7724596093
 H    1.4552264257   -0.4880882668    1.5153080917
 H   -0.2049253561   -0.4996906437    2.1295092966
 H   -4.0725052510   -1.2608200541   -1.1929810439