23

 C    0.0101154425    1.5575781165   -0.0241582718
 C    0.0545446614    0.0219487609   -0.0202165695
 C    0.7445654169   -0.4995265250   -1.2874731536
 C    0.7215211016   -0.5108831682    1.2725188266
 C   -0.0439622687   -0.0403753312    2.4971293655
 O    0.4278115255    0.5614317206    3.4273534657
 C    0.7791795825   -2.0342367924    1.3418681191
 C    2.0295917862   -2.7832690572    0.9488983415
 C    1.6255919000   -2.7064378535    2.3974142544
 H    1.0234255313    1.9758112928   -0.0228301215
 H   -0.5024034521    1.9287347272   -0.9172258533
 H   -0.5106825669    1.9587450725    0.8510681584
 H   -0.9821757716   -0.3478266786   -0.0254945412
 H    1.7912411158   -0.1753585611   -1.3236700249
 H    0.7305746145   -1.5904782518   -1.3430531427
 H    0.2467304728   -0.1084545660   -2.1808214139
 H    1.7376020796   -0.1058862834    1.3594232561
 H   -1.1231683027   -0.3309929067    2.4928918648
 H   -0.1630732106   -2.5241157953    1.1068428209
 H    1.9174044136   -3.7291864324    0.4301962396
 H    2.8867135607   -2.2009362144    0.6283712702
 H    2.2043642473   -2.0657052789    3.0544140607
 H    1.2393193808   -3.5997223345    2.8751109289