20

 C   -0.2294743089    1.3381024076    0.2040611807
 C    0.0388242782   -0.1176827151   -0.0570818161
 N    0.4402775968   -0.9590528640    0.8187951544
 O    0.6112674452   -0.4066322839    2.0956717860
 C   -0.1294027499   -0.6196462613   -1.4722155656
 C    1.2307012392   -0.9116075192   -2.2049672692
 C    1.0026276352   -2.4392042712   -1.9796607794
 O    1.7364607311   -3.0030805453   -0.9227569162
 C   -0.4853265155   -2.1275719614   -1.6455240687
 H    0.1007813817    1.6421732353    1.1955722673
 H    0.2755132441    1.9489517053   -0.5523901927
 H   -1.3028728369    1.5418719782    0.1096730671
 H    0.8959261106   -1.1676698108    2.6122065772
 H   -0.7877833632    0.0730186798   -2.0021736361
 H    1.1961222988   -0.6277712061   -3.2603130617
 H    2.1349595787   -0.5017826184   -1.7493296578
 H    1.1789161736   -3.0764704649   -2.8500336034
 H    1.4759851028   -2.5267548993   -0.1183908013
 H   -0.8888605326   -2.6427932714   -0.7718591621
 H   -1.1505280189   -2.2845348738   -2.4988816023