17

 C    0.7849202478   -0.9360185705    0.1228838149
 C    0.3421880182    0.1809372548    0.1148884970
 C   -0.2240548033    1.5430794168    0.0847788078
 O   -0.8567330900    1.8737718299    1.3059861435
 C    0.1233307572    2.5167442274    2.1229230213
 C    1.2760154181    2.8088599743    1.1615164365
 C    2.2476057743    3.9303656374    1.2827979968
 C    2.7119275864    2.4919438373    1.4621619782
 O    0.7637128880    2.5281201621   -0.1250962950
 H    1.1770403232   -1.9233413593    0.1299043710
 H   -0.9628025015    1.6295129204   -0.7178300216
 H   -0.3286606891    3.4247529719    2.5355378819
 H    0.4335507068    1.8631482233    2.9470910520
 H    2.5285616250    4.4368615357    0.3662023210
 H    2.1853818102    4.5719004125    2.1557616305
 H    2.9665012117    2.1499201807    2.4603755642
 H    3.2969652370    2.0538360551    0.6621866301