25

 C    0.1064545099    1.5201978732   -0.0716138323
 C    0.0360264561    0.0003376920    0.0835308694
 O    0.7328959619   -0.4358657164    1.2505095099
 C   -1.3939284423   -0.5271615057    0.0712286843
 C   -2.1933529734   -0.4769595844   -1.2613679063
 C   -2.7071697844   -1.9290704578   -0.9907787110
 C   -4.1117376794   -1.9334935417   -0.3820472115
 C   -2.6218844217   -2.8998293806   -2.1642677765
 C   -1.5942823816   -2.0654358232    0.0982267655
 H    1.1464808124    1.8572525433   -0.0554271095
 H   -0.3511366456    1.8460574261   -1.0113790995
 H   -0.4271810652    2.0178560397    0.7482705228
 H    0.5844187337   -0.4681563924   -0.7447517806
 H    0.2913120097   -0.0468736323    2.0137976618
 H   -1.9547005148   -0.0414087726    0.8809639514
 H   -2.9504928765    0.3049855399   -1.3689288611
 H   -1.5278657606   -0.4348693391   -2.1308089614
 H   -4.8632330583   -1.6448183037   -1.1261773852
 H   -4.3744829868   -2.9306504756   -0.0100480083
 H   -4.1908115517   -1.2349657758    0.4580162949
 H   -1.6190744434   -2.9044290785   -2.6045438929
 H   -2.8514581750   -3.9243525491   -1.8475252591
 H   -3.3333580087   -2.6305877005   -2.9543015976
 H   -0.7098583968   -2.5908990733   -0.2757390967
 H   -1.8851398276   -2.5204766816    1.0488753195