15

 O   -0.1528111760    0.1421208012   -0.7979394373
 C   -0.1136788974    1.2232062049   -0.2782014363
 C   -1.2245690771    2.0217095147    0.2997793394
 C   -0.9715992818    2.5775429666    1.7140250324
 C   -0.6386975337    3.3970224545    0.5203075168
 O    0.7094967443    3.4406968854    0.1106461199
 C    1.1669332375    2.1196985843   -0.1857399016
 C    2.1098569109    1.6111555213    0.8043355582
 C    2.8763381589    1.1788126306    1.6226878309
 H   -2.2353012305    1.8203364785   -0.0282342708
 H   -1.8676851992    2.8277911240    2.2704971577
 H   -0.1634882275    2.1557885704    2.3003208159
 H   -1.1682934239    4.3110326146    0.2816060672
 H    1.6378641070    2.1359278866   -1.1756030887
 H    3.5614952384    0.7979506324    2.3396499362