18

 C   -0.0187817531    1.5372306329   -0.2672211673
 C   -0.0309068495    0.0851637103   -0.1876777168
 C   -0.0482950343   -1.1163800288   -0.1016034903
 C   -0.0499951451   -2.5501811292   -0.0645489964
 C   -0.4123443754   -3.3232985074    1.2091529509
 C   -0.7105869166   -2.5862359424    2.4667787635
 O   -1.3938471626   -1.5953694142    2.5761781471
 N   -1.2673888468   -3.3368271722    0.0206598346
 C   -2.5689698892   -2.6684628238    0.0288456641
 H    0.9965943425    1.9315018874   -0.1505132605
 H   -0.4026909105    1.8869476668   -1.2319222072
 H   -0.6405129295    1.9764452002    0.5202455323
 H    0.7242193661   -3.0193950441   -0.6703259065
 H    0.1184674539   -4.2595026886    1.3757068428
 H   -0.2251024964   -3.0442977390    3.3583327270
 H   -2.5864760852   -1.7176136540    0.5664448338
 H   -2.8600421170   -2.5066451780   -1.0131259526
 H   -3.2943413312   -3.3484387459    0.4844481716