16

 C    0.0363185653    1.5272055760   -0.0398586236
 C    0.0697604118    0.0259219996   -0.0128345950
 N    0.5852321684   -0.6588292105   -1.1893524799
 C    0.4162447893   -2.0161408017   -0.9346687636
 O    0.5703805534   -2.9386325920   -1.6948902393
 C   -0.0552355804   -2.0010465139    0.5159303431
 C    0.5990213352   -0.7727360583    1.2225320435
 O   -0.6269432193   -0.4849191509    1.9749957479
 C   -1.0915034520   -0.8300239497    0.6314468148
 H    1.0358357712    1.9374321272   -0.2143351208
 H   -0.6252193658    1.8941671655   -0.8321244456
 H   -0.3349441338    1.8946032410    0.9192034812
 H    0.4776833352   -0.2967750554   -2.1252902167
 H   -0.2092487493   -2.9375523896    1.0428910012
 H    1.5561286942   -0.7082074952    1.7417058106
 H   -2.1667193333   -0.8403166223    0.4449780221