21

 C   -0.0456573455    1.5309544708   -0.2145418671
 C   -0.0050508035    0.0832749040    0.2907860487
 C   -1.3470190472   -0.6108781565    0.1506311395
 C   -1.8567879366   -1.2770001369   -1.1242224947
 C   -0.8472450362   -1.7343448540   -2.1556086838
 O    0.1583572705   -2.4662767726   -1.4441988417
 C   -0.3964843802   -2.9921319209   -0.2481822474
 C   -1.5656144917   -2.0914500739    0.1245840629
 O   -2.5393526116   -2.6083165961    0.9751054464
 H    0.9258497093    2.0197306558   -0.0921374834
 H   -0.3106983602    1.5716252607   -1.2763663024
 H   -0.7882627026    2.1224984618    0.3325963479
 H    0.7655389351   -0.4752995445   -0.2473780454
 H    0.2848292388    0.0763668572    1.3494916218
 H   -2.1531558780   -0.1098630106    0.6840867033
 H   -2.8765265741   -1.0861893540   -1.4383580143
 H   -1.3396012396   -2.3728448036   -2.9067210034
 H   -0.3311288194   -0.9263774220   -2.6859050205
 H   -0.7759629084   -4.0201033272   -0.3924647532
 H    0.4023113005   -3.0302541009    0.5002144746
 H   -2.9323507893   -3.3803159666    0.5508795823