19

 C   -0.0484713035    1.5961447689    0.1135532322
 C    0.0840793037    0.0868964481   -0.0716849652
 N    0.6773948454   -0.5100222705    1.1258339753
 C    0.7505283223   -1.9782043557    1.1750450979
 C    1.4464701013   -2.6549680655   -0.0412376808
 C    1.4662262268   -2.3536894000    2.4038461890
 C    2.0989149546   -2.6545646324    3.3781567767
 C   -0.6391899765   -2.5006292857    1.2581790728
 N   -1.7156023634   -2.9184007223    1.2811523033
 H    0.9330051114    2.0647282538    0.2502615291
 H   -0.5128602206    2.0509596461   -0.7661842814
 H   -0.6577100543    1.8239320699    0.9919733928
 H   -0.9087732018   -0.3573253056   -0.2064192060
 H    0.6541073019   -0.1214678814   -0.9923850378
 H    1.6069860205   -0.1404173899    1.2956646599
 H    2.4691561365   -2.2769013095   -0.1197836409
 H    1.4808402925   -3.7383207202    0.0930888744
 H    0.9068592365   -2.4342068097   -0.9642543945
 H    2.6399702669   -2.9218899084    4.2526380935