22

 C   -0.0575050122    1.3394239741   -0.1331653127
 O    0.0684088196   -0.0562723526    0.0121753893
 C    0.7425149640   -0.5540508207    1.1803197283
 C    2.1698715036    0.0109289979    1.2922554943
 C   -0.0597979594   -0.2268421157    2.4504974095
 C    0.7573531380   -2.0803544877    0.9717310817
 C    1.4962002548   -2.5667917767   -0.2782190863
 O    1.4136330876   -3.9788349249   -0.4258954659
 H    0.9132599886    1.8467807190   -0.2217772322
 H   -0.6145395190    1.5036723977   -1.0595610866
 H   -0.6174426282    1.8056213215    0.6896578608
 H    2.1659275053    1.0644341243    1.5865498467
 H    2.7335241158   -0.5378688813    2.0528458626
 H    2.7043920856   -0.0741286084    0.3423290478
 H   -1.0868606319   -0.5917717023    2.3567365136
 H    0.3974527131   -0.7037361519    3.3228909545
 H   -0.0919860247    0.8489372492    2.6464216316
 H    1.1930552624   -2.5626009330    1.8537837637
 H   -0.2872668184   -2.4131686011    0.9070299342
 H    1.1115511391   -2.0426339607   -1.1625803157
 H    2.5663065998   -2.3493127176   -0.2056153116
 H    0.4880398264   -4.2015461791   -0.5675372577