22

 C    1.2563709043    0.9223286229    0.8913797805
 C    0.1419586564    0.5375350513   -0.0887079154
 C    0.6690113099   -0.1941413637   -1.3174181952
 C    1.1522723191   -1.6440232214   -1.1485732264
 N   -0.0456496744   -2.4434871552   -0.7840076545
 C    0.2315471414   -2.1306864181   -2.2053160440
 C   -0.3151472414   -0.7192687560   -2.4585568694
 C   -1.8104121387   -0.5035065238   -2.2946726457
 O    0.1295066241   -0.3276615806   -3.7497099442
 H    1.7883415782    0.0355027957    1.2526596836
 H    1.9943323640    1.5808786712    0.4189790036
 H    0.8544810689    1.4446907577    1.7651618970
 H   -0.5895704940   -0.0996791377    0.4186011867
 H   -0.3929085673    1.4428212705   -0.4050228119
 H    1.4407314386    0.3959821514   -1.8233612385
 H    2.1448407838   -1.9904101451   -0.8874554108
 H    0.2655506195   -3.4005912610   -0.6230575988
 H    0.3581497655   -2.9073432934   -2.9496261602
 H   -2.1607092205   -0.9242671290   -1.3501006816
 H   -2.0588332136    0.5651918813   -2.3078162060
 H   -2.3462573283   -0.9859139496   -3.1183489855
 H   -0.1275875855    0.5911971625   -3.8823417935