17

 N    0.0550106184   -1.1231007473   -0.0751337503
 C    0.0409685577    0.0330617949   -0.0293233408
 C    0.0230143284    1.4710991971    0.0218731285
 C   -0.4414534558    2.2626815384    1.2815460229
 C    0.3649377271    3.3871188098    0.6369517265
 C    1.3610408252    2.3618286567    0.0308305787
 C    1.3395579071    3.2103431915   -1.2309819117
 N   -0.0777853149    3.5921597702   -0.8495964356
 C   -0.7457183364    2.2788611566   -1.0624861351
 H   -1.5165608813    2.3669546730    1.4464415290
 H    0.0542937424    1.9196097678    2.1928883788
 H    0.6431051489    4.3147944477    1.1306618509
 H    2.2342140450    1.9520613157    0.5372640177
 H    1.9948858215    4.0819878800   -1.1499345801
 H    1.4468663578    2.7559390338   -2.2200465276
 H   -0.5976604221    1.9257125489   -2.0842726332
 H   -1.8159778688    2.3294024852   -0.8524024586