16

 C   -0.0426758599    1.5925817594    0.0497664461
 C    1.4969451954    1.4077926668    0.0126987045
 C    1.8579571678    0.6770116072    1.3221510129
 O    2.9444237561   -0.2248372472    0.9832350677
 C    1.9455693280   -0.9455005934    0.2426617896
 C    1.3030309806    0.0546831445   -0.7808969763
 C   -0.0700902445    0.0537131443   -0.0242341346
 C    0.7913565410   -0.4702578294    1.1632222883
 H   -0.4803683824    2.0877715696    0.9240051410
 H   -0.4286778403    2.0564320963   -0.8624962839
 H    2.1752910642    2.1925960974   -0.3184980362
 H    2.0274341260    1.2491825496    2.2334540855
 H    2.2154507228   -1.9641350045   -0.0324045139
 H    1.4281442189    0.0249674070   -1.8603615907
 H   -0.9415411517   -0.5217325328   -0.3320316553
 H    0.4185154182   -1.0025391749    2.0352760254