17

 C   -0.1173557077    1.5177035924    0.1131442182
 C   -0.0124257744    0.0673357957    0.0547994423
 C    0.0962008797   -1.1305244752    0.0080357670
 C    0.1458031540   -2.5932697598   -0.0404432577
 C   -1.3101857361   -3.1256411937   -0.0372714640
 O   -1.7602841226   -3.8280313637    0.8222431236
 C    0.8182065548   -3.1119634584   -1.2334402891
 C    1.3146384981   -3.5751288589   -2.2273707007
 C    1.9378504662   -4.1245885789   -3.4222285009
 H    0.8733651136    1.9836205109    0.1490664130
 H   -0.6389373905    1.9126393469   -0.7652877218
 H   -0.6697131331    1.8400099549    1.0023460961
 H    0.6175934030   -2.9899961573    0.8671922480
 H   -1.8992586836   -2.7899723582   -0.9156147049
 H    1.9094681881   -5.2194934864   -3.4166740093
 H    1.4270508680   -3.7819467398   -4.3285188418
 H    2.9870694924   -3.8186662003   -3.4959760882