16

 C   -0.0215107022    1.4914775160   -0.0093650950
 C    0.0143142501   -0.0093757144   -0.0605767060
 N    0.0242471995   -0.6186043042   -1.2098336888
 C    0.0568968872   -1.9970033629   -1.1838196012
 N    0.1129374263   -2.5579646307   -2.4304978811
 C    0.0687862692   -2.7399972286   -0.0253664031
 C    0.0597582715   -2.0923149990    1.2490173368
 O    0.0688930041   -2.5845397266    2.3640398348
 N    0.0342788719   -0.6709882401    1.1196947311
 H    0.8581565721    1.8835072505    0.5126526574
 H   -0.0390645022    1.8845306536   -1.0249684351
 H   -0.9089995729    1.8422470892    0.5285095839
 H   -0.1407840482   -1.9505628721   -3.1928276910
 H   -0.1212565542   -3.5310639297   -2.5325740738
 H    0.0918928817   -3.8220491523   -0.0389627554
 H    0.0247091960   -0.1675210187    1.9962582565