19

 C   -0.7582318651    1.2135455449   -0.0756350657
 C    0.0081212106   -0.0959326107    0.0385747125
 C    1.1715611274   -0.3824359255   -0.9842682132
 O    1.5332383245    0.6198590348   -1.9010472524
 C    2.1414068339   -0.6941848833    0.2090049053
 O    2.7322483108   -1.9545226283    0.2573708214
 C    2.9092006809    0.5277149946    0.7305010701
 O    1.7389314756    0.9786274067    1.4592333325
 C    1.0207363900   -0.2524746912    1.1939622064
 H   -0.0995558933    2.0719681267    0.0859538064
 H   -1.2279659885    1.3101545903   -1.0592207625
 H   -1.5456552819    1.2681379524    0.6828203032
 H   -0.6858879776   -0.9433480357    0.0365025127
 H    0.9948627956   -1.2838249292   -1.5792428661
 H    1.4877445595    1.4721887189   -1.4554831038
 H    3.1301220426   -2.1371971436   -0.6011674459
 H    3.7261402109    0.2495977788    1.4080352222
 H    3.2664193631    1.2673818509    0.0044598833
 H    0.7391532909   -0.7825881416    2.1067314136