21

 C   -0.2825815536    1.5431885098    0.4060991655
 C    0.2856094810    0.2398536845   -0.1697573782
 C    1.0862102792   -0.5188522856    0.8608065926
 O    0.3822363616   -1.1669137690    1.9355317703
 C    1.1348449096   -1.9787857004    1.0399952937
 C    0.4181990020   -3.0550142016    0.2161521733
 C    0.5477959427   -4.4224426907    0.9289401554
 C   -0.9904818187   -2.7825381550   -0.0617656454
 C   -2.1634254805   -2.6508780030   -0.2895159899
 H    0.5141278283    2.1973958192    0.7777640573
 H   -0.8427722398    2.0964778545   -0.3532978773
 H   -0.9570943499    1.3296333294    1.2404384052
 H   -0.5235502790   -0.3837342956   -0.5528772507
 H    0.9522326335    0.4639081872   -1.0134017512
 H    1.9694666949    0.0243457065    1.2111797166
 H    2.0564491397   -2.3738886841    1.4766810791
 H    0.9523058339   -3.1264615058   -0.7428839708
 H    1.6020448484   -4.6786695318    1.0721530061
 H    0.0614542295   -4.3875140171    1.9075755017
 H    0.0754470850   -5.2102948988    0.3378993113
 H   -3.1969399878   -2.5058512924   -0.4855874147