19

 C    0.0364089636    1.5173096173    0.1100156519
 C    0.0118081531    0.0051832156   -0.0352068914
 C    0.7457241256   -0.5246081322   -1.2623495782
 C    0.7572696770   -2.0547096407   -1.2093231501
 N    1.1241680823   -2.5859541701    0.0978956346
 C    1.0485145405   -1.8276338300    1.1114198284
 C    1.4634841769   -2.2867670412    2.4789378475
 O    0.6095460750   -0.5359798624    1.1596617036
 H    1.0672656245    1.8836796235    0.1355308053
 H   -0.4794146393    1.9868633880   -0.7330622374
 H   -0.4601172129    1.8228517844    1.0350482524
 H   -1.0309949027   -0.3447200203   -0.0627413813
 H    0.2632289276   -0.1606682553   -2.1756582374
 H    1.7726141103   -0.1389585828   -1.2551071061
 H   -0.2293477899   -2.4532894367   -1.4846461731
 H    1.4596139023   -2.4587652440   -1.9472123780
 H    1.8471000996   -3.3044987002    2.4218133349
 H    2.2340009719   -1.6221639788    2.8829765516
 H    0.6130897549   -2.2494429140    3.1675722028