17

 C    1.4750988526    0.2740039953   -0.3135544594
 O    0.2570268746   -0.1111968963    0.3273636484
 C    0.2714243314   -0.1670866231    1.7025559742
 C    0.1862013118   -1.5885528281    2.2286880089
 C    1.3064439109   -2.4268274162    1.8100769528
 C    2.2324807733   -3.1167745731    1.4770463201
 N    0.2555086007    0.8110451746    2.4982744863
 C    0.2180364379    2.1715040737    1.9913789133
 H    2.2694127126   -0.4457538146   -0.0909179727
 H    1.2687184883    0.2684633601   -1.3855056456
 H    1.7965861896    1.2774645255   -0.0151133889
 H    0.1212604019   -1.5429286767    3.3186425011
 H   -0.7495113188   -2.0277780057    1.8568634009
 H    3.0461615005   -3.7341095125    1.1866568563
 H    1.2127646379    2.6266692370    2.0731464831
 H   -0.1227639066    2.2504064364    0.9520950906
 H   -0.4500032686    2.7594665237    2.6283977107