16

 C   -0.0239362793    1.4800887759   -0.0071991228
 C   -0.0043485484    0.0258605256    0.0240674872
 C    0.0143509525   -1.1766023752    0.0750844427
 C    0.0506077371   -2.6400945616    0.0614577472
 C   -1.3776773829   -3.2367864923   -0.0977350095
 C    0.8695376040   -3.0658329542   -1.1891103251
 O    1.8151988326   -3.7957254204   -1.1773825071
 C    0.6765092693   -3.1635956720    1.2857068682
 N    1.1376555565   -3.5803552352    2.2583686508
 H    0.8055867332    1.8727687382   -0.6044433162
 H   -0.9577250457    1.8549472958   -0.4390502030
 H    0.0676701133    1.8910148613    1.0036391365
 H   -1.8146343789   -2.8906145294   -1.0378967698
 H   -1.3328393212   -4.3284761421   -0.0964518649
 H   -2.0111421440   -2.9016959258    0.7251924984
 H    0.4632711321   -2.6106704485   -2.1171024826