17

 C    0.0541050599    1.5900132872    0.0209846045
 C   -0.0115648225    0.0677688399    0.0892798907
 C    0.7304815799   -0.4965063545    1.3202730800
 O    2.0990954114   -0.1459078920    1.3050014479
 N   -1.3910337371   -0.4235894219    0.0901266964
 C   -2.5434184128    0.1091952917    0.5366187916
 N   -3.5160980825   -0.7623416978    0.3722502236
 N   -2.9339451715   -1.8550885621   -0.1848569618
 N   -1.6674637632   -1.6697497912   -0.3569035346
 H    1.1040565953    1.8879661055    0.0137627203
 H   -0.4322161892    1.9735818224   -0.8794910436
 H   -0.4109296090    2.0523077442    0.8979700377
 H    0.4427848589   -0.3617433222   -0.8096354269
 H    0.3044887782   -0.0592719549    2.2306650950
 H    0.5771879335   -1.5822364772    1.3649662050
 H    2.5549375397   -0.7308243715    0.6913744089
 H   -2.6408443289    1.0979941342    0.9506590854