17

 O   -0.2276829767    1.4194299027    0.1197359718
 C   -0.0304573865    0.0308168356    0.0436739192
 C    0.3379704535   -0.6801045331    1.4023979632
 C   -1.1157161891   -1.1005668260    1.4936512861
 O   -1.6920720369   -2.1844174623    2.1951055397
 C   -2.9342862181   -1.4361688961    2.3791313204
 C   -2.3103008867   -0.1652339875    1.7582489254
 O   -2.5674096580    0.0359593883    0.3538349333
 C   -1.4058263134   -0.7389308048    0.0157132903
 H    0.6304257197    1.8319335596    0.2610387284
 H    0.6302444543   -0.2456894135   -0.7877020251
 H    1.0046566944   -1.5331363076    1.2409960341
 H    0.7406389461   -0.0504777225    2.2009345371
 H   -3.7641436135   -1.8568543925    1.8027131120
 H   -3.1979382614   -1.3748491672    3.4404404620
 H   -2.3051982161    0.7602609779    2.3347603903
 H   -1.5647539116   -1.4292127011   -0.8145973983