18

 N   -0.3326453718   -3.7839502226   -0.7480057235
 C   -0.2292190088   -2.6532179314   -0.5002612636
 C   -0.1074911036   -1.3257345305   -0.2090437346
 C    0.0000352164   -0.1490393068    0.0492972223
 C    0.1393234762    1.2567896584    0.3716672810
 C   -0.3184847780    1.6379637388    1.8015531036
 C    0.2554785273    3.0544792271    1.9874420121
 C    1.5668206360    3.0939746212    1.1491029038
 C    1.6009060135    1.7776178748    0.3326054932
 H   -0.4593538671    1.8336055827   -0.3474430751
 H   -1.4029668151    1.5861753020    1.9228926037
 H    0.1288198406    0.9368246437    2.5144644003
 H   -0.4566051780    3.7948491352    1.6087818271
 H    0.4236290882    3.2892503199    3.0412335755
 H    1.5752111650    3.9647286256    0.4878903736
 H    2.4524217671    3.1757707098    1.7841579497
 H    2.2487041850    1.0385411530    0.8139978434
 H    1.9630244170    1.9096376792   -0.6893380124