20

 C   -0.6060817376    1.0663873787   -0.0367344719
 C   -0.0044843913   -0.3211109476    0.1028648568
 C    1.3187403320   -0.6304849410   -0.6846405727
 C    1.8452335160   -1.4109328800    0.5644848456
 C    0.7489617043   -0.7237296962    1.3852236561
 C    0.9900132254    0.1580584935    2.5780445936
 C    0.1930710970   -1.1211995141    2.7147966709
 C    1.2120879974   -1.3390883919   -1.9469401876
 N    1.1086719256   -1.9174332034   -2.9433821134
 H    0.1333628757    1.8444606360    0.1797392300
 H   -0.9823759889    1.2273628697   -1.0522950163
 H   -1.4475803434    1.2014842849    0.6517454173
 H   -0.7518884958   -1.0835965387   -0.1432524039
 H    1.8915326582    0.2893376800   -0.8350037731
 H    1.6889440836   -2.4881717342    0.4620471693
 H    2.8850233142   -1.2248054390    0.8418240518
 H    1.9908300078    0.1858968361    2.9974128264
 H    0.4543088338    1.0994437913    2.6439763181
 H   -0.8788035289   -1.0374078386    2.8664188691
 H    0.6502820352   -1.9594766055    3.2310045440