20

 C   -0.1899266692    1.6267973140   -0.1263228816
 C    0.1350915085    0.1396034643    0.0163961298
 N    0.8015576921   -0.4016262466   -1.1607769241
 N    0.0760835638   -0.5971514861   -2.2846986853
 N    0.8764697040   -1.0748894555   -3.1936415530
 C    2.1204547042   -1.1917476189   -2.6607092561
 C    2.1004767455   -0.7652169972   -1.3497320551
 C    3.1846938418   -0.6806495947   -0.3226380170
 C    3.7569703126    0.7348674020   -0.1247746311
 H    0.7188032611    2.2222517439   -0.2533337169
 H   -0.8309301061    1.7883151185   -0.9959437252
 H   -0.7135297262    1.9819302728    0.7662212647
 H    0.7814000429   -0.0434693328    0.8782903205
 H   -0.7827796910   -0.4366285847    0.1605415106
 H    2.9500552937   -1.5789994967   -3.2311030177
 H    2.8265997364   -1.0702720119    0.6384696292
 H    3.9889236841   -1.3529647324   -0.6378400019
 H    4.1397012685    1.1332879191   -1.0686374264
 H    2.9960502455    1.4283814207    0.2457280687
 H    4.5770418778    0.7193828121    0.5993298778