18

 C   -0.0100721729    1.5292341927    0.0553712573
 N    1.1953020460    0.6798665469   -0.0595025830
 C   -0.1121373517    0.0545878833    0.0380748421
 C   -0.4634801156   -0.9792765661    1.0941569120
 C   -1.9266385284   -1.3107830196    1.0097371482
 C   -0.9926631461   -1.9172197578   -0.0071558381
 C   -0.6509675663   -0.8722785013   -1.0510853343
 C   -1.1861540105   -0.6193026341   -2.3887043393
 O    0.1411030674   -1.1492143418   -2.1936584343
 H   -0.0940950219    2.0735703060    0.9922911703
 H   -0.3526474793    2.0776008849   -0.8194890900
 H    1.5096322836    0.6268202497   -1.0276089588
 H    0.1554264544   -1.2173753125    1.9490244585
 H   -2.2953922121   -1.9998347463    1.7628513380
 H   -2.6454648046   -0.5514706552    0.7112840138
 H   -0.8550033901   -2.9836219457   -0.1278503451
 H   -1.9020669807   -1.3138159390   -2.8260956812
 H   -1.2249288912    0.3954614659   -2.7827789662