16

 O    0.1882793505    1.3485365868    0.1079048832
 C    0.0579879708   -0.0478762338   -0.1163093893
 C   -1.3713623802   -0.5024227541   -0.0745277333
 C   -2.0711277607   -0.9431553370    1.1654185956
 C   -1.9044451447   -1.9601323123    0.0397696555
 C   -2.8801433930   -1.6499239364   -1.0567118938
 O   -3.5956180541   -2.3259212651   -1.7392618583
 C   -2.4305687540   -0.1664835532   -1.1419028935
 H   -0.1856445929    1.5407372517    0.9744020837
 H    0.4837620616   -0.2233868071   -1.1101687066
 H    0.6530373655   -0.6322542680    0.6039216560
 H   -1.4451237600   -1.1540911365    2.0280107475
 H   -3.0578768772   -0.5623448394    1.4146147203
 H   -1.3797890123   -2.8938298447    0.2028684278
 H   -3.1598676494    0.6092751501   -0.8932282997
 H   -2.0113102598    0.0412652892   -2.1309796052