16

 O   -0.6772323924    0.1261249166    1.3368190582
 C   -0.1762064239    0.9812902737    0.6591118262
 C    1.3450363526    1.2634890243    0.7782439176
 C    1.9717920668    1.7967319070   -0.4247913892
 N    2.4442242041    2.2153753673   -1.3931898446
 C   -0.9487849919    1.8429780168   -0.3253931949
 C   -0.9911168838    1.2801608385   -1.7768165548
 C   -2.5067050649    1.1667533504   -1.5107255431
 O   -2.3621880237    1.7271991438   -0.1850142373
 H    1.4732090611    1.9845988435    1.5959873819
 H    1.8334321507    0.3362944816    1.0885695780
 H   -0.6037804536    2.8838809701   -0.2494427075
 H   -0.6873008930    1.9914773038   -2.5433501526
 H   -0.4660804725    0.3369839955   -1.9312801991
 H   -3.1493168038    1.7877652332   -2.1440984799
 H   -2.9062383017    0.1476267239   -1.4756843890