18

 C    0.0004941124    1.5641292136    0.1297859463
 C    0.0209445019    0.0508961135    0.0648943336
 C   -1.2548565697   -0.5683377865   -0.4959173666
 O   -1.5205727804   -0.1729516804   -1.8329145536
 C    1.2646414931   -0.7448837920   -0.2254074531
 N    2.4790581436   -0.1638660045    0.3501582293
 C    1.9316566928   -0.1434994379    1.6476630719
 O    2.3563248755    0.2778528205    2.6854855994
 C    0.6533698085   -0.8198645319    1.1666412783
 H    0.9316757427    1.9781459988    0.5215190764
 H   -0.1547307389    1.9860528498   -0.8692889736
 H   -0.8108733158    1.9124081459    0.7789168368
 H   -1.1576463007   -1.6593111343   -0.5186238054
 H   -2.1006219367   -0.3316261559    0.1673510956
 H   -1.8824824192    0.7176474781   -1.8179659134
 H    1.3298940424   -1.5235778864   -0.9744466043
 H    2.9911625155    0.6135373425   -0.0512105807
 H    0.1199636531   -1.6276115529    1.6489792632