16

 O   -0.0789692055    0.1818503557   -0.8698598842
 C   -0.0898358856    1.1944907106   -0.2232235826
 C   -1.3708396488    1.9012169895    0.2275595105
 C   -1.0946255506    2.8533652535    1.4062288049
 C   -0.0339658977    3.8400258779    0.9607299737
 C    1.3053026006    3.9542254408    1.6267541929
 N    1.1517784610    3.2261199184    0.3758724544
 C    1.2365231478    1.8411730534    0.2751499902
 O    2.2174243229    1.1878124672    0.5260561824
 H   -1.7555309754    2.4663876210   -0.6322396750
 H   -2.1179717168    1.1371748344    0.4606921898
 H   -2.0068103997    3.3673904062    1.7213173878
 H   -0.7352977859    2.2787569632    2.2687594332
 H   -0.3978094575    4.7064408795    0.4099738286
 H    1.8616059333    4.8845478920    1.5649677796
 H    1.4908211179    3.3612875069    2.5186134038