21

 C   -0.0973640570    1.6067694160   -0.1588399686
 C    0.0344338358    0.1007174674    0.0584682807
 N   -1.2723551470   -0.5243751410    0.1868622122
 C   -2.0835600808   -0.3038176615    1.4008125338
 C   -2.6200475304   -1.7459166862    1.2610383149
 C   -1.4094985548   -1.9969439748    0.3036514477
 C   -1.6587489972   -2.7276365829   -1.0136171427
 C   -0.2889184877   -2.6288420931    1.0341573695
 N    0.6072639069   -3.0911362516    1.6009814442
 H    0.8896066630    2.0627329342   -0.2794238558
 H   -0.6934407550    1.8191162955   -1.0509813451
 H   -0.5825283582    2.0894916931    0.6960291045
 H    0.5387692146   -0.3552082333   -0.8018737635
 H    0.6687492669   -0.0976702874    0.9407012314
 H   -1.4789254169   -0.1719681675    2.3121084910
 H   -2.8021754256    0.5175102240    1.3289041312
 H   -2.6687053347   -2.3563475476    2.1613677948
 H   -3.5646339358   -1.8029606404    0.7179644396
 H   -2.4905095292   -2.2478680646   -1.5344349686
 H   -0.7743986768   -2.6880711889   -1.6565612631
 H   -1.9002919501   -3.7797314195   -0.8343786779