16

 O   -0.3071659141    1.3481482057   -0.7590019448
 C   -0.8592626962    0.0666017442   -0.7154580050
 C   -0.7383058152   -0.5307526683    0.6740227425
 O   -0.2151114486    0.1024033209    1.5674474086
 C   -1.2934870926   -1.9186842603    0.9187798456
 C   -2.6576688039   -1.9882983449    1.6542603979
 C   -3.1337656119   -2.7203898514    0.3829796837
 O   -1.8466931182   -2.5412133595   -0.2559249653
 H    0.0184282136    1.5160378384    0.1400172458
 H   -1.9238655855    0.0706223334   -1.0002484020
 H   -0.3702190535   -0.6192285257   -1.4259098536
 H   -0.5031674495   -2.5277528718    1.3765182609
 H   -2.6587175593   -2.5684283673    2.5764531825
 H   -3.1235677675   -1.0192580366    1.8380639800
 H   -3.3721043034   -3.7818119293    0.5148268691
 H   -3.9388140042   -2.2398942475   -0.1832763760