15

 N   -0.0627365893    1.3390722742   -0.1185629498
 C    0.0726565876    0.0655892817   -0.1296495750
 C   -1.1324399485   -0.7520466949   -0.1767669118
 N   -2.0628866186   -1.4366060492   -0.2018991451
 N    1.2197281699   -0.6735663563   -0.1289326084
 C    2.5698691517   -0.2213964307    0.2187872560
 C    2.9535926348   -1.7058603778    0.4764945136
 C    1.4608759204   -2.0775673010    0.2488243500
 H    0.8481931199    1.8009147410   -0.0824727598
 H    3.0978560624    0.2842883246   -0.5964740328
 H    2.5922382141    0.4222122242    1.1081713955
 H    3.6302959063   -2.1209740800   -0.2703338992
 H    3.3406601276   -1.9202103932    1.4719169406
 H    0.9219550000   -2.3870741893    1.1507696307
 H    1.2543947017   -2.7943263536   -0.5508293346