17

 C    0.0774673290    1.4304242917    0.0722637629
 C    0.0182058934   -0.0544592898    0.0057316599
 C    0.0109567529   -0.9192669696   -1.0172248958
 C   -0.0154246602   -2.2735908042   -0.3010480061
 O   -0.9796833974   -2.0246616667    0.7776356752
 C   -0.0102475685   -1.0178551752    1.2106220703
 C    1.0705172292   -2.0461847003    0.7851228685
 C    1.9401530727   -2.9390711770    1.5306868781
 O    2.4477831650   -1.8938908602    0.6557125709
 H    0.9726451676    1.7651552363    0.6114310591
 H    0.1002112234    1.8735318347   -0.9268964538
 H   -0.7862694074    1.8409287717    0.6099671458
 H    0.0486181217   -0.7426967160   -2.0819056871
 H   -0.1666258324   -3.2010534891   -0.8499792468
 H   -0.1534418478   -0.6416355957    2.2227887725
 H    2.1154085763   -2.7754926187    2.5924789779
 H    2.1124281024   -3.9550063819    1.1800603684