18

 C    0.2980429771    1.5086925209   -0.1051754480
 C    1.3817024691    0.4728804834    0.0747108826
 C   -0.0599940695    0.0565021376   -0.0072568775
 C   -0.8623009671   -0.7018654966    1.0642543135
 C   -1.1884334305   -1.7998422246   -0.0009623366
 C   -0.6106125332   -0.8675982446   -1.0734157599
 C   -1.1142902214   -0.5644426860   -2.4139600211
 O    0.1102281861   -1.2921278056   -2.2157160938
 H    0.0527105401    2.1468915647    0.7379321943
 H    0.2098927329    1.9955734733   -1.0716423076
 H    2.0076326016    0.2365093669   -0.7792554390
 H    1.8772585489    0.4081049446    1.0380749052
 H   -0.3006807324   -1.0375043481    1.9389949647
 H   -1.7506038430   -0.1609679971    1.4022385716
 H   -0.5813878020   -2.7009420839    0.1174356616
 H   -2.2362114786   -2.0880586537   -0.1101235753
 H   -1.9386978441   -1.1444232086   -2.8281593635
 H   -0.9991210940    0.4369439974   -2.8274018315