25

 C    0.4730953332    1.6023157622   -0.2493145559
 C    0.0821916853    0.1393354318   -0.0000392468
 C    0.5023902335   -0.7749446183   -1.1935134845
 C    1.5386528456   -1.7906294350   -0.6455164080
 C    2.6312960053   -2.1306543692   -1.6462379152
 O    3.4869080303   -3.1026866436   -1.0605987690
 C    2.0362516019   -1.1539819864    0.6615208055
 C    0.7702800988   -0.5057049330    1.2420942416
 C    1.0061960291    0.4087591391    2.4436662030
 H    1.5569738194    1.7175608248   -0.3663608945
 H    0.0057157627    1.9685860571   -1.1697028532
 H    0.1535715231    2.2574475809    0.5668548176
 H   -1.0050000977    0.1084787257    0.1336032481
 H   -0.3544562096   -1.2833121488   -1.6449999201
 H    0.9523978294   -0.1665142359   -1.9880807081
 H    1.0275086922   -2.7284676372   -0.3928871160
 H    2.1798540201   -2.5095963256   -2.5780953505
 H    3.1887604314   -1.2134009421   -1.9029801121
 H    4.1815168767   -3.3120763513   -1.6915589988
 H    2.5016271871   -1.8772005103    1.3357139293
 H    2.7905970707   -0.3838979076    0.4438712754
 H    0.1167090018   -1.3255569506    1.5734647297
 H    1.6974362448    1.2236397934    2.2055099582
 H    0.0716000191    0.8571028641    2.7991556244
 H    1.4385467058   -0.1549256040    3.2772119998