16

 N    0.7379377573   -0.4774988159    0.2335309322
 C   -0.2839332995    0.2128294522   -0.3227188053
 O   -0.2304966484    1.3771296073   -0.6724097820
 C   -1.5923429849   -0.5371687736   -0.5378640442
 C   -1.8069157424   -1.2952839327   -1.8205075779
 N   -1.8139806217   -1.9685839935   -0.5378901297
 C   -0.9885312019   -3.0082082025   -0.1290393410
 N   -1.0137759885   -4.0858141034   -0.9761668532
 O   -0.3319443490   -2.9960739907    0.9022541578
 H    1.5780589995    0.0437106677    0.4307625487
 H    0.5691634975   -1.3667703932    0.6975006843
 H   -2.4352634295    0.0360252848   -0.1608519268
 H   -2.7587243256   -1.2215116595   -2.3399792817
 H   -0.9371591215   -1.4410621340   -2.4574136225
 H   -1.7803380766   -4.1841217339   -1.6216868144
 H   -0.6306296647   -4.9361552991   -0.5954019541