17

 C    0.0103859817    1.4377056158   -0.0740140381
 N    0.1925403704    0.0000946118   -0.1146930058
 C    0.6448441156   -0.6070432527    0.9061190111
 N    1.0282595679   -0.1094548074    2.1579038495
 C    1.4851745792   -1.1298115563    2.9889385155
 O    1.9048014196   -0.9976295673    4.1154369465
 C    1.3479226399   -2.3946306552    2.1889110629
 C    1.7241983790   -3.7137221439    2.7677601457
 C    0.8641945704   -2.0648180765    0.9824782338
 H    0.8993671621    1.9405077053   -0.4779800647
 H   -0.8298029858    1.7084126137   -0.7199048198
 H   -0.1883566469    1.8503004633    0.9265740835
 H    1.0655530874    0.8585777013    2.4262009690
 H    2.7704253705   -3.7071225365    3.0923662457
 H    1.1273634940   -3.9271401132    3.6614530367
 H    1.5820879766   -4.5231191361    2.0484259287
 H    0.6364166484   -2.7109404859    0.1464532996