15

 N   -0.0531497303    1.1657814424   -0.0747755990
 C   -0.0847835720   -0.0792981414    0.1975883024
 N   -1.2749729325   -0.7491189158    0.2942244293
 C   -2.5383961164   -0.2619790704   -0.2763726517
 C   -2.9225384669   -1.7262910053   -0.5170896636
 O   -3.8697458000   -2.3045378765   -0.9385220037
 C   -1.5175442194   -2.1878450770    0.0291907496
 C   -0.6505993861   -2.8508906450   -0.9246052670
 C    0.0610564331   -3.3923150330   -1.7280021519
 H    0.9050078153    1.5082094720   -0.0668817041
 H    0.7791163679   -0.7223686466    0.3992530823
 H   -3.1811361478    0.2922815652    0.4153490213
 H   -2.4082586083    0.3304780410   -1.1913382944
 H   -1.6082101121   -2.7807724852    0.9490301545
 H    0.6872784356   -3.8741897044   -2.4382368639