21

 C   -0.0948952109    1.5266840469   -0.0637694084
 C   -0.0407467978   -0.0040022472   -0.0341466232
 C    0.6352556889   -0.5623894152    1.2200440462
 C   -0.1120321830   -0.2923001687    2.5667008540
 O   -1.5076671774   -0.0021092090    2.4579003015
 C    0.1315240561   -1.5541042608    3.3582814603
 C    0.6712606127   -2.5246107996    2.6199557324
 C    0.9004201493   -2.1017968158    1.1894879003
 O    0.0986914678   -2.8548764881    0.2778654230
 H    0.9090346005    1.9613559763    0.0068928367
 H   -0.5447486136    1.8841923549   -0.9954484498
 H   -0.6926034559    1.9125956399    0.7664219513
 H   -1.0574075376   -0.4034457327   -0.1132944691
 H    0.4959083780   -0.3790558950   -0.9128637166
 H    1.6191679391   -0.0859423257    1.3181333922
 H    0.2987021171    0.5923631824    3.0634373728
 H   -1.9618218639   -0.8203356857    2.2312872359
 H   -0.1625059337   -1.6362998290    4.3994215017
 H    0.8913238390   -3.5321468744    2.9570257198
 H    1.9247585771   -2.3023872006    0.8580258433
 H   -0.7958058019   -2.8912316828    0.6326199158