20

 C   -0.3568662059    1.4869240965   -0.0685063063
 C   -0.0876839916   -0.0062084027   -0.0330892188
 C   -0.7123391309   -0.8108332057    1.0912731955
 C    0.7637541925   -0.5295167771    1.0886460241
 O    1.6257547318   -1.6322068818    0.9165725478
 C    2.5660824573   -1.6616108213   -0.0810436207
 N    2.6020701336   -1.1893586740   -1.2456998944
 C    1.5416399449   -0.4521829469   -1.9116509068
 C    0.1149832140   -0.6671965858   -1.3866939708
 H    0.4187969553    2.0252064417   -0.6240329898
 H   -1.3186001917    1.6942240373   -0.5517732926
 H   -0.3955017694    1.9107062830    0.9397245209
 H   -1.3307063186   -0.3025146664    1.8236665330
 H   -1.0067937453   -1.8321868671    0.8761875952
 H    1.1596127401    0.1763572313    1.8157686964
 H    3.3992461430   -2.2735301978    0.2669402211
 H    1.7994121419    0.6158766439   -1.8890878163
 H    1.5848526091   -0.7374246213   -2.9699638256
 H   -0.0762103694   -1.7435464038   -1.3253985982
 H   -0.6060860908   -0.2628499419   -2.1084127437