16

 C   -0.0272099590    1.4907185317    0.0853174634
 C    0.0112953527    0.0033288344   -0.0367997736
 C   -0.0083659224   -0.7989767139   -1.1646201880
 C    0.0502152448   -2.1527147988   -0.7448317069
 N    0.1231628949   -3.2729949784   -1.5601454585
 C    0.1003748313   -2.1430196254    0.6488844437
 N    0.0810329586   -0.8077214081    1.0519375533
 C    0.1505167682   -3.2197570279    1.5440939064
 N    0.1846009817   -4.1292767760    2.2678895291
 H    0.8694948917    1.8816285138    0.5805210137
 H   -0.0860638207    1.9459596918   -0.9051930528
 H   -0.8957180203    1.8301008117    0.6621753555
 H   -0.0491460413   -0.4464560079   -2.1840689258
 H   -0.3714182441   -3.1835481919   -2.4358623860
 H   -0.1069803524   -4.1413125820   -1.0963584916
 H    0.1064246963   -0.5063480332    2.0104254481