21

 C    0.0095509060    1.5557078153   -0.0154502370
 C    0.0747456302    0.0248930123    0.0915862128
 C    0.6957993964   -0.3903559674    1.4336236127
 C   -1.3178143833   -0.6052960963   -0.1109885369
 C   -2.1058111169   -0.1583659426   -1.3526801166
 C   -3.0270018565   -1.3561419497   -1.6009858165
 O   -2.2924438410   -2.5022783030   -1.1411041036
 C   -1.3043608876   -2.1312893767   -0.2814586653
 O   -0.5772409732   -2.9410642436    0.2201159161
 H    1.0020624909    1.9903632999    0.1393654469
 H   -0.3503260963    1.8914531435   -0.9925545879
 H   -0.6558171461    1.9738792794    0.7497628255
 H    0.7210921966   -0.3467741379   -0.7158743339
 H    1.7019592608    0.0293762740    1.5337785144
 H    0.0955643239   -0.0092459312    2.2694041960
 H    0.7571714158   -1.4753252036    1.5216942135
 H   -1.9231602528   -0.4075690567    0.7875257869
 H   -2.6600625636    0.7715890311   -1.2151337103
 H   -1.4246266152   -0.0257891550   -2.2009082403
 H   -3.9596356775   -1.2834844475   -1.0281068697
 H   -3.2745058904   -1.5188624643   -2.6519939969