20

 C    0.5177581674    1.6781372682   -0.0161761334
 C    1.5875124877    0.6183156773    0.1124931443
 C    0.1446524310    0.2242278626   -0.0896612867
 N   -0.5366553693   -0.3692393584    1.0329061830
 C   -1.7619556506   -0.0463393392    1.7220537280
 C   -3.0523850172    0.1877810493    0.8639549413
 C   -2.8282524500    0.1544784361   -0.6162937348
 C   -2.8133339918   -1.1392680764    0.1620389401
 C   -1.5454048943   -1.3789498434    1.0614947492
 H    0.2285137946    2.2079234088    0.8850061071
 H    0.4710094290    2.2746636619   -0.9207125212
 H    2.2819864754    0.4795941706   -0.7091783549
 H    2.0003631009    0.4442192282    1.0995507536
 H   -0.1048925863   -0.1886953869   -1.0625272954
 H   -1.7087646819    0.2198708041    2.7725041576
 H   -3.9702294267    0.5453778790    1.3128329535
 H   -3.7337778762    0.2902460445   -1.2020890038
 H   -1.9519235388    0.5900163091   -1.0717239915
 H   -3.5327900812   -1.9256943952   -0.0253955890
 H   -1.3315227118   -2.3485946503    1.5010776030