19

 C    0.0048465236    1.4882464765    0.0782664402
 C   -0.0691431379    0.0006632103   -0.0082131539
 C   -0.0601362110   -0.8015751691   -1.0808724284
 C    0.0179627103   -2.2485152286   -0.5997370397
 C   -0.8050524095   -2.1379039418    0.7103150989
 C   -0.0218215020   -0.9103455654    1.2268780307
 C    1.4246709583   -1.4591648103    1.1752370991
 O    2.3373439005   -1.1740312289    1.9035842518
 C    1.4486109903   -2.4374097054   -0.0203997094
 H    0.9135997418    1.8041978793    0.6056252392
 H    0.0094164941    1.9470877474   -0.9143218922
 H   -0.8421158584    1.8976148973    0.6427503592
 H   -0.0027642176   -0.4924102349   -2.1176267973
 H   -0.2928091208   -3.0136547168   -1.3110506200
 H   -1.8589241564   -1.9111273448    0.5324608489
 H   -0.7185566523   -3.0202528405    1.3543046325
 H   -0.2899487867   -0.4603476217    2.1812794981
 H    1.6189728226   -3.4522237717    0.3578049628
 H    2.2540956212   -2.1998115809   -0.7179268405