18

 C    0.0273807748    1.2763191116   -0.2382479487
 O   -0.0979306705   -0.0476161829    0.2542585770
 C   -1.3727316077   -0.5494224338    0.1581559195
 C   -2.5744024286   -0.2331256917    1.0480200832
 C   -3.1936996522   -1.5258407378    0.4397864337
 C   -3.4375885676   -1.1744173899   -1.0560248265
 C   -1.9177498413   -1.1183295097   -1.1738966171
 C   -1.7315809979   -1.9991345813    0.0514986047
 H    1.0763284680    1.5597670738   -0.1277794257
 H   -0.2565634902    1.3387393766   -1.2978069299
 H   -0.5936992710    1.9811733496    0.3319228589
 H   -2.3195260728   -0.3647745694    2.1034361693
 H   -3.1262177311    0.7039987478    0.9085187590
 H   -3.9181035838   -2.1043620757    1.0080662518
 H   -3.8526613533   -2.0218892405   -1.6098671183
 H   -4.0238188870   -0.2730396855   -1.2725970893
 H   -1.2971342052   -1.0993911687   -2.0609982995
 H   -1.1643796025   -2.9028251827    0.2174495778