24

 C    1.4004309645    1.5620680730   -0.2571776278
 O    1.1980167840    0.1753151935   -0.4112322977
 C    1.5128266156   -0.4181195480   -1.6837477713
 C    0.7035702501    0.2405059200   -2.8185315697
 C    3.0126616493   -0.2932280590   -2.0003345496
 C    0.9835025583   -1.8535157550   -1.5400212375
 C    1.7647455919   -3.0864691300   -1.8636777040
 N    1.3329566707   -2.8168597288   -0.5030071203
 C    2.3210956702   -2.5463447092    0.5292578315
 H    2.4507572525    1.8586202807   -0.3871880873
 H    0.7844698329    2.1609717221   -0.9422072667
 H    1.1030319027    1.8026442355    0.7669687925
 H    1.0586753737    1.2505126380   -3.0402284016
 H    0.7964327917   -0.3515221410   -3.7341934776
 H   -0.3553904094    0.2939834863   -2.5498679107
 H    3.6377178683   -0.6907236282   -1.1992221296
 H    3.2541763248   -0.8237359800   -2.9250319915
 H    3.2854940867    0.7555856074   -2.1501117628
 H   -0.0853557135   -1.8840014557   -1.7504092789
 H    1.2922798956   -3.9265216373   -2.3689558839
 H    2.8226698228   -2.9654634253   -2.0926754833
 H    3.2792146145   -2.1488383537    0.1641072131
 H    1.9067665176   -1.8308965652    1.2422250027
 H    2.5315310948   -3.4849684200    1.0533889819