21

 C    0.0638529716    1.5313913271   -0.3307213348
 C   -0.0231646166    0.0699867858    0.0479010548
 O   -1.2610488486   -0.5186321539   -0.2728569958
 C    1.1952347271   -0.8232846675   -0.0262756208
 C    0.5651691745   -0.4766523062    1.3152500873
 C    1.2961106252    0.3643106426    2.3425602156
 C    2.1994008251   -0.4796648471    3.2126093842
 C    2.4169493679   -0.1901227279    4.6343866065
 O    1.5578008625   -1.2571768930    4.2286193785
 H    1.0203143721    1.9755047519   -0.0437896802
 H   -0.0377781820    1.6505724351   -1.4167465855
 H   -0.7411006639    2.1003388865    0.1457617728
 H   -1.3367534018   -0.5364387736   -1.2337447393
 H    1.0563984331   -1.8297945002   -0.4046593691
 H    2.1498856604   -0.3682806587   -0.2754873656
 H   -0.0320375909   -1.2728302895    1.7501663269
 H    1.9052801089    1.1330437126    1.8512773109
 H    0.5774306581    0.8850545457    2.9868912592
 H    2.9831579377   -1.0211105901    2.6792847914
 H    3.3453382746   -0.4928087350    5.1171668942
 H    1.9169680749    0.6646539954    5.0891450488