18

 C    0.6243249989    1.5255441454   -0.0003908752
 N    1.1839883530    0.2521862491   -0.4585869136
 C   -0.2158157613    0.2895330625    0.0345238676
 C   -0.5093489643   -0.4010806602    1.2595535441
 C   -0.7791575681   -0.9739402217    2.2855440513
 C   -1.1103998833   -1.6644538727    3.5121114016
 C   -2.2469755007   -1.1024940380    4.4141369220
 O   -2.8934120291   -2.3870282818    4.4676419141
 C   -2.0271280697   -2.9199305344    3.4492359218
 H    1.0455970190    1.8990361085    0.9275377726
 H    0.3644527450    2.2889978023   -0.7292469322
 H    1.1747412799    0.2123345835   -1.4748568490
 H   -1.0008361758    0.2340544074   -0.7171434040
 H   -0.2054823305   -1.8637213981    4.0932228864
 H   -1.9521265151   -0.7438597858    5.4060521083
 H   -2.8669570463   -0.3452542278    3.9181876451
 H   -2.5410634438   -3.0403929293    2.4874838623
 H   -1.5737413078   -3.8717577990    3.7453927567