16

 C   -0.0237097824    1.5682229449    0.0620007694
 C   -0.0062694587    0.0717099465    0.0675059440
 C   -1.2542147808   -0.8019318243    0.2720404340
 O   -1.9755958773   -1.0698306337   -0.8995990830
 C   -0.2886530334   -1.8186389173    0.8782999631
 C    0.9973117591   -1.8022006749    0.1155704960
 N    0.7129306089   -0.7681417054    1.2074645443
 C    0.8611445282   -0.7302863660   -0.9156191145
 O    1.4202022202   -0.4573254019   -1.9373227540
 H    0.9889051562    1.9711328719   -0.0263947388
 H   -0.6037045493    1.9198008200   -0.7975041330
 H   -0.4813750338    1.9628692291    0.9738805343
 H   -1.8887227943   -0.3863468212    1.0664240973
 H   -2.8200520567   -1.4688305345   -0.6689444856
 H   -0.5016037457   -2.6230823675    1.5744173963
 H    1.7579947796   -2.5635849656    0.2298622901