20

 N   -0.3716622587   -0.8441871683   -0.6360189508
 C   -0.1793535967    0.2835786217   -0.4712440159
 C    0.0854541823    1.7052100956   -0.2557713740
 C    1.5415876350    1.9803973864    0.1947601148
 C    2.6168999293    1.5706422730   -0.8554891012
 C    3.1361192161    2.8591130588   -1.4763629486
 C    2.1397109022    3.8239880474   -2.0693142770
 C    2.6340807891    4.0281914311   -0.6583867938
 C    1.7892702427    3.4910285863    0.4877898633
 H   -0.1554914744    2.2413948381   -1.1794099300
 H   -0.6115210424    2.0710462197    0.5070915200
 H    1.6878588620    1.4009918990    1.1102234461
 H    3.4430573426    1.0562260087   -0.3536096083
 H    2.2165739821    0.8662498752   -1.5930770078
 H    4.1402172804    2.8536948623   -1.8858639102
 H    2.5078825478    4.5105936099   -2.8241995143
 H    1.1171260010    3.5050208956   -2.2416209452
 H    3.2657861691    4.8872082372   -0.4609278472
 H    0.8488443323    4.0397248551    0.6196308098
 H    2.3460343583    3.5977568173    1.4248794603