14

 C   -0.0127192165    1.4620836403   -0.0691609135
 C   -0.0329974925   -0.0379413794    0.0731818658
 O   -0.0516193447   -0.6503734131    1.1012691321
 N   -0.0263419893   -0.7474993975   -1.1776662918
 N    0.0056397271   -0.1254238494   -2.3624182983
 N    0.0044634330   -1.0484744074   -3.2691618645
 C   -0.0286739974   -2.2454892228   -2.5901155091
 N   -0.0942844680   -3.4443456267   -3.2391904418
 N   -0.0435556442   -2.0906424918   -1.2783757047
 H    0.8731659918    1.7871216934   -0.6201498127
 H   -0.8825312775    1.8084610083   -0.6328139503
 H   -0.0151455941    1.8913287636    0.9320231025
 H    0.2483592389   -3.4308749096   -4.1871634667
 H    0.1866293132   -4.2475640078   -2.6988658369