16

 N    0.3233426080    1.1835675473    0.5050265728
 C   -0.1005728289   -0.1378064122   -0.0038172029
 C   -1.5687997124   -0.1352452387   -0.1338912841
 N   -2.7162222165   -0.1291555055   -0.2676448422
 C    0.5455897398   -0.5873728473   -1.2934953679
 C   -0.0187472152   -0.6009663858   -2.5506793343
 N    0.9375746740   -1.0256457473   -3.4337230470
 C    2.1069343438   -1.2886605921   -2.7672358242
 C    1.8968326858   -1.0264098890   -1.4353358942
 H    1.3244122000    1.1441457087    0.6774311656
 H    0.1984602598    1.8683139760   -0.2369599847
 H    0.1414237503   -0.8600567562    0.7865490625
 H   -1.0197719296   -0.3616155538   -2.8708394980
 H    0.7935056740   -1.1504576525   -4.4204910704
 H    2.9803051047   -1.6411629009   -3.2916229663
 H    2.6252620623   -1.1400410209   -0.6461293750