19

 C   -0.2476664688    1.4975622232    0.1490810121
 C   -0.0043176775    0.0111971778    0.0380232503
 C    1.3356045080   -0.5255093089   -0.3688414146
 C    0.8535709266   -0.7286354423    1.0635862170
 C    1.4822975857   -0.0325966792    2.1472484857
 C    2.0180138386    0.5390253757    3.0644235957
 C    2.6049013996    1.2278224035    4.2042604798
 C    1.5555261928    1.6364235359    5.2409085613
 O    1.7360449733    1.5927370594    6.4271224662
 H    0.6349834111    2.0128062623    0.5377828121
 H   -0.4878821699    1.9256717349   -0.8300338531
 H   -1.0822034824    1.7132305756    0.8247859292
 H   -0.8618376055   -0.5623019325   -0.3038463357
 H    1.3867038930   -1.4011173626   -1.0062831572
 H    2.1405134395    0.1868563635   -0.5124375994
 H    0.5230177330   -1.7343185097    1.3074773709
 H    3.3693548397    0.6289047563    4.7106625316
 H    3.0974173265    2.1560437160    3.8742786251
 H    0.5987271769    1.9940249611    4.8014769631