18

 C   -0.2189166171    1.3868870334    0.4251272072
 C    0.0733466334   -0.0745663576    0.1720595002
 C    1.4381563487   -0.5099862640   -0.3329282294
 C    1.0110622103   -0.8457014113    1.0600833133
 O    1.7005069235   -0.1505783922    2.0854086749
 C    1.2329272364   -0.3309795842    3.3460960496
 C    2.0604613912    0.4618227414    4.3289671289
 O    0.2979998481   -1.0370887336    3.6203198978
 H    0.6568309645    1.8982660492    0.8333209778
 H   -0.5051436863    1.8947399321   -0.5017391525
 H   -1.0397533070    1.5054711058    1.1406956681
 H   -0.7732580113   -0.6500651987   -0.1931727877
 H    1.5139218728   -1.3109054410   -1.0598093492
 H    2.1919792112    0.2642941194   -0.4314747453
 H    0.7647120386   -1.8639548702    1.3342593150
 H    2.0179468321    1.5266582010    4.0828020897
 H    1.6810882697    0.2979665915    5.3367189477
 H    3.1088889312    0.1566007890    4.2691884341