18

 O    0.2091121673    1.4130412508    0.4027486265
 C    0.1357932518    0.0449644669    0.1304732549
 C   -0.6183272039   -0.8539779964    1.0999461723
 C   -1.2383201029   -0.4710529071   -0.2124530324
 C    1.2978302645   -0.5803368471   -0.5852586292
 O    1.3251525716   -1.7536056928   -0.8939177349
 N    2.3839181613    0.2813226666   -0.7698549330
 C    2.3877411040    1.3506771052   -1.7612412592
 C    3.2524334009    0.1382728886   -1.9186473418
 H    0.9849579125    1.5573477231    0.9568242989
 H   -0.2521436532   -1.8668079412    1.2155017900
 H   -0.9867997870   -0.3648087291    1.9940841182
 H   -2.0265144423    0.2726184480   -0.2047412059
 H   -1.2957929566   -1.2254111660   -0.9877359338
 H    1.5176187857    1.4398930138   -2.4052038340
 H    2.8175130169    2.2945042188   -1.4389115168
 H    4.3166516896    0.2074872487   -1.7148405245
 H    2.9650231800   -0.6097195206   -2.6520218752