20

 C    0.2123255386    1.4932467740   -0.3537632307
 C    1.6656900212    1.3821067543    0.1411137093
 C    1.2058943171    0.0469008601    0.7615481428
 C    1.8573565874   -1.3285913078    0.4789107602
 N    1.9595165518   -1.6444133116    1.9363004080
 C    3.2443623341   -1.1775799637    2.5516747716
 C    2.5952154630    0.1530756001    3.0191653567
 C    1.3267503951   -0.3032316844    2.2655227346
 O   -0.1308277681    0.2318774187    0.2563864434
 H   -0.3732201849    2.3217482481    0.0621494413
 H    0.0736770341    1.4717087992   -1.4410858244
 H    2.4247062048    1.2904659295   -0.6383276048
 H    1.9785813508    2.1443354629    0.8575328481
 H    1.1728218951   -2.0075802069   -0.0395501356
 H    2.8165821866   -1.3130758737   -0.0531983501
 H    3.5801216333   -1.8391508795    3.3555219097
 H    4.0646424101   -1.0721385571    1.8314582937
 H    2.4587879144    0.2285785559    4.0997447252
 H    3.0624936720    1.0764736374    2.6665361628
 H    0.3736191237   -0.3020249856    2.8018319983