18

 O    0.2546170893    1.2092133455   -0.4773514927
 C    0.1288083857   -0.1244010074   -0.0457640895
 C    0.1818311560   -0.3644826367    1.4925794421
 N   -1.2745396678   -0.6982960334    1.5389610632
 C   -2.1379407387    0.5273504799    1.6264817895
 C   -2.5239231471    0.3900748359    0.1219387724
 C   -2.6590048058    1.5568283026   -0.7225500579
 C   -2.8484068620    2.5228369359   -1.4126575543
 C   -1.3430046456   -0.6136784817    0.0241993571
 H    1.1786165230    1.4663434594   -0.3929455982
 H    0.7763010737   -0.7935210343   -0.6298514453
 H    0.7937446967   -1.2209714914    1.7941571475
 H    0.4669899487    0.5089171412    2.0888817247
 H   -2.9582789453    0.4357049943    2.3429582627
 H   -1.5754684164    1.4432119200    1.8337776395
 H   -3.4436115278   -0.2009077125    0.0476473509
 H   -2.9780850800    3.3795144708   -2.0259394263
 H   -1.5415742766   -1.5372283381   -0.5258878756