16

 C   -0.0672792878    1.4169157658   -0.0023447254
 N    0.0117005845   -0.0311058445    0.0250071739
 N   -0.0226406538   -0.7333466797   -1.1091524442
 C   -0.0018891385   -2.0145408278   -0.7369661636
 C    0.0411807433   -2.1643586545    0.6615826460
 C    0.0874007492   -3.4172730145    1.4770923415
 C    0.0453231137   -0.8504774103    1.1226565302
 C    0.0838557762   -0.3516805494    2.4438636840
 N    0.1161687646    0.0584529817    3.5275629535
 H    0.5126267118    1.8310864533    0.8243818925
 H    0.3448976151    1.7548888317   -0.9526028330
 H   -1.1048717303    1.7549340360    0.0837094546
 H   -0.0122582885   -2.7895940181   -1.4893797810
 H    1.0092435133   -3.9799245883    1.2936804425
 H    0.0411397272   -3.1930999242    2.5456565855
 H   -0.7504744798   -4.0793685172    1.2354666532