14

 C   -0.0053833335    1.5251222786    0.1975448840
 N    1.3210800824    1.9740349511   -0.2357986712
 C    2.3387647355    1.1610456533   -0.6667808908
 N    2.3263584410   -0.1206876161   -0.7712906638
 C    1.1115389035   -0.6708400706   -0.3862818405
 C    0.0218107159    0.0413623614    0.0617160533
 N   -0.9084669457   -0.9029363144    0.3117205045
 N   -0.4245691978   -2.1416539751    0.0342558204
 N    0.7978199522   -1.9986262350   -0.3879670890
 H   -0.2015778310    1.8436157552    1.2349527807
 H   -0.7914848958    1.9846754281   -0.4245475653
 H    1.4994862312    2.9637338062   -0.2153028717
 H    3.2393038362    1.7081918325   -0.9402492635
 H   -1.8515334641   -0.8144222252    0.6548750329