14

 N    0.0806799521    1.3409650421    0.1633198386
 C   -0.0743020515    0.0146467613    0.0518302350
 C   -1.1737600519   -0.7954887522    0.0641267444
 C   -0.7682178078   -2.1794327260   -0.1291049402
 O   -1.4451169182   -3.1535617525   -0.3939406619
 C    0.7660621427   -2.2643065829   -0.0090900518
 O    1.3399042832   -3.1338046712   -0.9399095363
 C    1.1733983334   -0.8052700365   -0.1605766530
 O    2.2517420823   -0.3225896840   -0.4004211972
 H    1.0029770106    1.7059796176   -0.0252148786
 H   -0.6982801167    1.9757195873    0.1752354675
 H   -2.2083387283   -0.4870164481    0.1437134503
 H    1.0052268054   -2.5601299914    1.0300501437
 H    0.6509471746   -3.7882077434   -1.1297972505