16

 C   -0.0192730845    1.4329524857   -0.0037463821
 N   -0.0060487744   -0.0259412145    0.0124976905
 N   -0.0362725689   -0.6183133855   -1.1947953367
 N   -0.0273182700   -1.8921279507   -1.2684833079
 C    0.0130529675   -2.6349139417   -0.1130931207
 C    0.0453387291   -2.1173735514    1.1425874876
 C    0.0892321388   -2.9255300108    2.3997462405
 C    0.0362213228   -0.6717591125    1.2634486179
 O    0.0607991076   -0.0241828293    2.2962606156
 H    0.8758692957    1.8158778006    0.4914808222
 H   -0.0518986491    1.7468654335   -1.0454488426
 H   -0.8911317969    1.8004919238    0.5421119428
 H    0.0174809705   -3.7076311916   -0.2815521580
 H    0.0926699209   -3.9966523714    2.1865875071
 H    0.9796564275   -2.6724423288    2.9850193759
 H   -0.7700534266   -2.6882362555    3.0359723878