23

 C   -0.0791888659    1.3612537181    0.1428987200
 O   -0.1118504513   -0.0388002353   -0.0077933921
 C    0.6578626775   -0.5069077814   -1.1027129289
 C    0.6180820865   -2.0300670899   -1.0430829025
 O    1.1033278480   -2.4582127320    0.2097380891
 C   -0.7436917128   -2.6186950484   -1.5266734066
 C   -0.0908020840   -2.8925913959   -2.9075863347
 C    1.3057730843   -2.7472894240   -2.2388206224
 C    2.4539689264   -2.0971482022   -2.9975709472
 H    0.9453541561    1.7293867934    0.3072978512
 H   -0.4907884356    1.8733498186   -0.7403342294
 H   -0.6907748252    1.6118828706    1.0130511872
 H    0.2491859598   -0.1267836965   -2.0521311649
 H    1.6971514213   -0.1528931452   -1.0120826889
 H    0.7188651684   -1.8602370981    0.8638495426
 H   -0.9589293406   -3.5422034949   -0.9843862128
 H   -1.6166906407   -1.9637826555   -1.4854328867
 H   -0.3151384559   -3.8451263954   -3.3921591890
 H   -0.2846833317   -2.0891406058   -3.6255797224
 H    1.6224889276   -3.7241525563   -1.8576070203
 H    2.1712162436   -1.1230057374   -3.4117824725
 H    3.3265577492   -1.9500741139   -2.3519638128
 H    2.7667837648   -2.7282398325   -3.8365628659