20

 C    0.0085842359    1.5681876611   -0.0566380926
 C    1.5719944281    1.4772382825    0.0309526316
 C    1.3631879968    0.0902497417    0.6032693994
 C    1.8739839325   -0.6658720552    1.5651935788
 C    1.0894797626   -1.8350758657    2.1166618388
 C   -0.2637738176   -2.0626821450    1.4039741120
 C   -0.9738619198   -0.7467605336    1.0217672354
 C   -0.0524804892    0.0107457927    0.0720594181
 H   -0.4106732665    2.0593996045    0.8257261795
 H   -0.4190975520    2.0176974784   -0.9558844702
 H    2.0287283125    1.4665393490   -0.9655112267
 H    2.0976325650    2.2124200807    0.6460779565
 H    2.8262265699   -0.4272820503    2.0347490429
 H    1.6846570927   -2.7571157562    2.0725012463
 H    0.9172804521   -1.6572367747    3.1890787063
 H   -0.0941507430   -2.6406036250    0.4863369254
 H   -0.9096967778   -2.6771111251    2.0401788301
 H   -1.9532690997   -0.9553042849    0.5767368182
 H   -1.1486961000   -0.1441060230    1.9227346206
 H   -0.0853254825   -0.4389616120   -0.9299621504