17

 O   -0.0751838298    1.4050708833   -0.0211165008
 C    0.0087682057   -0.0160804246   -0.0219703976
 C    0.2221158297   -0.5845883260    1.4189859758
 C   -1.3306481653   -0.6344399123    1.5871148633
 C   -1.4472183670   -0.5560098594    0.0306606946
 C   -1.9135721811   -1.7696493840    2.2686431480
 C   -2.3888764576   -2.7253294204    2.8232543426
 C    0.8973395975   -0.5008942605   -1.0684257407
 C    1.6563598390   -0.8923962589   -1.9152351784
 H    0.8235911085    1.7505401657    0.0234786452
 H    0.6555419973   -1.5859578317    1.4020496849
 H    0.7831028235    0.0549467761    2.1034816928
 H   -1.6867587808    0.2986705850    2.0316534522
 H   -2.1995961596    0.1131579590   -0.3879670705
 H   -1.5278976746   -1.5470039924   -0.4168225423
 H   -2.8111638430   -3.5662643339    3.3148671499
 H    2.3166789877   -1.2405238550   -2.6708940990