19

 C   -0.1066484187    1.4058171710   -0.3412088612
 O    1.0620723585    2.0319550122    0.1969325460
 C    2.0586280173    1.0653227432    0.4729621946
 C    1.5626123394   -0.2388427066   -0.1651198162
 C    0.0375617238   -0.0971244641   -0.0151016715
 C   -0.4545923079   -0.4218351097    1.3762716013
 C    0.0470822340    0.0384513691    2.5232843243
 C    1.2031715319    0.9866232972    2.7449720202
 O    2.3069089618    0.9389025135    1.8547757268
 H   -0.9887439453    1.8640882720    0.1137967160
 H   -0.1441093043    1.5688955551   -1.4282130025
 H    3.0109320765    1.4126416297    0.0593840095
 H    1.8406917674   -0.2610272046   -1.2246614798
 H    1.9812579959   -1.1131723494    0.3328059017
 H   -0.5017636086   -0.7022514560   -0.7472898668
 H   -1.3293130583   -1.0654650038    1.4298409409
 H   -0.4578089425   -0.2422819570    3.4463981479
 H    0.8041733381    2.0121172309    2.7885533672
 H    1.6457669709    0.7796179175    3.7244352416