21

 C    0.4705924204   -0.6012206202    1.6171271912
 C   -0.0105350124   -0.2673103762    0.2015170880
 C   -1.4636980178   -0.6768844693   -0.1016466021
 C   -1.8138624697   -0.5933178421   -1.6108351781
 O   -1.8746120167   -2.0297036647   -1.7173176597
 C   -1.6798898454   -2.1993991942   -0.3019634913
 C   -2.4152319210    0.1119979603    0.7945446453
 C   -3.1246676650   -0.6011995473    1.9296149771
 O   -2.5800556706    1.2934559730    0.5850663673
 H    1.5262314050   -0.3400617183    1.7350458817
 H   -0.0895965717   -0.0472333695    2.3773548653
 H    0.3709711326   -1.6702768032    1.8370259840
 H    0.0725571670    0.8108816198    0.0239663619
 H    0.6361428082   -0.7628335036   -0.5328209657
 H   -2.7739954900   -0.1155710001   -1.8384669058
 H   -1.0373490776   -0.1619670519   -2.2535467580
 H   -0.8148323162   -2.8364569830   -0.0784855880
 H   -2.5658216475   -2.6298085376    0.1819287425
 H   -2.4467658749   -1.2666968002    2.4734591078
 H   -3.5590970990    0.1358965895    2.6062564381
 H   -3.9303375977   -1.2266965712    1.5271621286