17

 C    0.0359051839    1.4832351568    0.0829263372
 C   -0.0241425784   -0.0053166747   -0.0476743195
 C    0.6142241599   -0.9533473022   -1.1072171452
 C    0.0551254689   -1.8198215168    0.0447832539
 O    0.6128385266   -0.8406523462    1.0099589558
 C   -1.2235795494   -0.9752199095    0.0202083545
 C   -2.4979596213   -0.9690208979    0.7352422352
 N   -2.4336662334   -1.1244832030   -0.7536534601
 H    1.0741005694    1.8277424780    0.0784102321
 H   -0.4872519833    1.9606281704   -0.7522223417
 H   -0.4323418045    1.8053306647    1.0180821996
 H    0.1343941115   -1.0303359924   -2.0862661271
 H    1.7033133304   -0.9083549564   -1.1573706216
 H    0.1984381187   -2.8779861817    0.2564563757
 H   -2.8438201878   -1.8518315892    1.2651882662
 H   -2.8601840953   -0.0270340649    1.1399745065
 H   -2.6885261058   -0.2489407849   -1.2062584716