19

 O   -0.7841502451    1.7353863575    0.3820263600
 C   -0.1692048945    0.5190879114    0.0543568877
 C   -0.1386972425   -0.6611268697    0.9985656766
 C   -1.0402478024   -0.6533394501    2.2232598730
 C   -2.4599781648   -0.2610131843    1.7095289872
 C   -2.4770652816   -0.6807618171    0.2082595196
 C   -1.0248985388   -0.6760266351   -0.2433046961
 C   -3.5421594910   -0.8396889050    2.4921579408
 C   -4.4312613988   -1.3299087198    3.1370998818
 H   -0.2115078649    2.2000335489    1.0013563238
 H    0.7103724988    0.6293883922   -0.5807542830
 H    0.7757814303   -1.2432334236    1.0493424676
 H   -1.0645050288   -1.6583035057    2.6564302942
 H   -0.7050895664    0.0287006286    3.0119457604
 H   -2.5393185222    0.8276057091    1.7456860545
 H   -2.8781910093   -1.6943374989    0.1080091433
 H   -3.1158415080   -0.0142369811   -0.3781940315
 H   -0.7700893064   -1.2709859363   -1.1137873490
 H   -5.2198372737   -1.7546177510    3.7069376793