21

 C    0.0425846342    1.5361448711    0.0193863571
 C   -0.0610770300    0.0079747369   -0.0028129154
 C   -1.5408284245   -0.4106944437   -0.0293168622
 C    0.6838739156   -0.5359499882   -1.2422413834
 N    0.8879107167   -1.9753101453   -1.1465093523
 C    0.9992696713   -2.7044923311    0.0032699088
 O    1.2995303013   -3.8845522938    0.0010157852
 C    0.6511734223   -1.9606138491    1.2943913390
 N    0.5714640688   -0.5020257073    1.2269236619
 H    1.0876613377    1.8598925955    0.0865166219
 H   -0.3852832596    1.9732816581   -0.8881950851
 H   -0.4920122708    1.9366483660    0.8845286705
 H   -2.0590029132    0.0816172873   -0.8578263026
 H   -1.6629237558   -1.4889788883   -0.1595167167
 H   -2.0257461416   -0.1196626764    0.9062919321
 H    0.1156603879   -0.3226681221   -2.1556830841
 H    1.6489105781   -0.0133025872   -1.3353360429
 H    1.1466878273   -2.4829844227   -1.9807624923
 H   -0.3058082121   -2.3728686855    1.6391907445
 H    1.3890435218   -2.2508103579    2.0462495278
 H    1.5086829746   -0.1153559164    1.2888597081