21

 C    0.0375836848    1.5653385468   -0.0617351930
 C    0.0322671353    0.0351640314   -0.0819537341
 C   -1.3813622121   -0.5411064797    0.0739815133
 N   -1.4182613426   -1.9943134376    0.0450309556
 C   -1.4570594261   -2.7761407118   -1.0935747224
 C   -1.4150159058   -4.0705379449   -0.6561713527
 N   -1.3478572839   -4.1119512044    0.7163120184
 C   -1.3477730493   -2.8546024272    1.1118881320
 C   -1.2921424284   -2.4076620703    2.5353981865
 H    1.0522693431    1.9565724562   -0.1767580564
 H   -0.5714473897    1.9768504181   -0.8742812548
 H   -0.3633234657    1.9533842954    0.8812340459
 H    0.4616866285   -0.3336241438   -1.0206603229
 H    0.6668662757   -0.3560645996    0.7218223136
 H   -1.8221755636   -0.2050125810    1.0176953408
 H   -2.0287700425   -0.1683053960   -0.7273654607
 H   -1.5185388382   -2.3357616604   -2.0755864813
 H   -1.4358183647   -4.9737021947   -1.2471338840
 H   -0.4069533199   -1.7972366197    2.7493156059
 H   -2.1731514521   -1.8207666508    2.8220152178
 H   -1.2548847127   -3.2968406858    3.1658380227