19

 C   -0.0178512834    1.4792209449    0.0102823301
 C    0.0017132268    0.0226571296    0.0020915631
 C    0.0179392959   -1.1819367421   -0.0046371952
 C    0.0379221075   -2.6506017818   -0.0126339711
 C   -1.4096691978   -3.1834855690   -0.1082940844
 C    0.8526803580   -3.1465348611   -1.2287462946
 C    0.6919367574   -3.1623150862    1.2909013065
 H    0.5558583716    1.8912759075   -0.8275357246
 H   -1.0402535952    1.8655829306   -0.0690052181
 H    0.4147661349    1.8794502910    0.9341508330
 H   -1.8946111881   -2.8335336917   -1.0240659186
 H   -1.4101695450   -4.2790642044   -0.1150994581
 H   -2.0073393188   -2.8444451088    0.7426481313
 H    1.8826087992   -2.7811704503   -1.1836539983
 H    0.8760573884   -4.2417242384   -1.2476602779
 H    0.4092026492   -2.7956554139   -2.1649494615
 H    0.1326088272   -2.8230578761    2.1674497817
 H    0.7138814216   -4.2576699357    1.2988462131
 H    1.7188360905   -2.7969646143    1.3817925534