19

 C   -0.2108468267    1.5272218682    0.0133801413
 C    0.0470538987    0.0125273099    0.0277377097
 C    0.7546259159   -0.4735983935   -1.2243031460
 C    1.8766809686   -1.1842640158   -1.1079587871
 C    2.3492529701   -1.4628463101    0.2987304133
 O    1.1937642105   -1.8505129497    1.1199840518
 C    0.8866274050   -0.4248904740    1.2397023766
 C    2.4048161984   -0.1341097606    1.1015948454
 O    3.1009935678   -0.2067328147    2.3176956945
 H    0.7241329765    2.0932652127   -0.0454528970
 H   -0.8245285468    1.8086783900   -0.8481000908
 H   -0.7418152212    1.8418405559    0.9181509346
 H   -0.9271931697   -0.4937453117    0.0996486678
 H    0.3173886781   -0.2332868874   -2.1898728784
 H    2.4425028693   -1.5452044209   -1.9600183762
 H    3.1783692324   -2.1680340611    0.3856454691
 H    0.4185727155   -0.1793719629    2.1986588130
 H    2.7411975305    0.7653196660    0.5844203035
 H    2.7882765869   -1.0005204802    2.7699508252