14

 N   -0.0095588303    1.3740477713    0.0164658728
 C   -0.1135506877   -0.0095487644    0.0144839521
 C   -1.1932744492   -0.8320555152    0.0836737262
 C   -0.6946042148   -2.1841597428    0.0400502966
 C    0.6734155159   -2.0324790435   -0.0533898591
 N    1.2599453963   -3.2421235607   -0.1019891543
 N    0.3040859424   -4.2232041974   -0.0429154223
 C   -0.8649085423   -3.5915328813    0.0422771237
 O    1.0971539069   -0.7636872893   -0.0740976085
 H    0.5201921809    1.7286516362    0.8066530884
 H    0.4065697303    1.7395546688   -0.8344281637
 H   -2.2103973803   -0.4816631248    0.1563317275
 H    2.2288223732   -3.4972008602   -0.1704338868
 H   -1.7699245812   -4.1775939766    0.1008162374