19

 C    0.2032202551    1.5056392067    0.2484690200
 C    0.0193182556    0.0178407981    0.0218844973
 C    0.7857553032   -0.7196833514   -1.1575736850
 O    2.2281105235   -0.5224991068   -1.1976952654
 C    2.5049917982   -1.7772544795   -0.4712378041
 C    3.0763459825   -1.5447734567    0.9445864709
 C    1.9225407943   -0.7657417878    1.5746213012
 C    0.7945629953   -0.9755126142    0.8850631104
 C    0.9999393316   -1.9566137306   -0.2735353449
 H    1.2675623765    1.7577229919    0.2303197720
 H   -0.3034842302    2.0860848286   -0.5298281829
 H   -0.2080265411    1.8155475109    1.2148897773
 H   -1.0398288183   -0.2440232823   -0.1072084403
 H    0.3394788474   -0.6919914826   -2.1563879663
 H    3.0713369450   -2.4676020228   -1.1052377616
 H    3.3374885943   -2.5007468663    1.4210250993
 H    3.9862346758   -0.9348700951    0.9258910333
 H    2.0985990712    0.0838699079    2.2254126108
 H    0.4590839202   -2.8985066581   -0.3332234620