17

 O   -0.0581403633    1.5221604246    0.0326414095
 C   -0.0940852213    0.1301222885   -0.0106728538
 C    0.1001915012   -0.6270212524    1.3184796230
 C   -0.9063351983    0.0398734511    2.2740747328
 C   -2.1362929601    0.0440182571    1.3129140894
 C   -1.4430678669   -0.6452619803    0.1093666629
 O   -0.6876074983   -1.7195655159    0.7395531770
 C   -2.2567694641   -1.0376014762   -1.0777389617
 O   -2.5888759751   -0.2471914401   -1.9282031119
 H   -0.3141501852    1.8579224219   -0.8332225464
 H    0.5217505997   -0.3009753492   -0.8070345149
 H    1.0759548084   -0.9357761635    1.6905335781
 H   -1.0668942456   -0.5692334351    3.1651109020
 H   -0.5966919437    1.0440482872    2.5689929174
 H   -2.9740500734   -0.5505233780    1.6817480489
 H   -2.4829766102    1.0463376179    1.0577378339
 H   -2.5332767038   -2.1136446574   -1.1286021162