18

 C   -0.5388149537    0.8867165976    0.9943149072
 O   -0.0954574830   -0.4452726444    0.8578017160
 C    1.2725099707   -0.5466567259    0.5395840648
 C    1.6483375426   -2.0230010647    0.5572885525
 N    1.5908866906   -2.5945472856    1.8900303242
 C    0.5204983538   -2.9736104014    2.6183905292
 N    0.8959914447   -3.3804700400    3.8178115526
 C    2.2460421107   -3.2158731987    3.7720938746
 N    2.7194178176   -2.7406483951    2.6312812487
 H   -0.4123542010    1.4544154619    0.0595860592
 H   -1.6009642269    0.8514294310    1.2460513769
 H    0.0014291515    1.4136161933    1.7952042628
 H    1.4777191376   -0.1317867681   -0.4616172697
 H    1.8906200103    0.0045342016    1.2658394563
 H    0.9662015187   -2.5766320576   -0.0945790716
 H    2.6693956823   -2.1592118877    0.1978197265
 H   -0.4871672810   -2.9258727447    2.2367327262
 H    2.8989473344   -3.4579080016    4.5975017836