16

 C   -0.0408043489    1.5907445857    0.0098850377
 C    1.4701239939    1.2541077397   -0.0057090073
 C    1.1557608886    0.1508281764    1.0479342122
 O    2.0704583482   -0.9164182407    1.1448527257
 C    2.0535420454   -1.6947369542   -0.0268366152
 O    2.0491430070   -0.9039064894   -1.1902311200
 C    1.1364718927    0.1621521685   -1.0652014689
 C   -0.0068469680    0.0425444524    0.0012791688
 H   -0.4265700980    2.0590110952    0.9186594209
 H   -0.4430473309    2.0686846006   -0.8866268746
 H    2.3168439715    1.9399192032   -0.0097630553
 H    0.9037341753    0.4747527700    2.0601115813
 H    2.9596273810   -2.3040667953   -0.0383719290
 H    1.1605464267   -2.3429050625   -0.0221573947
 H    0.8660456432    0.4968800716   -2.0690811426
 H   -0.8621827678   -0.6335488512    0.0054636510