21

 C   -0.0393098027    1.5614291601    0.0216498467
 C   -0.0870821528    0.0247887838    0.0235577520
 C   -1.5483066304   -0.4462323306   -0.0216591805
 C    0.7541203477   -0.5606104466   -1.1350797410
 C    2.2261706443   -0.0827739369   -1.1912371363
 C    3.0305895637   -1.3332952393   -1.4286230773
 C    2.2879175540   -2.4439016858   -1.3958409450
 C    0.8676195930   -2.1057646278   -1.1520802208
 O   -0.0364118333   -2.8999405646   -1.0107485160
 H    0.9764713668    1.9547134773    0.1226532003
 H   -0.4614439101    1.9604447062   -0.9087261809
 H   -0.6324516674    1.9622246324    0.8500003958
 H    0.3603178351   -0.3285811677    0.9644458465
 H   -2.0392535113   -0.0826779234   -0.9330667075
 H   -1.6218655168   -1.5332389187   -0.0141198443
 H   -2.1013762836   -0.0432308084    0.8333600830
 H    0.2562110974   -0.2909770531   -2.0777749034
 H    2.4055988562    0.6692159538   -1.9679101569
 H    2.5384528511    0.3813571066   -0.2464956882
 H    4.1041873265   -1.3012465371   -1.5841023106
 H    2.6250258026   -3.4663131102   -1.5080366055