25

 C   -0.1004124780    1.6657808198   -0.1269934002
 C   -0.1459792758    0.1358775250   -0.1137768169
 C    0.7806028439   -0.4980943165   -1.1563103740
 C    0.7761413952   -2.0268641495   -1.1424754257
 C    1.6156926825   -2.6183301649   -2.2772356785
 O    1.2560825642   -2.4230498927    0.1448599442
 C    0.9782706950   -3.7384699110    0.5063653925
 C    2.0238895366   -4.8141407082    0.3333099308
 C    1.6986523585   -4.2596432060    1.7068948806
 H    0.9097548929    2.0335834689    0.0855395079
 H   -0.3972473510    2.0662069842   -1.1032405608
 H   -0.7729151911    2.0912962727    0.6245762214
 H    0.1311209814   -0.2395292221    0.8764282202
 H   -1.1757941356   -0.2014375044   -0.2944126534
 H    0.4965909928   -0.1612175898   -2.1616342659
 H    1.8116927598   -0.1573815538   -0.9919170181
 H   -0.2644355100   -2.3800388141   -1.2493040343
 H    1.6014258742   -3.7106369474   -2.2554899462
 H    1.2253431035   -2.2937935663   -3.2473232787
 H    2.6557099634   -2.2855136111   -2.1955649565
 H   -0.0662958423   -4.0243057169    0.3729365642
 H    1.7050791256   -5.8207387644    0.0837294245
 H    2.9682125522   -4.5118973125   -0.1042108073
 H    2.4278521357   -3.5938562903    2.1544332439
 H    1.1553501264   -4.8793352187    2.4111935862