15

 C    0.0579589842    1.5451878611    0.0194166977
 C   -0.0102489283    0.0521960224    0.0131936231
 C   -1.0798402947   -0.7787890814    0.0357920590
 N   -2.4137856942   -0.5739339325    0.0990410094
 C   -0.6065439663   -2.2145285540    0.0111859431
 O   -1.3162638617   -3.1944745959   -0.0064376269
 N    0.7641680347   -2.1425824099   -0.0001228868
 C    1.2010030203   -0.7921559114   -0.0137770967
 O    2.3617013386   -0.4588420104   -0.0440673287
 H    1.1033604580    1.8588408073   -0.0319439163
 H   -0.4691024941    1.9863093758   -0.8358236870
 H   -0.3798591044    1.9735356099    0.9293156157
 H   -2.8076772333    0.3305746102   -0.0928167925
 H   -2.9983918028   -1.3838280129   -0.0431116633
 H    1.3848224440   -2.9341432184   -0.0409073898