16

 O    0.0679201091    0.5924732881   -1.2811604137
 C    0.0104897636    1.2095787642   -0.2496904025
 C   -1.2711359027    1.9525760252    0.1513407004
 N   -1.3841278406    2.2936667991    1.5590098093
 C   -0.6750911105    3.2836271966    2.2105864212
 O   -1.0977108676    3.8040609372    3.2279709382
 C    0.6532557979    3.6392278738    1.6451723530
 C    1.4853288745    2.7912878122    1.0316001296
 C    1.1883730426    1.3471446138    0.7135018579
 H   -1.3285003736    2.8416583374   -0.4936368482
 H   -2.1118652686    1.3127902881   -0.1230514584
 H   -2.2792245628    2.1199377325    1.9940871339
 H    0.9713722369    4.6493561228    1.8794407508
 H    2.4628830823    3.1536724007    0.7251515780
 H    0.9067499588    0.8132523635    1.6310856305
 H    2.0480241808    0.8431536749    0.2712948600