17

 C    0.1023046400    1.4946619879    0.3085890421
 O    1.4831927096    1.8299487880    0.3019236207
 C    2.2355254176    0.9125719757   -0.4888420976
 O    3.3433256880    0.4387625982    0.2182320608
 C    2.9476645427   -0.6640433840    1.0421043100
 C    1.6569812102   -1.2242854742    0.4286309635
 O    0.4514431605   -0.8136955599    1.1231048493
 C    0.0264337686    0.0069420154    0.0089050558
 C    1.3227039880   -0.3020879043   -0.7573062019
 H   -0.3113047379    1.7410205519    1.2912499052
 H   -0.4471738534    2.0628139999   -0.4592751161
 H    2.6230711665    1.4272179523   -1.3737485498
 H    3.7715173693   -1.3839082179    1.0409027973
 H    2.7503363970   -0.3404838444    2.0707908186
 H    1.6717487325   -2.3059777712    0.2689523115
 H   -0.9335892854   -0.3229632476   -0.3977503262
 H    1.3127981661   -0.6760747260   -1.7775225134