17

 N   -0.1366831771    1.3995328742   -0.2671150178
 C   -0.1035383005    0.0465710921   -0.1299485528
 N   -1.1224885024   -0.7313507036   -0.1853442519
 C   -0.6469135745   -2.1018855374    0.0834207310
 C    0.8925332262   -2.0965538683   -0.0348507727
 C    1.2430899203   -0.6126623391    0.1630939399
 O    2.3088978883   -0.0912395959   -0.6156074342
 C   -1.1448868338   -2.5034493361    1.4686764761
 O   -0.4646651225   -2.9962429546    2.3324200695
 H    0.7331771223    1.8350674659   -0.5319263568
 H   -0.9804638640    1.8088865460   -0.6361951323
 H   -1.1230978976   -2.7927560366   -0.6280043716
 H    1.3630477935   -2.7534896974    0.6972175098
 H    1.1989538425   -2.4138759585   -1.0379407890
 H    1.5279677993   -0.4007872198    1.1999935579
 H    2.1745557466   -0.3752183915   -1.5272155135
 H   -2.2204475967   -2.2763659893    1.6315251484