17

 C   -0.0501224526    1.4588487457   -0.0442082454
 C    1.4974184390    1.5207077968    0.0712693362
 C    2.0016244257    1.9587780958    1.4435389884
 O    1.1211739388    1.5111831112    2.4626955383
 C    0.8780959416    0.1146654712    2.4657268167
 C    0.7420854990   -0.5356361132    1.1010580109
 C    1.4588855424   -0.0085092894   -0.0716354977
 N   -0.0580932029   -0.0490935862   -0.0499417401
 H   -0.6342919064    1.9181862322    0.7559213138
 H   -0.4174066153    1.8024358658   -1.0134635985
 H    2.0032635207    2.0537315068   -0.7351428379
 H    3.0262638714    1.5843029812    1.6098576901
 H    2.0185022903    3.0491140043    1.5367673771
 H    1.6963759873   -0.4144261284    2.9863675092
 H   -0.0324418232   -0.0264914533    3.0582407867
 H    0.6664983412   -1.6188041366    1.1715534650
 H    2.0483993828   -0.6101861439   -0.7559589726