20

 C   -0.1810701194    1.3896034216   -0.0880798059
 C    0.0358247489   -0.1021966063   -0.1562969707
 C    0.9186136249   -0.6861924545   -1.2063295757
 N    1.3805734415   -0.5370522682    0.2562422018
 C    1.4208111638   -2.0765233739    0.3139493985
 C    0.5853438690   -3.0700631101    1.1335846416
 C    0.2228821856   -4.1295161702    0.0302307555
 C    0.1551292025   -3.2991407238   -1.2580341311
 C    0.8334726826   -2.1755220084   -1.0540433825
 H    0.7143353831    1.9261185034   -0.4130184637
 H   -1.0204825323    1.6910983775   -0.7235183637
 H   -0.4017746574    1.6969033283    0.9394754820
 H   -0.8169876464   -0.7048607265    0.1530162013
 H    1.3558883841   -0.0982963310   -2.0054234935
 H    2.4890638894   -2.3205183431    0.3508095189
 H    1.1065065676   -3.5044350210    1.9908830313
 H   -0.3356569224   -2.6013393929    1.4973383303
 H    0.9878565008   -4.9172574156   -0.0218666105
 H   -0.7264007023   -4.6348363274    0.2379259889
 H   -0.4270934235   -3.5933192881   -2.1231955130