19

 C    0.4102975304    1.3714877193    0.0722178136
 C   -0.2732002968    0.0234836667   -0.0788168275
 O   -0.9453730941   -0.4385671695    0.8220453602
 C   -0.0854439837   -0.7235229644   -1.3603350779
 C   -1.1644769965   -1.7396114678   -1.6952903394
 C    0.1753875910   -2.2483508722   -1.2630151835
 C    1.1437757981   -2.5394018507   -2.3558179892
 C    1.4356533768   -1.4506369384   -3.0704421724
 C    0.7672512598   -0.2060737654   -2.5235630064
 H    1.4998455709    1.2559241867    0.0452557351
 H    0.1401932338    2.0455764041   -0.7477494765
 H    0.1189233537    1.8117222465    1.0261479849
 H   -1.9705134183   -1.7939358026   -0.9726685045
 H   -1.4394532572   -1.8519527260   -2.7389100086
 H    0.2593105114   -2.7144783912   -0.2878643424
 H    1.5236737979   -3.5370230676   -2.5438666750
 H    2.0675545433   -1.4270944937   -3.9509007085
 H    0.1632355798    0.3050287095   -3.2847861615
 H    1.5161160197    0.5231453366   -2.1900330606