17

 C   -0.0705542062    1.5283309128   -0.0143389658
 C   -0.0125427405    0.0747243006    0.0284383707
 C    0.0377660839   -1.1274434835    0.0841602688
 C    0.1091485697   -2.5832668838    0.0938279676
 C   -1.3080221685   -3.2196934742    0.0035728870
 C   -1.3095376397   -4.7123200698    0.2764257682
 O   -2.1723127961   -5.2740233236    0.8994291843
 C    0.9560535083   -3.0460817110   -1.0990015808
 O    1.8512137388   -3.8430515884   -1.0270143430
 H    0.7459343081    1.9390055281   -0.6179598546
 H   -1.0142165262    1.8763533372   -0.4478401917
 H    0.0122906842    1.9550309652    0.9909823803
 H    0.6120803822   -2.9404119241    1.0001781317
 H   -1.9926267935   -2.7320054587    0.7010018690
 H   -1.7076584730   -3.0575068748   -1.0081812989
 H   -0.4498982703   -5.2748098415   -0.1504021599
 H    0.6564057690   -2.5781019006   -2.0633808530