20

 C    0.1692729398    1.4378064597   -0.3747739386
 N    1.3265527001    0.5605190166   -0.0859410176
 C   -0.0195556527    0.0126544416   -0.0462840833
 C   -0.6396133616   -0.6721421988    1.1624396238
 O   -1.2074953039   -1.6877092595    0.3018253266
 C   -0.6299169439   -1.1182917585   -0.8844669584
 C   -1.5394326271   -0.8286639939   -2.1001672060
 C   -0.3877945928   -1.3133362256   -3.0248513612
 C    0.2604377098   -2.0004661507   -1.7906321802
 H   -0.0208882026    2.2034654113    0.3730570766
 H   -0.0046954605    1.7549672666   -1.4003918544
 H    1.7960108360    0.2981067372   -0.9502799395
 H    0.0818483774   -1.0855444013    1.8767655153
 H   -1.4129239525   -0.1113059490    1.7008069037
 H   -2.3837716151   -1.5238514128   -2.1018579186
 H   -1.9175372068    0.1897065271   -2.2202563693
 H   -0.6584294943   -1.9527465312   -3.8667627041
 H    0.2167084307   -0.4840345106   -3.4033916490
 H    1.3448852223   -1.9389233075   -1.6616202736
 H   -0.0442967023   -3.0463974608   -1.6964542725