17

 C    0.1073377063    1.5124338152    0.0577836618
 C   -0.0422970063    0.0323030275   -0.0226519092
 C   -1.1597279605   -0.7378179639    0.0193974792
 C   -2.5961565562   -0.3412329015    0.1262520956
 C   -0.7331905777   -2.1367320774   -0.0864050509
 O   -1.4111474485   -3.1387288560   -0.1106147120
 C    0.8067115764   -2.0949661333   -0.1684852634
 N    1.5606090673   -3.1135135248   -0.1883395464
 N    1.1186901252   -0.7357959417   -0.2046676283
 H    0.7633790190    1.7917587913    0.8918838049
 H    0.5650202858    1.9043002501   -0.8582525307
 H   -0.8552112348    2.0031113204    0.2022598127
 H   -3.1627138384   -0.6870598146   -0.7457022852
 H   -3.0627958971   -0.8048244600    1.0023295238
 H   -2.7250736294    0.7411191714    0.2059631542
 H    2.5495310181   -2.8539377937   -0.2418198135
 H    2.0332696809   -0.3825217092    0.0277124974