16

 O   -0.0454522734    1.4140741902    0.0054732894
 C    0.0144347447    0.0035859487    0.0244743289
 C    0.7756876599   -0.5708980309    1.2196704665
 N    0.5883319440   -2.0120538658    1.3649449951
 C   -0.4136668141   -2.5380463040    0.8055861780
 O   -1.4062891151   -1.9610196368    0.0739650750
 C   -1.4327860472   -0.5180855419    0.0735987357
 C   -2.1866274543   -0.0205912508    1.2218843894
 C   -2.8146440479    0.3721386790    2.1671309158
 H    0.8553801127    1.7532457140   -0.0027763509
 H    0.4527043705   -0.3896669276   -0.9062597083
 H    1.8501791814   -0.3745626666    1.1183690099
 H    0.4425562999   -0.0638854406    2.1337351789
 H   -0.5825141980   -3.6118166187    0.8556489245
 H   -1.9500766232   -0.2410330394   -0.8494137632
 H   -3.3710409399    0.7249855710    3.0004370452