19

 C    0.1459156763    1.4980921240   -0.0497202698
 C    0.0485919502   -0.0111547316   -0.0089195668
 C   -0.8466385134   -0.6581757202    1.0462893635
 C    0.6403377875   -0.7905566381    1.1621705776
 C    1.3083055958   -2.1322858870    0.9335390367
 C    0.9400104476   -2.7810718617   -0.3689767582
 C    0.3628875454   -2.1324385459   -1.3861756524
 C    0.0548649334   -0.6845243191   -1.3478935539
 O   -0.1648754794   -0.0633724564   -2.3731153802
 H    1.0872942357    1.8202668170   -0.5061776908
 H   -0.6664900646    1.9179839321   -0.6482577562
 H    0.0920575865    1.9187119091    0.9589682837
 H   -1.3589350271    0.0178705448    1.7222283288
 H   -1.4218727170   -1.5312905625    0.7580971969
 H    1.1132908768   -0.1771678434    1.9237053410
 H    2.4024089454   -2.0205069748    0.9638728773
 H    1.0681318159   -2.8143555555    1.7611638229
 H    1.1987290933   -3.8322343750   -0.4783212466
 H    0.1598555819   -2.6217939359   -2.3335022135