17

 O    0.4968070460    0.7476173503   -0.9743848036
 C    0.0221516791   -0.1787176606    0.0025009237
 C    0.5803459278    0.1070033805    1.3695096183
 C   -0.1093123694   -0.0967738801    2.4899643134
 C   -1.5210958121   -0.6198577656    2.4881990877
 N   -2.2623881424   -0.4772282911    1.2304330039
 C   -2.2869520483    0.8505657537    0.6236955228
 C   -1.4986354258   -0.2516371825   -0.0013543239
 H    0.1194258099    1.6069389340   -0.7543259076
 H    0.4147343989   -1.1436477165   -0.3459658783
 H    1.6016696547    0.4777120636    1.3885214819
 H    0.3416766098    0.1017521055    3.4596647308
 H   -1.5170874136   -1.6888184581    2.7455314611
 H   -2.1076366227   -0.1264364672    3.2734895212
 H   -3.2405219598    1.1523196277    0.1992176106
 H   -1.7312502493    1.6473949289    1.1157126037
 H   -1.9164285926   -0.7452128725   -0.8761293056