20

 C    0.3768298081    1.6691004979    0.1350329710
 O    1.6833933520    1.0607436514    0.1401417453
 C    1.1207245044   -0.2634963328    0.0709647734
 C   -0.2962415756    0.3246887928   -0.2088620636
 N   -1.4571026522   -0.0375192420    0.5630833951
 C   -2.1159985523   -1.2676627850    0.2062971263
 C   -1.6215316357   -2.6630833594    0.6965657021
 O   -2.9355188081   -2.9810008258    1.1939193824
 C   -3.3915142671   -1.6283595236    0.9947688000
 H    0.0935565199    2.0532245194    1.1264598553
 H    0.2962464718    2.4802583790   -0.5964393714
 H    1.5898240371   -0.8712115719   -0.7115787619
 H    1.1948011682   -0.7943548912    1.0323692396
 H   -0.5563132809    0.2525202391   -1.2691074471
 H   -1.2574275371   -0.0061285186    1.5587156706
 H   -2.2865960016   -1.2615121900   -0.8743622163
 H   -1.2799265343   -3.3823361838   -0.0569115816
 H   -0.8765118550   -2.6068689657    1.5048858941
 H   -3.4840596937   -1.0773542017    1.9426880797
 H   -4.3480179778   -1.5836598082    0.4631436769