18

 C   -0.0704452458    1.3456618897   -0.2834233567
 C   -0.0546122683   -0.1218452679    0.0490503443
 O    1.2295258628   -0.7873113689    0.0104571079
 C    0.5883815365   -0.6588704573    1.2502399040
 C    1.1810218708    0.0222124953    2.4851067400
 N    0.4974091372   -0.9990744596    3.3242975718
 C    0.1886126851   -1.8528702345    2.1541252771
 C   -1.2569790760   -2.2900645109    2.0628618411
 O   -1.6651008109   -3.1127442168    1.2832018009
 H    0.7487495681    1.8716085176    0.2137386460
 H    0.0314407850    1.4950271550   -1.3630172896
 H   -1.0182887194    1.7960782926    0.0301363175
 H   -0.8540105482   -0.7185751319   -0.3919392954
 H    2.2773412288   -0.0320259227    2.4852789677
 H    0.8739063029    1.0525232416    2.6949275440
 H    1.0841217079   -1.4350804119    4.0254378197
 H    0.8506186170   -2.7106964812    1.9795700352
 H   -1.9281815034   -1.7439736682    2.7637916645