18

 C    0.4585733292    1.4058236735   -0.2225636834
 C    0.0855950971   -0.0291811860    0.1030727767
 O    0.8023960178   -1.0166563414   -0.6997591369
 C    1.3697133822   -1.6703877547    0.4748119656
 C    2.8924045165   -1.6407905516    0.4146497419
 O    3.3429851112   -2.2850160326   -0.7584175203
 C    0.6618605230   -0.6672783250    1.3485434445
 N    0.6346057186   -0.5035703593    2.6001435229
 O   -0.1738874386    0.5926982982    2.9475678667
 H    1.5326702554    1.5705617430   -0.1031976765
 H    0.1833916206    1.6356882757   -1.2563794639
 H   -0.0771075542    2.0866679020    0.4445718772
 H   -0.9993311669   -0.1749115692    0.0091362655
 H    1.0131264950   -2.7050078914    0.5560817670
 H    3.2409629549   -0.5978078070    0.4687658097
 H    3.3110801018   -2.1819168836    1.2692198635
 H    2.8800930191   -1.8595041836   -1.4907899062
 H   -0.1073431427    0.6003692930    3.9086586359