21

 C   -0.1442057186    1.5782766958   -0.1402753272
 C   -0.1382046634    0.0443164016   -0.1262679334
 C    0.7933332890   -0.5316295426   -1.1626836727
 C    2.3353432171   -0.4319675299   -0.9952388251
 C    2.4682785134   -1.9496497903   -1.3459160610
 C    0.9320027888   -2.0377580758   -1.5405965073
 O    0.2200294190   -3.0266580569   -0.8584901620
 C    0.4275932409   -1.5970560157   -2.9293886226
 O    0.4031859953   -0.2085321973   -2.5255635077
 H    0.8447850523    1.9839818503    0.0986145934
 H   -0.4297625831    1.9493403054   -1.1284499766
 H   -0.8532825410    1.9736521756    0.5928379758
 H    0.1604768005   -0.3289337066    0.8608769448
 H   -1.1484344750   -0.3364824413   -0.3147838021
 H    2.7988848323    0.2597080378   -1.7003598859
 H    2.6647337113   -0.1872658702    0.0177702778
 H    3.0817331418   -2.2029958419   -2.2147047082
 H    2.7954191726   -2.5500857709   -0.4931762330
 H    0.6127957627   -3.8827591738   -1.0603768804
 H    1.0873769668   -1.7706904111   -3.7893615602
 H   -0.5788808427   -1.9720248320   -3.1545320763