18

 C   -0.2113756395    1.5021788111    0.0344991382
 N    1.1567572345    0.9710346926   -0.0706074270
 C    0.0134270666    0.0332708182    0.0069547652
 C   -0.0880295450   -0.8864925269    1.2293727607
 C   -0.3943196505   -2.2693016362    0.6407957765
 C    0.0307831571   -3.5439269718    1.2405182489
 O   -1.3268654330   -3.1128744699    1.3377857891
 C   -0.5848520878   -2.0707005722   -0.8213948590
 C   -0.3655815680   -0.7996121769   -1.1647518494
 H   -0.4393810475    1.9882459419    0.9798863798
 H   -0.6660497536    1.9714773095   -0.8350779144
 H    1.4856645434    1.0400409378   -1.0316734552
 H    0.8384365803   -0.8633205389    1.8069023879
 H   -0.9098895474   -0.5941294464    1.8895149054
 H    0.2041409342   -4.4153996281    0.6088199137
 H    0.5975896689   -3.5294000320    2.1715251958
 H   -0.8704801849   -2.8800275970   -1.4819772732
 H   -0.4287243279   -0.3900209449   -2.1677005229