13

 N   -0.1012458925    1.3125203494    0.0100855491
 C    0.0581699373   -0.0341332881    0.0025447068
 O    1.1215945976   -0.6138662375   -0.0086601653
 C   -1.2712591017   -0.7880121961    0.0101891292
 N   -2.3973963258   -0.0644285794    0.0204739754
 C   -3.5217837741   -0.7786037264    0.0265624078
 N   -3.5959481600   -2.1082318991    0.0233157125
 C   -2.4076431623   -2.7172717131    0.0130223869
 N   -1.2183762367   -2.1186682483    0.0060554188
 H    0.7174732265    1.8964127514    0.0035076819
 H   -1.0249338606    1.7117958328    0.0165846105
 H   -4.4593625479   -0.2273464146    0.0348632779
 H   -2.4115403398   -3.8048822311    0.0100169286