13

 N    0.0415935459    1.2270643204    0.6196199809
 C    0.0107750862    0.0376280269    0.1446829277
 C   -1.2516787403   -0.6549820131   -0.0963868629
 C   -1.4347575403   -1.9976332666   -0.1333885822
 N   -0.5647321531   -3.0029692752    0.2146168499
 C    0.7188268686   -2.8826665548    0.2252585819
 N    1.5226251571   -1.9000769405   -0.3092232569
 C    1.2091500373   -0.6637197268   -0.3998414114
 H    0.9987876472    1.5911944082    0.6229345421
 H   -2.1095548765   -0.0097463492   -0.2628908334
 H   -2.4343352059   -2.3625911174   -0.3592667799
 H    1.2848517260   -3.7306893016    0.6087148280
 H    1.9117544179   -0.0171524404   -0.9359690937