18

 C   -1.4709137325   -0.1343222828   -0.1231747238
 O   -0.0712471081    0.0934063079   -0.1410446408
 C    0.6609175614   -0.6651478030   -1.0865653803
 C    0.3965228994   -0.1686844846   -2.5047356480
 O    0.6570608372    1.2163521066   -2.6053541405
 C    2.1536515634   -0.7444887609   -0.7211812596
 O    2.1358583290   -2.1843799660   -0.8515301120
 C    0.6972251895   -2.2039095270   -0.9241869140
 H   -1.9681905655    0.2136390696   -1.0383648146
 H   -1.7076325360   -1.1975272426    0.0195630160
 H   -1.8674946898    0.4286767213    0.7244867467
 H    1.0648963252   -0.6851776280   -3.2012975325
 H   -0.6364567534   -0.4117638237   -2.8057993814
 H    0.3044272974    1.6124534574   -1.7986712302
 H    2.8579549293   -0.2686614389   -1.4098515154
 H    2.3534592343   -0.4232417880    0.3081096551
 H    0.2405450493   -2.5563909064    0.0105037264
 H    0.3319310199   -2.8093406609   -1.7622355610