16

 C    0.3836704522    0.8772649124   -0.8255227151
 C   -0.0690857424    0.1080480628    0.3919688910
 O    0.4765589059    0.1813375413    1.4679705254
 C   -1.3142269108   -0.7696827716    0.2701934512
 C   -2.1537133276   -0.8643971230    1.5219320103
 O   -2.0210920350   -0.6956700509   -0.9749189774
 C   -1.3345615303   -1.9087644122   -0.6927526613
 C   -0.2194956243   -2.2621602357   -1.5452546276
 N    0.6603098100   -2.5801625893   -2.2241030782
 H    1.2244906721    1.5126916718   -0.5467788943
 H    0.6864891874    0.1985452265   -1.6287012608
 H   -0.4403963165    1.4805699796   -1.2190515091
 H   -2.5548215196    0.1207554272    1.7779847017
 H   -2.9890795555   -1.5530486523    1.3786076638
 H   -1.5338215418   -1.1997883658    2.3553076815
 H   -1.9710783837   -2.7564049908   -0.4419467411