17

 C   -0.3135035475    1.4858654378   -0.0382720361
 C   -0.0671948110   -0.0172796736   -0.1401990426
 C    0.8695468428   -0.3973914638   -1.2730408922
 O    1.4959164048    0.3968263789   -1.9188105938
 C    0.9787059744   -1.9436975876   -1.5437011537
 C   -0.2801237181   -2.4049432572   -2.1359102084
 C   -1.3257598880   -2.7492901093   -2.6164248416
 C    2.1381195153   -2.2813248712   -2.3635755662
 C    3.1012561970   -2.5632956788   -3.0208964835
 H    0.6273783995    2.0272962504    0.0845156077
 H   -0.7928696769    1.8646032049   -0.9448516734
 H   -0.9604031738    1.7117026435    0.8136777237
 H    0.3819330807   -0.4056676215    0.7860342502
 H   -1.0015748986   -0.5770916536   -0.2645537289
 H    1.0855557294   -2.4224127299   -0.5584835944
 H   -2.2414570276   -3.0680038566   -3.0501661603
 H    3.9511061576   -2.8056659123   -3.6097998266