19

 O    0.3228886418    1.2854400314   -0.1927974400
 C    0.0322297126   -0.0887976408   -0.0417865442
 C    0.5237451735   -0.7448182058    1.2924268714
 C   -0.8212509037   -1.2710672932    1.8262570068
 C   -1.4416747059   -1.9060851992    0.5470255057
 C   -1.4822837651   -0.4309682157    0.0700655825
 C   -1.7684637030   -0.0653684868    1.5708934827
 C   -2.3786104979    0.0465673294   -1.0223115997
 O   -3.1697124355   -0.6524201256   -1.6093203291
 H    0.0746845852    1.7430541981    0.6171414234
 H    0.4692049579   -0.5651059616   -0.9234873010
 H    1.2555276447   -1.5397899115    1.1260400852
 H    0.9835062681    0.0047306415    1.9452884078
 H   -0.8155681409   -1.7916668361    2.7836089073
 H   -0.8312926780   -2.6094019936   -0.0264529519
 H   -2.4424896361   -2.3130399657    0.6986992004
 H   -2.8048757624   -0.2678929705    1.8474694333
 H   -1.4747526072    0.9231756710    1.9405752306
 H   -2.2740294681    1.1270333147   -1.2663274010