17

 C   -0.0603182752    1.5788455825    0.0570932001
 C   -0.0380934279    0.0484825443    0.0069304699
 C   -1.4519901295   -0.5339665770    0.0158798439
 O   -2.0908305560   -0.1337356454    1.2178506435
 C    0.7291406050   -0.4828376792   -1.2271673103
 C    2.1382595735   -0.1101732387   -1.2417317297
 C    3.3002634450    0.1979216040   -1.2351549671
 H    0.9547180362    1.9825986344    0.0950884942
 H   -0.5534669044    1.9894992439   -0.8331206232
 H   -0.6109867739    1.9213931738    0.9353514255
 H    0.4697328346   -0.3251759550    0.9047598784
 H   -2.0039138862   -0.1723816002   -0.8688035613
 H   -1.4002427389   -1.6328524947   -0.0563688795
 H   -2.9984646988   -0.4497257303    1.1978740351
 H    0.6491954549   -1.5774452288   -1.2637546439
 H    0.2461108112   -0.1110205077   -2.1417439533
 H    4.3273532105    0.4665596239   -1.2386232824