19

 C    0.3453770292    1.6392037527   -0.1922520990
 C   -0.0703115360    0.1781219508    0.0620757391
 C    0.5788566150   -0.4424410676    1.2550295880
 C    0.1145713781   -0.8465809716    2.4785420384
 C   -1.2763671197   -0.7999820655    3.0204624814
 N    1.1541774321   -1.3574556336    3.2554475032
 C    2.2120880355   -1.2548763294    2.5030619296
 O    3.4676542817   -1.6227374883    2.8170990719
 N    1.9533905905   -0.7144887706    1.2887282665
 H    1.4248089253    1.7258053286   -0.3570635084
 H   -0.1586892456    2.0409760523   -1.0769812683
 H    0.0919295621    2.2693510034    0.6652858865
 H   -1.1546467123    0.1291429441    0.2010493830
 H    0.1429642453   -0.4174296090   -0.8372932598
 H   -1.6208028012   -1.8005747179    3.3051014360
 H   -1.3283650612   -0.1768660973    3.9205756555
 H   -1.9804436957   -0.3944574021    2.2890669685
 H    3.4230815587   -1.9780747263    3.7136708665
 H    2.6242867383   -0.5595181627    0.5560436913