19

 C   -0.0188311602    1.5349481023    0.3340678315
 C   -0.0642219915    0.0276405156    0.2214992816
 C    1.0863251768   -0.7300002346   -0.4382028732
 C    0.8442059412   -0.8397647055    1.0290104614
 N    1.7404659489   -0.4211505348    2.1137949521
 C    1.1796448706   -1.3213023730    3.0141531793
 N    1.1323959579   -1.4984600934    4.2655962313
 C    0.4245793406   -2.0476033096    1.8981093974
 O   -0.9446099891   -2.2447022276    2.1198636570
 H    1.0048477512    1.8977336831    0.4826162073
 H   -0.3998348803    2.0093916070   -0.5762684570
 H   -0.6249284526    1.8911424495    1.1744047318
 H   -1.0567362050   -0.3895028246    0.0706877008
 H    0.8635261764   -1.5866830024   -1.0666173226
 H    1.9404366706   -0.1442272896   -0.7664267968
 H    2.0120217506    0.5292678026    2.3293537398
 H    1.6464742649   -0.7831071721    4.7822179212
 H    0.9042116374   -2.9810997239    1.5778348084
 H   -1.0886332585   -2.1395520991    3.0683429087