25

 C    0.2154664249    1.4379567134   -0.3618658363
 C    0.2963846333   -0.0348341907   -0.0404259670
 O    1.5861352460   -0.5855496898    0.2628525205
 C    0.5769383516   -0.6145380934    1.2921569936
 C    0.8471643646    0.3215461102    2.4597833960
 C    0.0945536918   -2.0381633894    1.6649165692
 C    1.2606539071   -2.7853127651    2.3491843919
 C   -1.1099777992   -1.9528915568    2.6227470138
 C   -0.3173667386   -2.8491008715    0.4217107013
 H    0.7714780290    2.0561315041    0.3438606635
 H    0.6201960738    1.6212025543   -1.3630754597
 H   -0.8301416707    1.7657953266   -0.3629435970
 H   -0.2732600571   -0.6487931602   -0.7368107088
 H    1.4557513203    1.1663355529    2.1368531488
 H   -0.0854706770    0.7066663965    2.8837816085
 H    1.3926058010   -0.1843693205    3.2604547955
 H    1.5713799497   -2.3086554176    3.2832024733
 H    0.9625396215   -3.8107052496    2.5910832928
 H    2.1288516130   -2.8292374200    1.6851256029
 H   -1.9312503235   -1.3792756792    2.1786043895
 H   -1.4873046612   -2.9572668125    2.8422385117
 H   -0.8479683784   -1.4855028815    3.5761966189
 H    0.4704473125   -2.8331147363   -0.3363021491
 H   -0.4936232903   -3.8921016073    0.7033194472
 H   -1.2431223539   -2.4739701165   -0.0253742810