15

 O   -0.0996006159    1.4690282687    0.0940986031
 C   -0.0703568465    0.0874926683    0.0175829288
 C    0.9082832680   -0.4843004795    1.0191102717
 O    1.5831673082    0.2382257602    1.7117865570
 C   -1.4165867918   -0.6651114276    0.0172085351
 C   -2.2114599580   -0.2465008331   -1.1634983346
 C   -1.1226413413   -1.2959859373   -1.3733500781
 C    0.1970119158   -0.6060440859   -1.4005429411
 O    1.1675466853   -0.6518834054   -2.0956717617
 H    0.5712274860    1.7134156576    0.7538186774
 H    0.9735541442   -1.5876898698    1.0784599354
 H   -1.8511639571   -1.1663314084    0.8723901391
 H   -3.2180502183   -0.6457669687   -1.2251839811
 H   -2.0941215393    0.7504886197   -1.5731767944
 H   -1.3482180594   -2.2819154089   -1.7575057565