22

 C   -0.2646921969    1.4359661360    0.1791608932
 C   -0.0651228762   -0.0652819644    0.0047560270
 C    0.7773459135   -0.5176766308   -1.2448626032
 C    0.8891154033    0.3764436607   -2.4721572992
 C    1.9815659011   -0.6686644260   -0.3052973235
 C    3.3394479661   -1.2068958549   -0.4935886258
 N    3.1322855062    0.2410797820   -0.2528459103
 C    1.0668712274   -0.6590788682    0.9247826271
 O    1.5234562706    0.0797770576    2.0199198246
 H    0.6753252282    1.9903205131    0.0957389120
 H   -0.9585488787    1.8348756484   -0.5679905952
 H   -0.6717544635    1.6464796907    1.1719856034
 H   -1.0277195030   -0.5771692381    0.0950582855
 H    0.4466762776   -1.5147563986   -1.5591249084
 H    1.1961777513    1.3948253343   -2.2143506922
 H    1.6155664897   -0.0248225299   -3.1887120028
 H   -0.0722229144    0.4464859431   -2.9912082589
 H    3.8363671491   -1.7359638305    0.3154419417
 H    3.6385690618   -1.5191049618   -1.4916672955
 H    3.2291729143    0.7630506580   -1.1202591944
 H    0.8097232613   -1.6688252585    1.2660495684
 H    2.2665573012    0.6036404478    1.6808393165