23

 C   -0.0172380685    1.5625552753    0.2349991413
 C   -0.1169017693    0.0448343056    0.3567150551
 C   -1.3991248347   -0.5176674486   -0.2251380887
 O   -2.2426421948    0.1828730196   -0.7400744807
 C   -1.6317122778   -2.0419031416   -0.1460762487
 C   -1.7840877583   -2.5743269497   -1.5788588075
 O   -0.4851963571   -2.6144773978    0.4840835868
 C   -2.8998546947   -2.2647471395    0.7149438011
 C   -3.2553683285   -3.7324464145    0.9663627058
 H    0.9239471723    1.9215049997    0.6608818934
 H   -0.0660568840    1.8762508825   -0.8110565488
 H   -0.8427568927    2.0537262855    0.7569935758
 H    0.7211830508   -0.4634835662   -0.1365842706
 H   -0.0485576178   -0.2901606737    1.3994613369
 H   -0.8614487252   -2.4070999777   -2.1426117795
 H   -1.9896009194   -3.6498085827   -1.5785158185
 H   -2.6022883094   -2.0612599006   -2.0886528009
 H   -0.5444309997   -3.5704049575    0.3950295215
 H   -2.7366356698   -1.7693918565    1.6798080569
 H   -3.7303272805   -1.7433656709    0.2297523740
 H   -4.1256078909   -3.8043569013    1.6252256264
 H   -3.5013553104   -4.2654276299    0.0427033382
 H   -2.4343611494   -4.2637400492    1.4606674105