21

 C    0.3081026291    1.5439412667   -0.0960518524
 C    0.0976729407    0.0389295368   -0.0176860244
 O   -1.2847923357   -0.2792593716   -0.1526380498
 C    1.0006764810   -0.8589762272   -0.9245638506
 C    1.3746347261   -1.7273339197    0.3124045553
 O    2.7364936771   -1.7211257951    0.6970461981
 C    2.9991019393   -0.4854497228    1.3513838392
 C    1.7087469584   -0.1353408008    2.1144871272
 C    0.6002869166   -0.7397409711    1.2398601086
 H    1.3583700766    1.8210247129    0.0345495449
 H   -0.0058294648    1.9171470168   -1.0792328939
 H   -0.2862434290    2.0568678892    0.6664981766
 H   -1.5790796148    0.0486756244   -1.0097967350
 H    0.4541877466   -1.3785771777   -1.7153193046
 H    1.8647654817   -0.3503610339   -1.3609448580
 H    1.0461065420   -2.7667329030    0.2720165033
 H    3.8694362079   -0.6277428412    1.9975141193
 H    3.2481445927    0.2995448258    0.6193443306
 H    1.7078152253   -0.6321408458    3.0890292162
 H    1.6009763845    0.9383140937    2.2890190585
 H   -0.2304040714   -1.1405536663    1.8202335009