16

 C    0.9245777478    0.8499689623    0.6557648608
 C    0.3513904523   -0.4382295427    0.2948413202
 C   -0.1350947780   -1.5090964855    0.0320079242
 C   -0.7004067152   -2.8061635906   -0.3572601413
 O   -1.9483558443   -2.6903348385   -1.0100186159
 C    0.2866517978   -3.5415015007   -1.3101979105
 O    0.4948768346   -2.7745851556   -2.4786182560
 C    1.5508473235   -3.8831030545   -0.6331055585
 N    2.5400982058   -4.1398575331   -0.0944252593
 H    2.0091094441    0.7741049352    0.7865496920
 H    0.7308221349    1.6014656029   -0.1168710974
 H    0.4985119183    1.2180313287    1.5949117953
 H   -0.8738164126   -3.4292118370    0.5265024023
 H   -1.7767470271   -2.2447789877   -1.8501421628
 H   -0.2018577879   -4.4647912052   -1.6352519933
 H    0.9056024960   -1.9430950882   -2.2017406399