17

 C   -0.1996146806    1.5405638351    0.0523695344
 C    0.0321495900    0.0193824083   -0.0051090974
 C    0.8445237509   -0.5021275245    1.1394060408
 C    2.1932813255   -0.7809288003    1.2561468428
 C    2.3653878776   -1.2058471087    2.5977480978
 N    3.5388778415   -1.6724976535    3.1942331810
 N    1.2196965241   -1.1906785653    3.2716985384
 N    0.3089589042   -0.7635540418    2.3563084433
 H    0.7528115984    2.0784142276    0.0419534675
 H   -0.7933153316    1.8763333120   -0.8035045280
 H   -0.7307259939    1.8250876790    0.9660411694
 H   -0.9359272900   -0.4968595881   -0.0340732518
 H    0.5431224935   -0.2379919276   -0.9380701706
 H    2.9397172164   -0.7066588166    0.4813926858
 H    4.3550663203   -1.1325513666    2.9395997978
 H    3.4461309509   -1.7137491651    4.2014804806
 H   -0.6542454070   -0.6876252339    2.6325924881