16

 C    0.1432384845    1.4930554603    0.1699805288
 C   -0.0360755754   -0.0192571746   -0.0034414932
 O   -1.3986496900   -0.3897889412   -0.1372033069
 C    0.7560362025   -0.5336651376   -1.1740843477
 N    1.8117522876   -1.2358709773   -1.1613263911
 C    2.1635278148   -1.4506574344   -2.5605276656
 C    1.0871798633   -0.7319827940   -3.3660847954
 O    0.9103899970   -0.6042461501   -4.5344229359
 O    0.2372201122   -0.1748800893   -2.4095248374
 H    1.1901140292    1.7439298251    0.3656716051
 H   -0.1760485765    2.0280436168   -0.7305313907
 H   -0.4653519552    1.8313859271    1.0120037058
 H    0.3352694194   -0.5444230961    0.8799770320
 H   -1.7356556198    0.0159913240   -0.9447361894
 H    3.1537310441   -1.0457590939   -2.7957023768
 H    2.1837894922   -2.5167462647   -2.8106492417