12

 C   -0.0305446700    1.5119633804    0.0135827059
 C   -0.0077937813    0.0201883546   -0.0277840050
 C   -0.0428792623   -0.7196111129   -1.1521082191
 N   -0.0198698321   -2.1104481067   -1.1428483981
 N    0.0342937820   -2.7732649832   -0.1078899389
 O    0.0760264981   -2.0651501532    1.1612219446
 C    0.0576644496   -0.6957198499    1.2542371864
 O    0.0946096921   -0.1736569967    2.3366262384
 H    0.8592358527    1.8885239221    0.5287843198
 H   -0.0769638441    1.9404881255   -0.9895100592
 H   -0.8892182799    1.8599601037    0.5971997650
 H   -0.0914956250   -0.2854153938   -2.1438132297