21

 C    0.0371815945    1.4990382551    0.3127575684
 C    0.0251475514    0.0108462129   -0.0004248271
 C    1.0833463930   -0.4968351343   -0.9539977466
 C    1.1897017679   -0.8154303770    0.5146173189
 C   -1.3275214175   -0.6243312168    0.0155358962
 C   -1.8461479616   -1.6765250577   -0.9507424432
 C   -2.5984336309   -0.3931131985   -0.7810227311
 O   -3.4407537380   -0.4490655011    0.3695477678
 C   -2.2759644057   -0.6177931972    1.2225590666
 H    1.0581498641    1.8929740665    0.3038542629
 H   -0.5478708993    2.0604687774   -0.4240186800
 H   -0.3857639368    1.7078928002    1.3014325863
 H    0.8397563246   -1.3078765337   -1.6298823477
 H    1.7669512870    0.2353411843   -1.3706542481
 H    1.9510058111   -0.3122485395    1.1012459532
 H    0.9894660140   -1.8361192316    0.8219505406
 H   -1.2866416419   -1.7647842990   -1.8762564682
 H   -2.2851648710   -2.6021328678   -0.5860423474
 H   -2.8629595127    0.2950868662   -1.5759451714
 H   -2.3284941974   -1.5305541352    1.8285887398
 H   -2.1555871648    0.2518909466    1.8777256503