21

 C   -0.0401267587    1.3977677331   -0.3311844000
 C    1.1497427932    2.0268791774    0.4009337776
 O    2.1902077100    1.0524813682    0.3803842996
 C    1.6886038961   -0.2335965335   -0.0126835940
 C    0.1545885587   -0.0843183118    0.0109128780
 C    2.2146752872   -0.6374950825   -1.4243984884
 C    2.5292914878   -2.1042722403   -1.2822428394
 C    2.5383524615   -2.4875036467   -0.0059169777
 C    2.2271526640   -1.3455372257    0.9271921648
 H   -1.0020648738    1.7988405056   -0.0026360545
 H    0.0424113955    1.5622454805   -1.4108534077
 H    1.5151076520    2.9445212082   -0.0731532358
 H    0.8873340854    2.2675258104    1.4427362260
 H   -0.2253094233   -0.2887060546    1.0183202535
 H   -0.3424060562   -0.7694791214   -0.6796630833
 H    1.4890854660   -0.4204899461   -2.2180385271
 H    3.1157294085   -0.0539740701   -1.6536586306
 H    2.7538592706   -2.7422224763   -2.1301300242
 H    2.7731299090   -3.4852860958    0.3482410693
 H    3.1315827034   -0.9846104947    1.4342560430
 H    1.5100023833   -1.6076989539    1.7138163707