13

 O   -0.1151582841    1.2319051359   -0.4912687296
 C    0.0264984863   -0.0521322159   -0.1354719467
 N    1.2185190328   -0.5524207620   -0.1446679556
 C    1.4960682796   -1.8419959862    0.2396459539
 N    0.8014965167   -2.9193894173    0.1757779183
 C   -0.5133527527   -2.9827459980   -0.2717551610
 O   -0.9120998623   -3.8504372887   -1.0151330786
 C   -1.4621072698   -1.9784570357    0.2873273493
 C   -1.2298603804   -0.6557359684    0.2836860440
 H    0.7725597844    1.5554161518   -0.7104615032
 H    2.5135814055   -1.9475480896    0.6189333008
 H   -2.4362356592   -2.3596304483    0.5796324933
 H   -2.0157059568    0.0445747923    0.5479711352