20

 C    0.0107379486    1.5620193274    0.0115923204
 C    0.0290268457    0.0270638218    0.0248446417
 C    0.8347153957   -0.4971564339    1.2220412621
 C   -1.4094396341   -0.5281808369   -0.0049741751
 O   -2.1547621053   -0.0077046709   -1.1053974278
 C   -1.4865725893   -2.0632117353   -0.0133884293
 C   -2.9190940669   -2.5312694853   -0.1626168913
 O   -3.2936285051   -3.3470590311   -0.9637620783
 H    1.0247588181    1.9618406213   -0.0867723251
 H   -0.5969842915    1.9405206701   -0.8125217738
 H   -0.4110983491    1.9521086665    0.9457893413
 H    0.5225457900   -0.3192933593   -0.8971603788
 H    1.8213576432   -0.0248457035    1.2527848121
 H    0.3298920622   -0.2621806089    2.1670064668
 H    0.9904185026   -1.5788787968    1.1822469312
 H   -1.9431777126   -0.1530906010    0.8793904515
 H   -1.7670293158   -0.3546242093   -1.9174261730
 H   -0.8916854792   -2.4912327531   -0.8288885012
 H   -1.1002493460   -2.4659241147    0.9319363499
 H   -3.6299885111   -2.0611097770    0.5553473766