22

 C   -0.2237764497    1.4787292649    0.0739911401
 C    0.2701536419    0.0288799116    0.1427403855
 C    0.6180904708   -0.5497353721   -1.2209899740
 C    1.7450659162    0.1323944842   -1.9748485109
 C    0.4012907083   -2.0261734119   -1.4619107464
 N   -0.5187114503   -1.0358661389   -1.9800464926
 C   -0.8405374482   -0.7496660864   -3.2989157494
 C   -1.2885613547   -1.9488009651   -4.1153238121
 O   -0.8287825915    0.3843590056   -3.7303814788
 H    0.5634164159    2.1592040327   -0.2642334207
 H   -1.0622774547    1.5660849901   -0.6235602290
 H   -0.5571793075    1.8214645332    1.0579547503
 H    1.1531776070   -0.0399385243    0.7912226258
 H   -0.5055729824   -0.5993188478    0.5938784432
 H    2.6309447244    0.2097978720   -1.3360078318
 H    2.0187848210   -0.4266924522   -2.8735534562
 H    1.4530423990    1.1355837265   -2.2930387273
 H    1.0674425797   -2.5246457252   -2.1638827650
 H    0.0232428538   -2.6616251254   -0.6638199362
 H   -0.4160471698   -2.5247428262   -4.4444626769
 H   -1.9207529234   -2.6176705990   -3.5254675006
 H   -1.8262074359   -1.5990796962   -4.9967036868