18

 O   -0.1123376215    1.4006473697    0.0103944939
 C   -0.0598951070   -0.0192681877   -0.0028785949
 C   -1.4659676587   -0.5372370902    0.0202818525
 C   -2.5825366179   -0.2778584552   -1.0394751969
 C   -3.2167601317   -1.1789313395    0.0414768796
 O   -4.5253803363   -1.6180264663   -0.0175927381
 C   -1.9052556172   -2.0306617800    0.0224743602
 C   -2.5412391967   -0.2742301008    1.1176242337
 H    0.7892692937    1.7340130884   -0.0159409163
 H    0.4530845688   -0.3931059337   -0.9042718101
 H    0.4883072972   -0.4085571121    0.8710831918
 H   -2.9572695472    0.7453499388   -1.1087927524
 H   -2.4338456370   -0.7281602180   -2.0249251428
 H   -4.7124389681   -2.1258697345    0.7791976455
 H   -1.7066718119   -2.6033161048   -0.8878539075
 H   -1.6735964535   -2.6061299639    0.9245119951
 H   -2.3543555936   -0.7249560475    2.0977991086
 H   -2.9086985513    0.7505800575    1.2021182780