23

 C    0.0094850434    1.5246018892   -0.0196636993
 C   -0.0411260322   -0.0054284274   -0.0231151029
 C   -1.3776784748   -0.5213307433    0.6032274537
 C   -0.6577728033   -0.6167811040    1.9765907684
 C    0.6937639467   -0.6012711890    1.2295034674
 O    1.1112775831   -1.9466849413    1.0693666928
 C    1.7989026517   -2.2047738876   -0.1425721728
 C    0.8641639439   -2.0095429890   -1.3338371908
 C    0.3999021155   -0.5483505969   -1.3879005831
 H    1.0277909212    1.8854902853   -0.2045932414
 H   -0.6370312034    1.9305951517   -0.8064181178
 H   -0.3258967598    1.9467634966    0.9330383026
 H   -2.2397774549    0.1467556931    0.5259102573
 H   -1.6628451456   -1.5062780579    0.2263776636
 H   -0.8071107271    0.2705125598    2.5958103237
 H   -0.8308873491   -1.5092210600    2.5797977943
 H    1.5174979532    0.0014632718    1.6425215404
 H    2.6847396394   -1.5520771843   -0.2381283419
 H    2.1526005219   -3.2377967592   -0.0728342477
 H    1.3713637918   -2.2826651087   -2.2661953136
 H    0.0126988658   -2.6904836297   -1.2171077953
 H   -0.4112351818   -0.4192736933   -2.1159193827
 H    1.2371712144    0.0636699440   -1.7518387248