18

 C    0.0814732373    1.5361466888   -0.1421562085
 C    0.0125224407    0.0236207938    0.0753809026
 O    0.6103371167   -0.3561171532    1.3056851978
 C   -1.4276909639   -0.5036726535    0.0150776608
 C   -1.5586809386   -2.0305039547    0.0805591892
 O   -2.7729300504   -2.2172769142    0.7985449811
 C   -2.7868920103   -1.1979330571    1.7567515650
 O   -2.1245128530   -0.0695365935    1.1941126227
 H    1.1134283455    1.8807430075   -0.0393387116
 H   -0.2808605890    1.8094683495   -1.1389352821
 H   -0.5361142937    2.0561748566    0.5973871113
 H    0.5946443075   -0.4830502226   -0.7052794887
 H    0.0100556614   -0.0340572424    1.9907256177
 H   -1.9420088340   -0.1047547400   -0.8699668598
 H   -1.6626398103   -2.5057824807   -0.8964103528
 H   -0.7047923448   -2.4634942680    0.6199873755
 H   -3.8274820520   -0.9457364531    1.9883436934
 H   -2.2579083690   -1.5024717431    2.6766919464