16

 C   -0.2623892580    1.5153278856   -0.0215704661
 C    0.0228735264    0.0322898421    0.0334521878
 C    1.3658344082   -0.5830909786   -0.2475533514
 N    2.4955528159    0.2508245047   -0.4725288249
 C    2.9128817751    0.9663384087    0.4771800079
 O    2.4474488030    1.0247800792    1.7679542097
 C    1.4773415253    0.1291430748    2.2136643658
 O    1.3014907320    0.0352003595    3.3928038753
 C    0.7792949392   -0.6491333458    1.1714979843
 H    0.5779081113    2.1242703617    0.3156764380
 H   -0.5006844119    1.8147363453   -1.0469607833
 H   -1.1223277769    1.7581338524    0.6102732800
 H   -0.8046293761   -0.5811052916   -0.3127148822
 H    1.3822200302   -1.4973006093   -0.8305268783
 H    3.7508271845    1.6470515265    0.3581417643
 H    0.3698186118   -1.5760883253    1.5538088931