19

 C    0.4530498859    1.3748967305   -0.1685315808
 C    0.1773740607   -0.0909969264    0.1730549221
 O    0.3873404844   -0.3541008730    1.5528433073
 C   -1.2349664926   -0.5089407100   -0.2272064184
 C   -1.7029736605   -1.9234582784    0.1761629786
 C   -2.7650561499   -1.1852117006    1.0047261275
 O   -2.2138970833    0.1106023244    0.6681583164
 C   -4.2009250011   -1.2887841935    0.5257300925
 O   -4.6911426391   -2.2871587968    0.0669536402
 H    1.4453015894    1.6610978168    0.1884842095
 H    0.4073000816    1.5463878076   -1.2491507494
 H   -0.2888896563    2.0241841835    0.3091050776
 H    0.8852155017   -0.7362887444   -0.3630098390
 H   -0.3072362769    0.1305144976    2.0171865050
 H   -1.4397729642   -0.2358717246   -1.2699894961
 H   -2.1026441944   -2.5559785192   -0.6162387488
 H   -0.9708085006   -2.4679237050    0.7711364215
 H   -2.7484982792   -1.3638136170    2.0900312897
 H   -4.7721088456   -0.3389709515    0.6313952347