19

 C    0.0383720778    1.5150762421    0.1087656597
 C    0.0500770372    0.0233428681   -0.0154521869
 C   -0.9372657377   -0.9188282360    0.7149047258
 O   -1.0456217674   -2.1354615371   -0.0231968642
 C    0.3964025264   -2.0306244456   -0.2272349292
 C    0.5222360086   -1.0349794447    0.9902168499
 C    0.5358083580   -0.8332479195   -1.1697849898
 C    0.3067007345   -0.7554648407   -2.6415645294
 C    1.7002776772   -0.5506518143   -2.0640694317
 H    1.0344864128    1.9397714115   -0.0620107923
 H   -0.6496306730    1.9687151402   -0.6140507786
 H   -0.2834336046    1.8252597707    1.1088029865
 H   -1.7758400512   -0.5886641789    1.3150077506
 H    0.8900770301   -2.9869581031   -0.3895360962
 H    1.1365734923   -0.9913433422    1.8791486654
 H    0.1050059989   -1.6754917988   -3.1807748470
 H   -0.2074231994    0.1138169400   -3.0395906676
 H    2.1142930400    0.4529826933   -2.0772917054
 H    2.4369279895   -1.3330104550   -2.2204468395