14

 N   -0.0260423931   -1.1413259623    0.2755507332
 C   -0.0306998669    0.0098302031    0.1836743609
 C   -0.0335288432    1.4689530656    0.0446037432
 C    1.3473661813    2.0359417103   -0.1234841219
 O    2.1466770732    2.3082100402    1.0191704235
 C    1.8945691796    3.3741186566    0.0982416668
 C    2.8597399825    3.1879189544   -1.1422443125
 O    3.6557568612    2.0305542410   -0.9103264110
 C    2.3219468782    1.8463259160   -1.3664531274
 H   -0.6537104171    1.7311284008   -0.8210839454
 H   -0.4988278085    1.9149902949    0.9295318238
 H    1.4450660528    4.2863008194    0.4707719349
 H    3.2205099801    3.9469461971   -1.8241598780
 H    2.1474967100    1.2706038428   -2.2667877899