16

 N   -0.1957358439    1.2768241462    0.1819483601
 C   -0.1085570229    0.0252451490    0.0710349038
 O   -1.2359184059   -0.7271616544    0.0662785017
 C   -1.0469449153   -2.1156436261   -0.0250544623
 O   -0.5374796471   -2.6112463607    1.1981235164
 C   -1.1717695479   -3.8381052399    1.5589540365
 C   -2.4420843824   -3.8975214763    0.7393772321
 O   -3.2352183931   -2.7181717341    0.8788701265
 C   -2.3684982711   -2.8202416813   -0.2489069340
 H    0.7331071507    1.6928295735    0.1577574464
 H    0.8109596633   -0.5648273698   -0.0318442897
 H   -0.3445765116   -2.3372443043   -0.8468359564
 H   -0.5276389174   -4.6978532873    1.3227181502
 H   -1.3569132988   -3.8213664307    2.6376545764
 H   -2.9725927048   -4.8316871420    0.5807420118
 H   -2.8301728719   -2.8363422117   -1.2309686797