13

 O   -0.1005562821    1.3627590659    0.0364840428
 N    0.0499475777   -0.0428889283    0.0355025829
 C   -1.0638770458   -0.6221622681    0.0670076174
 C   -2.5850951661   -0.3838390782   -0.0100167716
 O   -2.5926832095   -1.5433924407   -0.9142634185
 C   -1.5550491830   -2.0713534040   -0.0173804035
 C   -2.3207171605   -2.1695607103    1.3120129926
 C   -3.0154396819   -1.0252468575    1.3171536340
 H    0.8149165674    1.6594826398   -0.0037212251
 H   -3.0581980290    0.5143046817   -0.3955224718
 H   -0.9773484292   -2.9042714056   -0.4089770620
 H   -2.2524480088   -2.9593078393    2.0446905190
 H   -3.6809815492   -0.6048490755    2.0557310738