16

 O   -0.0954983170    1.1718257445    1.1871733544
 C   -0.0344177838    0.1618780933    0.2134479454
 C    0.9650945220   -0.9652366008    0.5833109943
 C    0.1274808104   -1.9597154612    1.3586706222
 O   -0.7469734365   -1.3293611670    2.3197251184
 C   -1.2920291876   -1.7410457425    1.0595143649
 C   -1.4018333433   -0.5995851243    0.0511360391
 C   -2.5763926818    0.2479709198    0.2280300295
 N   -3.5270192925    0.8912116772    0.3584282433
 H   -0.3395970911    0.7413844951    2.0181727189
 H    0.2360743855    0.6589782528   -0.7199679948
 H    1.3730481645   -1.4521724702   -0.3105271610
 H    1.7990101756   -0.5547237907    1.1583012045
 H    0.5184616844   -2.9270656662    1.6599708936
 H   -2.0532227937   -2.5138433509    1.1044507782
 H   -1.4528840651   -1.0446075290   -0.9515926006