20

 C   -0.0766296055    1.5650412695   -0.0871753378
 C    0.0472125922    0.0513339991   -0.0138226778
 N    1.1698115278   -0.5281738284   -0.7716969841
 C    1.7655110458   -1.1429445787    0.3021087590
 O    2.7308379131   -1.8541381616    0.4130887342
 C    0.6980315908   -0.5717976805    1.2599170823
 C    1.1972780209    0.2152765228    2.4984334189
 C    0.9222543270   -1.0532621194    3.3512455676
 C    0.0045513294   -1.5761880472    2.2135390342
 H    0.8659885356    2.0485698763    0.1858655033
 H   -0.3459215961    1.8881936522   -1.0984561519
 H   -0.8591964834    1.9197875488    0.5918952865
 H   -0.9110759568   -0.4242854095   -0.2607601293
 H    1.3482555601   -0.6020528302   -1.7629788659
 H    2.2197569160    0.5982390514    2.4682199096
 H    0.5176007684    1.0348779552    2.7519271418
 H    1.8204998185   -1.6667819352    3.4468089843
 H    0.4764548227   -0.9122128947    4.3379333813
 H   -1.0448045318   -1.3100513781    2.3760258908
 H    0.0675528654   -2.6348096818    1.9513393530