17

 O   -0.0402574324    0.0621993168   -0.5172883965
 C    0.0267284728    1.1844729038   -0.0831731597
 C    1.2718175649    1.9837433007   -0.0029456993
 C    1.1589359582    3.4883368430   -0.0746695585
 C    1.4857992562    2.8550770705    1.2390003082
 C    0.7422477687    2.8807594350    2.5899115303
 C    2.1182063563    3.0198418468    3.3219369806
 C    2.8135943924    2.9648868805    1.9473695825
 O    3.9494496408    2.9950303601    1.5699937084
 H   -0.8794804335    1.7136254701    0.2957195214
 H    2.1598561572    1.5117308960   -0.4097897544
 H    1.9527168902    4.0209917649   -0.5866830271
 H    0.1643494209    3.9095798126   -0.1899768692
 H    0.0723878154    3.7327968125    2.7213801881
 H    0.2013713534    1.9651425030    2.8353993464
 H    2.2775326750    3.9609612018    3.8550804470
 H    2.3899227835    2.1950199319    3.9860900918