17

 N   -0.0767084787    1.3375562729    0.4277100530
 C   -0.0692035421   -0.0070884122    0.0271734001
 C   -1.0315995483   -0.6992076223   -0.6414658048
 O   -0.6658532222   -2.0270304524   -0.7535286065
 C    0.5373772700   -2.1524981255   -0.1558907152
 C    0.9616258065   -0.9589916017    0.3496358002
 N    1.1315895933   -3.4059697645   -0.2451980310
 C    1.8264567411   -3.9264349945    0.9267023893
 C    0.5338705486   -4.5241687781    0.4911289138
 H    0.8382375777    1.7649708851    0.3575436727
 H   -0.7406410676    1.8959758232   -0.0933601942
 H   -1.9864082265   -0.4377883915   -1.0629439334
 H    1.8837107837   -0.7709388713    0.8760361434
 H    2.7645449667   -4.4325085297    0.7213358576
 H    1.8125608372   -3.3184566765    1.8280736743
 H   -0.3444666646   -4.3134062947    1.0948288660
 H    0.5160458751   -5.4675440763   -0.0447469551