17

 O    0.2279377164    0.1906906281   -0.5986203936
 C    0.1213156345    1.2852132293   -0.1230434867
 C   -1.1034165030    2.2446323492    0.0241490649
 C   -0.0811142451    3.3984472621    0.0477325020
 C    0.7539587442    3.3021280266    1.2812986378
 C    1.1090202945    2.3943769509    0.1226186338
 O    2.1487864646    2.7957046931   -0.6944266309
 C    1.5542783136    3.6171570147   -1.7245599695
 C    0.3211114338    4.3344388928   -1.0814182472
 H   -1.7212313802    2.1896836343   -0.8764609475
 H   -1.7433754424    2.1512689886    0.9054041750
 H    1.4974541418    4.0760510648    1.4367631039
 H    0.3193343749    2.8952549169    2.1896425116
 H    2.3266176501    4.3014804973   -2.0844084435
 H    1.2314983746    2.9811838187   -2.5599654985
 H   -0.4804533001    4.4661794743   -1.8126364509
 H    0.5936020778    5.3255355183   -0.7072979007