17

 O    0.1222465844    1.4074460783    0.0333445605
 C    0.0334347085   -0.0053679999   -0.1149188435
 C   -1.3931618019   -0.4940239486   -0.0967066717
 C   -2.4244210732    0.0387431046   -1.0767951502
 C   -3.5523938094   -0.6105383789   -0.7757868719
 C   -3.1721933811   -1.5133853574    0.3815182971
 C   -1.7136108225   -2.0216861705    0.1244598556
 O   -1.3775692555   -1.9386225233    1.5536255629
 C   -2.1526605070   -0.7274277138    1.2740378949
 H   -0.1939971165    1.6293081153    0.9149387967
 H    0.4924229033   -0.2261439787   -1.0850589813
 H    0.6068693682   -0.5379470263    0.6562224967
 H   -2.2395165483    0.7917865235   -1.8297207426
 H   -4.5307956981   -0.5305454902   -1.2283390329
 H   -3.8889774290   -2.1799395932    0.8574380220
 H   -1.3629767932   -2.8944661510   -0.4330357459
 H   -2.3397446689   -0.0372258900    2.1023384736