17

 C    0.0608704623    1.5200728926   -0.1646184545
 C   -0.0340233687    0.0123620061    0.1095373904
 C   -1.4371525797   -0.5020588528    0.0978777167
 C   -1.9688817215   -1.9343335907   -0.0808441135
 C   -3.2083204195   -1.5621376026    0.7680797783
 C   -2.7038266975   -0.1762289579    0.9454949939
 N   -3.6186219248   -0.4922464464   -0.2095739161
 C   -2.3790856664   -0.8378872397   -1.0343878842
 H    1.1012188714    1.8582506612   -0.1421593466
 H   -0.3575335279    1.7676462178   -1.1451199964
 H   -0.4928444291    2.0930372133    0.5864526153
 H    0.5442558493   -0.5385620154   -0.6439498583
 H    0.4340959456   -0.2168331021    1.0765219232
 H   -1.4170158677   -2.8497697557   -0.2417844774
 H   -3.9322094199   -2.1435420601    1.3268669344
 H   -2.9400804969    0.5909918334    1.6742203913
 H   -2.3043607892   -0.7357987209   -2.1103255067