17

 C   -0.1143857091    1.2213723312    0.0848156837
 O    0.0767120712   -0.1902321711   -0.0188409157
 C    0.7351426617   -0.6143163308   -1.1172602380
 N    1.1336465690    0.1900608795   -2.0212820906
 N    0.9048437050   -1.9817549692   -1.0544424508
 C    0.0312855566   -2.9224614222   -0.3223757512
 C    0.2860242009   -3.9200850562   -1.4673611867
 O   -0.0065541421   -5.0550391491   -1.6786204142
 C    1.0832743699   -2.8424798824   -2.2332159067
 H    0.8465568590    1.7419538563    0.0906475712
 H   -0.7063874039    1.5955982915   -0.7543247419
 H   -0.6419878016    1.3763027498    1.0269117584
 H    1.6204371365   -0.2963648747   -2.7692556237
 H    0.3987104006   -3.2240390428    0.6637505010
 H   -1.0139539250   -2.6031762028   -0.2327695963
 H    0.5768266494   -2.4822606835   -3.1402443887
 H    2.1203429421   -3.0985946136   -2.4762812397