25

 C   -0.1976148788    1.7020378577   -0.3566468346
 C   -0.2235515586    0.1736605021   -0.2458271959
 C    0.7761598332   -0.5196809128   -1.1738385459
 C    2.2671489916   -0.3107315671   -0.8322718580
 C    3.0205509529   -1.5380760513   -1.4281422106
 C    1.9250470313   -2.4448137523   -2.0320875800
 C    0.6232804835   -2.0550648306   -1.2976995356
 C    0.5014033202   -2.7759440724    0.0509498127
 O   -0.5451796683   -2.2978116376   -2.0806189439
 H    0.7802170894    2.1100777282   -0.0793875763
 H   -0.4128855081    2.0264419215   -1.3810116167
 H   -0.9443912585    2.1592066457    0.3002530640
 H   -0.0252863287   -0.1147654618    0.7947864537
 H   -1.2286691248   -0.1921572729   -0.4876014121
 H    0.5974958810   -0.1462636719   -2.1920803358
 H    2.6442677592    0.6357867985   -1.2279045256
 H    2.4023434762   -0.2654392295    0.2548906990
 H    3.7545804931   -1.2430938306   -2.1825864965
 H    3.5766681285   -2.0640766828   -0.6463287866
 H    1.7785667907   -2.2241058953   -3.0945522619
 H    2.1577636806   -3.5118310809   -1.9473882149
 H    1.3557528998   -2.5715284727    0.7039539888
 H   -0.4110370306   -2.4784364392    0.5733569721
 H    0.4657532958   -3.8613143740   -0.1051010173
 H   -0.6998001906   -3.2479234279   -2.0990196822