18

 C   -0.0416449839    1.3597872540    0.3992874213
 O    0.0044671295    0.0247750191   -0.0874736044
 C   -1.2290741497   -0.5596536940   -0.1965908664
 C   -1.9878203615   -1.1213250630    0.9835664668
 C   -1.5454588167   -2.0385396520   -0.1409517097
 N   -2.4203392797   -1.8831552680   -1.2960898753
 C   -2.1377787529   -0.4414107274   -1.4409432969
 C   -3.5712009939   -2.5339835356   -1.6116699234
 O   -4.4263723107   -2.0997547369   -2.3537645311
 H    0.9917207827    1.7029654415    0.4755660587
 H   -0.5885556669    2.0215206407   -0.2860494807
 H   -0.5158618153    1.4065467504    1.3885733494
 H   -1.3857042515   -1.2047648647    1.8832670095
 H   -3.0432537351   -0.9177286030    1.1431789579
 H   -0.8986020316   -2.8978889672   -0.0185511692
 H   -3.0229095328    0.1979668593   -1.3798323533
 H   -1.5749712744   -0.2211738090   -2.3528229481
 H   -3.6174992556   -3.5372968142   -1.1399302451