17

 C   -1.3760614199    0.9221569617    0.3187121728
 C   -0.1345906304    0.1656422729   -0.0659962296
 N    0.8535938159   -0.0704341545    0.7093704474
 O    0.6509000738    0.4444790579    1.9939427354
 C   -0.0252272509   -0.3605999805   -1.4797190381
 O   -0.1063044746    0.7219946825   -2.4242224914
 C    1.2109570906   -1.2079430580   -1.7858186757
 O    1.1824497971   -1.6274593707   -3.1351909154
 H   -1.1275348503    1.7790936835    0.9489849583
 H   -1.9038527326    1.2618625999   -0.5737590904
 H   -2.0469733240    0.2807881059    0.9023924515
 H    1.4705815765    0.2079097623    2.4413431918
 H   -0.9156190756   -0.9632793834   -1.7007787070
 H    0.6035432473    1.3398343247   -2.2087704565
 H    2.1189340207   -0.6286789726   -1.5545770941
 H    1.2282459213   -2.1025869740   -1.1579704079
 H    0.9113201352   -0.8516838176   -3.6424844712