14

 O   -0.1312183567    1.5079856991   -0.0432602443
 C    1.3062228716    1.2572431783    0.0145351824
 C    1.2009979169    0.0850678695    1.0164603470
 C   -0.0523741968    0.0741333307    0.0047963582
 C    1.2436836168   -0.0466637245   -0.8741890491
 O    1.8732479438   -0.1846584887   -2.1265750610
 C    3.1542710080   -0.5066959879   -1.6744548397
 N    3.3598622763   -0.8167848416   -0.4528340478
 C    1.9879426103   -0.8949097053    0.1089070792
 H    1.9893969226    2.1024766280   -0.0129689097
 H    1.1142402278    0.1595131980    2.0982527774
 H   -0.9636992148   -0.5203617112    0.0287486748
 H    3.9080122731   -0.4590312346   -2.4521050236
 H    1.7065331210   -1.9465267899    0.2291083464