19

 C    0.0255039407    1.4130033656   -0.1375436397
 C    0.0569683922   -0.0855369512    0.0458562664
 O    0.1661544231   -0.6643941383    1.0963906911
 O   -0.0557318857   -0.7132071243   -1.1453738957
 C   -0.0272808234   -2.1505044179   -1.1003476363
 C   -0.2413727831   -2.6542570356   -2.5214747207
 C   -0.2428639439   -4.1623014011   -2.5780147182
 C    0.3283419929   -4.9034922851   -3.7081339439
 O    1.0316698029   -4.8048411161   -2.4690934357
 H    0.8570350741    1.7294451190   -0.7737798805
 H   -0.8991243323    1.7117484008   -0.6392467928
 H    0.0966245881    1.8986492840    0.8347874427
 H    0.9354820318   -2.4847307587   -0.7022374172
 H   -0.8079857267   -2.5058602445   -0.4195139154
 H   -1.1968809929   -2.2731423604   -2.9022591562
 H    0.5504324676   -2.2652927408   -3.1698969117
 H   -1.0291117885   -4.6530875116   -2.0004250309
 H   -0.0507071602   -5.8942089180   -3.9546875100
 H    0.7677439734   -4.3544749957   -4.5401783453