20

 C    0.0082553482    1.5192581324   -0.0681071044
 C   -0.0229874593    0.0129774301    0.0419495018
 C    1.2387243914   -0.7898458980   -0.2376293634
 C    0.6579393699   -0.7529251350    1.1630906111
 C    1.3839312578   -0.1388595371    2.3322431582
 N   -0.2312473562   -1.8426006455    1.4799029615
 C   -1.3260433425   -1.9516110135    0.6555408569
 O   -2.1110198009   -2.8728578557    0.6364389766
 C   -1.3446053672   -0.6947024093   -0.2271892904
 H    0.9774043398    1.9314001961    0.2274227869
 H   -0.1789704684    1.8346081112   -1.1009174883
 H   -0.7599731414    1.9806098754    0.5630387884
 H    1.1663703769   -1.7187338081   -0.7953547308
 H    2.1431126916   -0.2191792092   -0.4256143859
 H    1.9745118663    0.7254515070    2.0189832036
 H    0.6794151306    0.1840619853    3.1056828823
 H    2.0765040635   -0.8579422784    2.7856961130
 H    0.0724990669   -2.6519290856    2.0011194787
 H   -2.2010232366   -0.0725717432    0.0576369943
 H   -1.4927912708   -0.9865917287   -1.2709904502