16

 O   -0.3156522862    1.3682187592   -0.2151719783
 N   -0.1485125164   -0.0173423084   -0.3640232831
 C   -1.1651871486   -0.6435473269    0.0486876594
 C   -2.5189959140   -0.2964462195    0.6401149714
 N   -2.8615428004   -1.7661568739    0.5868928031
 C   -3.6957991362   -2.1506732342   -0.4823631422
 N   -3.1956914568   -2.7979345649   -1.4567804946
 C   -1.7465120505   -2.9187989643   -1.2169551834
 C   -1.4812307785   -2.1236563762    0.0875084141
 H    0.5098572134    1.7151992221   -0.5707370685
 H   -2.4891800930    0.0955551896    1.6609343631
 H   -3.1566976894    0.3471901329    0.0254580558
 H   -4.7504793355   -1.8929179727   -0.4260924536
 H   -1.4793991591   -3.9737316290   -1.0951905364
 H   -1.1902366270   -2.5360605307   -2.0782622897
 H   -0.8946986818   -2.6847809831    0.8194751529