14

 N   -0.0027829697    1.3335352492   -0.1051653441
 C    0.0372184677    0.0051206911    0.1930688170
 O    1.0399849957   -0.5453919986    0.6031982641
 C   -1.2897043179   -0.7368388336    0.0056490382
 C   -1.0619637213   -2.2180708024   -0.3177052300
 C   -2.2837515328   -3.0569352625   -0.0361994721
 O   -2.7947444037   -3.8254556841   -0.8085123780
 H    0.8296373432    1.8820722592    0.0357860431
 H   -0.8282959799    1.7847772810   -0.4566880461
 H   -1.8399793040   -0.6428024642    0.9527887733
 H   -1.9053747338   -0.2535250249   -0.7604613136
 H   -0.7542352209   -2.3680359505   -1.3555850250
 H   -0.2466086278   -2.5665465750    0.3311679043
 H   -2.7010802448   -2.9156000248    0.9907146189