19

 O    0.4104752030    0.0588589928   -0.4951325971
 C    0.2564653077    1.2312334299   -0.3126172723
 O   -0.9792218056    1.7955363735   -0.2102548425
 C   -0.8838239256    3.2056397397    0.0485944535
 C    0.5418366858    3.6112277458   -0.3591453922
 C    1.3319343039    2.3114488934   -0.1377160706
 C    1.9709286368    2.1960522694    1.2370222925
 C    3.0113941234    1.1407554524    1.4954103525
 C    3.4137071466    2.5938790648    1.4341904923
 H   -1.6646086120    3.7045312791   -0.5293131921
 H   -1.0767017059    3.3784363163    1.1139699709
 H    0.5614014697    3.8957901038   -1.4150742830
 H    0.9202454763    4.4513659366    0.2268730843
 H    2.1000266186    2.1495591308   -0.8983346412
 H    1.2974489002    2.4157579615    2.0622325505
 H    3.0097634435    0.6451718506    2.4593856332
 H    3.2842029738    0.4961217713    0.6675857170
 H    3.9682960709    2.9323631439    0.5648783716
 H    3.6871755490    3.0945665245    2.3562642326