19

 C   -0.0460619684    1.4794321950    0.0378400973
 C    0.0893804579   -0.0226442779    0.0973479493
 O    0.6848993905   -0.5153211392   -1.0887707951
 C    1.2445701389   -1.7674507340   -0.7527979574
 C    1.5195611983   -1.6525904225    0.7879563231
 O    0.9765161833   -0.4006953743    1.1385719147
 C    0.8495476511   -2.8095196151    1.5415059664
 C    1.6601491282   -4.0881595211    1.6365540035
 O   -0.2616315282   -2.6995756375    1.9991317180
 H    0.9351196910    1.9317392575   -0.1242681553
 H   -0.7135432298    1.7610133463   -0.7802504693
 H   -0.4641929661    1.8500817923    0.9767243003
 H   -0.8832964112   -0.5164692928    0.2580394613
 H    0.5436959720   -2.5870515351   -0.9700888580
 H    2.1546443373   -1.9152003633   -1.3388353507
 H    2.5937394807   -1.6386824070    1.0050280176
 H    2.5188420824   -3.9303663011    2.3000421123
 H    1.0414748230   -4.8949881822    2.0304552010
 H    2.0657163492   -4.3710511480    0.6580130809