15

 C   -0.0093517458    1.4890774059    0.0171057370
 C    0.0032053871    0.0346308169   -0.0509401024
 C    0.0279686448   -1.1677884523   -0.1107567992
 C    0.0179868345   -2.6240258637   -0.1733740501
 C   -1.3806419878   -3.2181711723    0.1442586792
 C   -1.3915011516   -4.6736554721    0.0818796495
 C   -1.3669695182   -5.8739621374    0.0221948555
 H    0.6946518293    1.8593981201    0.7705694304
 H    0.2688092402    1.9359420501   -0.9438333928
 H   -1.0036414426    1.8663261640    0.2809285597
 H    0.3278484911   -2.9648626871   -1.1682580639
 H    0.7463029049   -3.0408516810    0.5321684333
 H   -1.6923029542   -2.8822831152    1.1398927967
 H   -2.1110021330   -2.8062403327   -0.5615230244
 H   -1.3619056487   -6.9345234632   -0.0264525383