15

 C   -0.2424297351    1.3243637711   -0.1517838566
 O   -0.2950565833   -0.0835429274   -0.4285538333
 C    0.8474818589   -0.6203476187   -0.8693765601
 O    1.8740472353   -0.0160940196   -1.0379465795
 C    0.7010556929   -2.1065662357   -1.1498873853
 C    1.6417237268   -2.6594275915   -2.1594261419
 O    1.8773165722   -2.8489562726   -0.7789277763
 C   -0.5630202280   -2.7491351323   -0.9071916059
 C   -1.6120244977   -3.3023975873   -0.7175628444
 H    0.4959189266    1.5318814852    0.6261862518
 H    0.0267160736    1.8807274483   -1.0528018230
 H   -1.2426222363    1.5953493841    0.1842394058
 H    1.3299745109   -3.5412690159   -2.7154872543
 H    2.3158712098   -1.9657438403   -2.6563994520
 H   -2.5412057566   -3.7857507873   -0.5404994550