18

 C   -0.0043755645    1.5467395981    0.0105560021
 C    1.4717693735    1.9004260779    0.0262347213
 C    2.2102526855    0.7327132128    0.6225942638
 C    1.1818235668   -0.3289153241    0.9684604785
 C    0.0309649612   -0.0114746924   -0.0345712167
 C    0.4870405231   -0.4259871590   -1.4109922233
 C    1.6474144569    0.1018206048   -1.8144115660
 C    2.3379055412    1.0164924020   -0.8784692019
 H   -0.4821084977    1.8934597266    0.9344458269
 H   -0.5501797640    1.9698165215   -0.8385625450
 H    1.7839555223    2.9255676586    0.1871100288
 H    3.0902446345    0.8600227101    1.2419993160
 H    1.5513850921   -1.3532392892    0.8585361407
 H    0.8389020778   -0.1953637921    2.0012161876
 H   -0.9186954562   -0.4668372788    0.2497826937
 H   -0.1001890019   -1.1068792636   -2.0170486838
 H    2.0920844918   -0.1106868098   -2.7811578285
 H    3.2791529175    1.4480423566   -1.1990223842