11

 N   -0.0531772596    1.2706232972    0.0388334352
 C   -0.0171308506    0.0151468354   -0.0408230793
 C   -1.2089340722   -0.9174821443   -0.1161297618
 O   -0.6432008260   -2.1558013410   -0.5226604258
 C    0.6819278076   -2.1345579572   -0.0699225559
 O    1.1016381773   -0.7686833136   -0.0765916902
 H    0.8874860224    1.6629784841    0.0964887048
 H   -1.6975714224   -0.9935424359    0.8670845228
 H   -1.9437834300   -0.5935752363   -0.8541184048
 H    0.7729759102   -2.5236686707    0.9573853739
 H    1.3106939832   -2.7085410177   -0.7551211289