17

 O    0.0370248234    1.5750739061    0.0133453686
 C    0.0225523707    0.1828386024    0.0334054888
 C   -1.3327168595   -0.6070814876   -0.1263881029
 C   -1.8339425758   -0.0004983821   -1.4343428121
 O   -0.5908287308    0.0295826766   -2.1971219526
 C    0.3388791294   -0.5691085039   -1.2782187340
 C   -0.4565219845   -1.7836208729   -0.7002136872
 C    0.2247546875   -2.6169312040    0.2649371311
 C    0.7872765586   -3.3262599709    1.0569014506
 H   -0.1227075617    1.8398169972   -0.9019719212
 H    0.5955340171   -0.1670870640    0.8909434801
 H   -2.0392094829   -0.7516988944    0.6879823031
 H   -2.5745011326   -0.6126997090   -1.9585164052
 H   -2.2235324455    1.0160830827   -1.3156192431
 H    1.3219049243   -0.6484509409   -1.7378408123
 H   -0.9443270736   -2.3882656285   -1.4698389251
 H    1.2833018759   -3.9519189965    1.7569821135