15

 N    0.1136892365    1.3583189527    0.1788115507
 C   -0.0639171707   -0.0849300440   -0.0211315287
 C   -1.5007076735   -0.4017235629    0.0668050381
 N   -2.6261338244   -0.6599114867    0.1006118113
 C    0.5184201207   -0.6541022062   -1.3103614627
 C    1.9885909910   -0.9870879287   -1.3620172497
 C    0.9609249172   -2.0914681258   -1.3770515917
 H    1.1029499315    1.5732734912    0.0866572490
 H   -0.3616930175    1.8658696870   -0.5627507383
 H    0.4231989359   -0.5908083948    0.8239083259
 H    0.0754301213   -0.2353076964   -2.2098823331
 H    2.5315767581   -0.7702886427   -2.2748211082
 H    2.5735944936   -0.8546301233   -0.4567409385
 H    0.8544007235   -2.6964995339   -0.4826057997
 H    0.7948856768   -2.6344440455   -2.3000333243