20

 N    0.0476360380   -1.1661716013   -0.1060072044
 C    0.0082561159   -0.0157641321   -0.0019862816
 C   -0.0149887011    1.4404293543    0.1277171685
 C    1.3860927687    2.0661806322   -0.0060203196
 C    2.0628237811    1.8979377255   -1.4103661848
 C    2.3256010708    3.3814708806   -1.7396838559
 C    2.8497393858    3.9264475846   -0.3784546731
 C    1.3957212150    3.6091327411    0.0778868266
 C    0.9716205928    4.0432940415   -1.3576154690
 H   -0.6950871386    1.8416910432   -0.6319017028
 H   -0.4484368234    1.6914684851    1.1033239074
 H    2.0156154535    1.6416258265    0.7821999915
 H    2.9803741062    1.3062664815   -1.3614177333
 H    1.3991994892    1.4202224691   -2.1381385299
 H    2.8280366789    3.6012057653   -2.6816872634
 H    3.6711777140    3.3946517813    0.1116972959
 H    3.0556937227    4.9987387234   -0.4033685521
 H    0.9602344146    4.0585445381    0.9718904229
 H    0.9838847525    5.1285598379   -1.4784676215
 H    0.0532728334    3.6348459423   -1.7902101511