18

 C   -0.1296021111    1.5635226483   -0.1198679178
 C    0.0802460239    0.0555363708   -0.0766707668
 O   -1.1494667338   -0.6242207225   -0.3099486557
 C    1.2453014483   -0.5626453004   -0.9277370624
 C    1.7734088012   -1.2709911052    0.3271347581
 C    2.1379771771   -0.2840509903    1.3741810065
 O    2.7610398197    0.9219140777    1.0195865625
 C    0.6774801509   -0.5843914689    1.1841309101
 H    0.8100370026    2.0931995980    0.0459375482
 H   -0.5165029361    1.8662584496   -1.1019827448
 H   -0.8590016554    1.8695882965    0.6370448560
 H   -1.5014330376   -0.3065498317   -1.1490057805
 H    0.8427627676   -1.2555686189   -1.6685696746
 H    1.9407457810    0.1338977990   -1.4026368962
 H    2.1260792003   -2.2948133458    0.3596432590
 H    2.5458124832   -0.7370842555    2.2791715195
 H    2.5393255219    1.5767075646    1.6902685587
 H    0.0610479362   -0.9913288253    1.9779348503