15

 C    0.4119024254    1.5381647779    0.2224737331
 N    1.2417475284    0.4078312689   -0.2121583246
 C   -0.1914021758    0.1827873753    0.0940485991
 C   -0.5262544117   -0.6568050467    1.2513189978
 C   -1.4376571596   -1.6540916022    1.4286380754
 C   -1.3082043532   -2.0852221322    2.7893656173
 C   -0.3299907730   -1.3167909170    3.3322567013
 O    0.1536598237   -0.4401510825    2.4112836861
 H    0.6478678039    1.9135842816    1.2133134730
 H    0.1196946084    2.2958880862   -0.5002620790
 H    1.3711607241    0.4354469599   -1.2205443128
 H   -0.8634288386    0.0235422619   -0.7453289130
 H   -2.1156191497   -2.0374986347    0.6819807496
 H   -1.8668663129   -2.8617712740    3.2877044857
 H    0.1242570306   -1.2652965324    4.3077909911