21

 C   -1.3720082177   -0.2734358828   -0.6387823632
 C   -1.6204669033   -0.6440670895    0.8283577616
 O   -2.4239989070   -1.8112107358    0.9397737611
 C   -0.3060890876   -0.8551407059    1.5826404366
 C    0.3503053335    0.4445104372    2.0269021348
 O   -0.4227620575    1.0770721812    3.0326199477
 O   -0.3052228164   -1.8156278959    2.6496339868
 C    0.5259623532   -2.0711744971    1.5032096877
 C    0.2263780842   -3.2986146607    0.6803541365
 H   -0.8774930592   -1.0939833151   -1.1667276328
 H   -2.3220423077   -0.0632418295   -1.1431018537
 H   -0.7522666557    0.6237447536   -0.7302429102
 H   -2.1214378611    0.1975716651    1.3305328189
 H   -3.2450149695   -1.6393222187    0.4680635313
 H    1.3682965445    0.2291808390    2.3821711957
 H    0.4276454979    1.1602603412    1.2020874546
 H   -0.5425027554    0.4190437584    3.7284968605
 H    1.5893749197   -1.9301136600    1.7149799434
 H   -0.8413683144   -3.3919085629    0.4909623612
 H    0.7639357849   -3.2492983208   -0.2734905488
 H    0.5771260843   -4.1913957708    1.2093763503