10

 O   -0.0325007970   -0.0451238926   -0.0009862468
 C   -0.0097396877    1.1634599072    0.0043353571
 C    1.2011042248    1.9480349951    0.0002342644
 C    2.2243255583    2.5813865605   -0.0032323539
 C   -1.3209692526    1.9856137432    0.0163690470
 O   -1.2982098834    3.1941950435    0.0219115635
 C   -2.5318100838    1.2010340232    0.0203505419
 C   -3.5549878154    0.5676126916    0.0239635408
 H    3.1284744079    3.1412522250   -0.0054327540
 H   -4.4587895612    0.0071958534    0.0278562501