16

 C   -0.0790530760    1.5175223359   -0.0334880961
 C   -0.0103909675    0.0166670143   -0.0064416975
 C    0.0373514232   -0.7571088591   -1.1506786343
 N    0.0867653661   -2.0959889354   -1.1588016076
 C    0.0882110719   -2.6587332917    0.0488892437
 O    0.1366560405   -4.0009217327    0.0916138742
 N    0.0525353640   -2.0548835247    1.2294210345
 C   -0.0005227164   -0.7197240544    1.2031872687
 N   -0.0846008416   -0.0956671881    2.4162874078
 H    0.7903192795    1.9821440772    0.4520971893
 H   -0.1063841550    1.8850708909   -1.0628890694
 H   -0.9739866816    1.8945896643    0.4773223801
 H    0.0343779683   -0.2745573840   -2.1269909234
 H    0.1609654225   -4.2885649448   -0.8310981760
 H    0.1113941321   -0.6753227067    3.2172282216
 H    0.1719859600    0.8738893191    2.4866415445