14

 C   -0.0550459103    1.4319429705    0.2851062026
 C   -0.5639129210    0.1317414468   -0.2778745994
 O   -1.1646232385   -0.0149820305   -1.3055909784
 O   -0.2356138614   -0.8896627592    0.5721338575
 C   -0.5870848098   -2.1751852908    0.2850403965
 N   -0.2290617026   -3.1049051120    1.1645594397
 N   -0.7039932907   -4.2143827911    0.6117495064
 N   -1.3351135352   -4.0853100390   -0.5429798047
 C   -1.2787236333   -2.7742594591   -0.7864248504
 H    1.0298712278    1.3841293288    0.4140428709
 H   -0.3169368156    2.2441684043   -0.3912196459
 H   -0.4917342202    1.6080848282    1.2721464384
 H   -0.5864591326   -5.1102956593    1.0555923911
 H   -1.7087985467   -2.3347745176   -1.6657344342