19

 C   -0.0222892843    1.4504014404   -0.1327561788
 N   -0.1669430214    0.0030275670   -0.1516480899
 C    0.5410246019   -0.7027121103   -1.1143597213
 N    1.1065653262   -0.1289792265   -2.1728057967
 N    1.6716830939   -1.1559452813   -2.8603204104
 C    2.2823846295   -0.9015956731   -4.1400151015
 C    1.4442514090   -2.3574119980   -2.2648165801
 C    0.7196219501   -2.1122502079   -1.1177045342
 N    0.2900724417   -2.9716718793   -0.0772656824
 H    1.0190541143    1.7846770990   -0.0112141797
 H   -0.3890669659    1.8626396209   -1.0762111247
 H   -0.6261489781    1.8565601497    0.6826956577
 H   -0.0705043915   -0.4302030888    0.7581478348
 H    2.9306858648   -1.7411841752   -4.4014780549
 H    1.5339392399   -0.7711407653   -4.9316306352
 H    2.8832425530    0.0088030373   -4.0773598523
 H    1.8190408004   -3.2775539637   -2.6865327858
 H    0.6434570929   -3.9132651405   -0.1973482563
 H   -0.7237314464   -3.0258289644   -0.0352220285