14

 O   -0.1631601107    0.1752933374   -0.0666497526
 C   -0.0659560474    1.3690631055    0.0533466815
 C    1.2715791734    2.0852242975   -0.0554141131
 N    2.3778146690    1.2347690401   -0.4935755206
 C    2.6335951415    1.9084027385   -1.6604586738
 O    3.3694830980    1.7299367687   -2.5853634359
 C    1.5534638286    2.9994011183   -1.2885760385
 C    0.4780939683    3.1631678110   -2.3232051169
 O   -0.6307599563    2.6978695801   -2.2327664486
 H   -0.9200023688    2.0116859539    0.3404370739
 H    1.4568343489    2.5939451864    0.9007459601
 H    2.5221381104    0.2565692983   -0.2838000651
 H    2.0151215764    3.9650158535   -1.0638518220
 H    0.7921226687    3.7410549610   -3.2165483784