19

 C   -0.1862525322    1.4850638204    0.0090322058
 C    0.1269440819    0.0253575432   -0.0212114033
 O   -0.7395055247   -0.8678253372    0.6962562172
 C    0.6614488247   -0.9125233396    0.9892322462
 C    1.3071597724   -1.8136386432   -0.0752949904
 C    0.7640348790   -3.2252971200   -0.1973289043
 O    1.1569345855   -3.7094213060   -1.4912606177
 C    0.7834393281   -0.7840851750   -1.1542353287
 O   -0.0787977719   -1.2435948642   -2.1558108628
 H    0.6757476258    2.0735225951   -0.3212165603
 H   -1.0238642933    1.7098559985   -0.6601742341
 H   -0.4618401434    1.7989436331    1.0193816984
 H    0.9633898436   -0.7404576193    2.0167588613
 H    2.3993718548   -1.8202261899   -0.0303049184
 H    1.1707452385   -3.8707472142    0.5948185771
 H   -0.3272269105   -3.2010538339   -0.1055590296
 H    0.7435304207   -4.5673232805   -1.6285668857
 H    1.6320526178   -0.2191433935   -1.5712105736
 H    0.2569825133   -2.1125568738   -2.4182113570