19

 C   -0.4621241266    1.2846701750   -0.0213435019
 C    1.0207937082    0.9342763151   -0.0251266605
 C   -0.0175251060   -0.1362543870   -0.0671292163
 O   -0.2238074444   -1.0521815157    1.0139667674
 C   -0.4326124275   -2.1508581937    0.0890268741
 C   -1.8817647277   -2.6192565518    0.0174837307
 C   -2.5354645730   -1.5347343667   -0.8560947213
 O   -1.5261749319   -1.1446557654   -1.7920157804
 C   -0.2827916312   -1.2017494087   -1.1295204470
 H   -0.8847469682    1.6389686243    0.9128802819
 H   -0.9058165985    1.7077213076   -0.9165535630
 H    1.6034120365    1.1290472215   -0.9202036568
 H    1.5611590121    1.0579957384    0.9072668851
 H    0.3000070220   -2.9471713026    0.2414316177
 H   -1.9251897091   -3.5939479594   -0.4800649100
 H   -2.3347941661   -2.7082042929    1.0074209817
 H   -3.3987451393   -1.8828393695   -1.4275767066
 H   -2.8419365524   -0.6778780017   -0.2412344165
 H    0.4992632931   -1.3683805468   -1.8713961282