18

 N    0.0077501674   -1.2017481632   -0.0172605142
 C   -0.0009383911   -0.0452373888   -0.0033817312
 C   -0.0396220678    1.4072964366   -0.0148081542
 C   -0.1187323145    2.0705172198    1.4029107629
 C    1.4143125001    1.7559947418    1.5112498786
 C    1.3666958008    2.0988891650   -0.0187972093
 C    1.0285227502    3.6010841572    0.0451550181
 C   -0.3543257923    4.1033742426   -0.2898124512
 C   -0.0700470896    3.5801012532    1.0966000666
 H   -0.7656360417    1.7151597458   -0.7672174257
 H   -0.8421287300    1.7174320429    2.1362942609
 H    2.0109591968    2.4130872012    2.1477510816
 H    1.6353227914    0.7074064722    1.7212395027
 H    2.1378263799    1.7743498902   -0.7158301428
 H    1.8564781128    4.2993122295    0.0822371483
 H   -0.4413289535    5.1834118191   -0.3591614196
 H   -1.0085899833    3.5887642423   -0.9836701252
 H   -0.0830383759    4.2622676627    1.9385548138