15

 O    0.0775655292    0.0817611633   -0.5374824166
 C    0.0125731395    1.1723486780   -0.0326393243
 N    1.0545971118    1.8071295311    0.6384818496
 C    1.6789943088    3.0339007214    0.1716888773
 C    2.2384777731    3.9012078572    1.2924187288
 N    3.2100087872    3.0227293000    1.9228001214
 C    3.4297387453    1.8113941996    1.3143879852
 O    4.2570736016    0.9877481870    1.6258714531
 C    2.4323009000    1.7361932659    0.1704678738
 H   -0.9173647129    1.7705079562    0.0164866405
 H    1.3208441820    3.4910557003   -0.7441970703
 H    2.7123679454    4.8010633106    0.8788661084
 H    1.4531667729    4.2138147550    1.9906106354
 H    3.7075084386    3.2641539284    2.7644017196
 H    2.6527725274    1.1487781160   -0.7119075420