20

 O   -0.1233646976    1.4591254839    0.0646308175
 C    0.0650425685    0.0559047623    0.0302776162
 C    0.2058101989   -0.6065150268    1.4260083431
 C   -1.3471990747   -0.5142047901    1.5342461696
 C   -1.3464131575   -0.6080878777   -0.0178148513
 N   -1.3785795143   -2.0340601760   -0.3568103238
 C   -0.3144557768   -2.6053205810   -1.1823476242
 C   -0.3133305316   -2.8138628029    0.2960472643
 C    0.6394824723   -2.0728589063    1.2421619046
 H    0.6972952180    1.8615873354    0.3669665285
 H    0.8097630122   -0.2107998193   -0.7301729297
 H    0.8201443041   -0.0951862248    2.1734283692
 H   -1.8772157938   -1.3063551231    2.0680913445
 H   -1.6696275020    0.4661668671    1.8819749436
 H   -2.1025477869   -0.0721172929   -0.5950691182
 H   -0.6327293018   -3.4116135824   -1.8383659663
 H    0.4387992022   -1.9547067102   -1.6159082161
 H   -0.6462681000   -3.7852981044    0.6547550164
 H    1.6751346425   -2.1209730048    0.8812387076
 H    0.6247684484   -2.5745705059    2.2158523244