16

 O    0.0046316351    1.4280155229   -0.0358641695
 C   -0.0117962349    0.0125937716   -0.0685193190
 C   -1.4209165319   -0.4635092591    0.0342434899
 C   -2.5471652067    0.2628840906    0.0904769819
 C   -3.7588062314   -0.6178709321    0.0965244385
 N   -3.8682322880   -1.4004833339   -1.1665572614
 C   -3.2671222998   -2.0099763778    0.0589190736
 C   -1.7501443766   -1.9206164265    0.0515581372
 O   -0.9635515200   -2.8386965515    0.0827018591
 H    0.9174965924    1.7180923098   -0.1160087839
 H    0.4298091227   -0.3833712908   -0.9981572368
 H    0.5732455420   -0.4252895750    0.7566239811
 H   -2.5891082765    1.3440137145    0.0710708914
 H   -4.6624408691   -0.3299657628    0.6210158706
 H   -4.8194465121   -1.7627421151   -1.2485577526
 H   -3.7577165752   -2.8478455547    0.5385747999