21

 C    0.0363858911    1.5697151159    0.0655260603
 C    0.0441274392    0.0694922714    0.0080628270
 C   -0.8968874930   -0.7995672547    0.7929558725
 C    0.5863100803   -0.9560747548    1.0057019449
 C    1.2394835551   -1.7804703475   -0.1330326107
 C    0.8220310779   -3.2501697379   -0.2748143089
 C    0.6183388945   -0.7473551849   -1.1603469286
 C    2.6920987061   -1.6718560478   -0.0873367449
 C    3.8916822130   -1.5938723559   -0.0415214194
 H    1.0210632661    1.9828564463   -0.1810655050
 H   -0.6873251146    1.9917570720   -0.6428301554
 H   -0.2357657695    1.9259403938    1.0646947515
 H   -1.4144116991   -0.3027348038    1.6083407684
 H   -1.4866676493   -1.5740048055    0.3083091507
 H    1.0488979399   -0.7951963062    1.9725138631
 H   -0.2663275664   -3.3486080384   -0.3079965872
 H    1.2319380225   -3.6789537999   -1.1944671691
 H    1.1949980963   -3.8401368541    0.5678110747
 H   -0.1139003329   -1.1652383634   -1.8599082825
 H    1.3902806033   -0.2217810853   -1.7243806521
 H    4.9504991396   -1.5240432394   -0.0045510092