17

 N   -0.5584980159   -1.1534153341   -0.1632129246
 C   -0.2716726803   -0.0355592719   -0.0730490875
 C   -0.0296416047    1.3818971315    0.0073038797
 C    0.5219792136    2.0446122439    1.2371492537
 C    1.2999780599    1.2490676828    2.2910847806
 C    2.6576056887    0.9462799898    1.6392436529
 C    2.6980772797   -0.0738757795    0.5306434119
 C    2.5501727014    1.3925244239    0.1979297718
 N    1.2758391333    2.0800509575   -0.0181780719
 H   -0.7832295341    1.9303350783   -0.5552198512
 H    0.0432211731    2.9703230870    1.5486381683
 H    1.4326173419    1.8667896057    3.1829533981
 H    0.7697596603    0.3430426538    2.6026847742
 H    3.5528844801    1.1259586842    2.2231264576
 H    3.6668908537   -0.5015372811    0.2924549487
 H    1.8776334212   -0.7649395827    0.4077273617
 H    3.3659664381    1.8870525208   -0.3155794638