23

 C   -0.3135603744    1.2495592718    0.1519930068
 C    0.0076336206   -0.2255169315   -0.1477427459
 C    0.8330878769   -0.4220121430   -1.3855012357
 C    2.0592632319   -0.9442096228   -1.4610768956
 C    2.6073467889   -0.9656501230   -2.8651059529
 C    1.3692013730   -0.6234368754   -3.7412718893
 C    0.7901664139   -1.8769218444   -4.3941872861
 O    1.7615595429   -2.4133945421   -5.2813812862
 C    0.3426451360    0.0010797936   -2.7581027569
 H    0.6048725917    1.8295752097    0.2880394170
 H   -0.8812454886    1.7098048603   -0.6628861052
 H   -0.9105745778    1.3398022111    1.0647300209
 H    0.5287766258   -0.6667347261    0.7093998072
 H   -0.9402152526   -0.7738060730   -0.2515650370
 H    2.6263665364   -1.3006076300   -0.6064197154
 H    3.4075277549   -0.2226201111   -2.9880709868
 H    3.0430696189   -1.9284943833   -3.1527192460
 H    1.6322152990    0.0705430736   -4.5447016892
 H    0.5209865531   -2.6037345074   -3.6099350642
 H   -0.1339861800   -1.6146304196   -4.9341415183
 H    1.4323634687   -3.2517003397   -5.6174204999
 H   -0.6832964850   -0.3408066265   -2.9562056160
 H    0.3139456555    1.0953482788   -2.8460214253