17

 O    0.1915205373    1.4229223499    0.1777802656
 C    0.0919202473    0.0284788704    0.0141336632
 C   -1.3613257938   -0.4836293901    0.0202571193
 C   -2.1150102383   -0.0917840563   -1.2537970811
 O   -2.1025412038    1.3281854120   -1.3741360129
 C   -1.4138668133   -2.0221132103    0.1636109100
 C   -0.9132942083   -2.4966850297    1.4515179557
 N   -0.5199789528   -2.8674970968    2.4727526985
 H   -0.4239934692    1.8180140209   -0.4533875253
 H    0.5809268992   -0.3143310299   -0.9175726140
 H    0.6405507574   -0.4233580661    0.8475156404
 H   -1.8712034375   -0.0287325420    0.8771941059
 H   -1.6279983131   -0.5606800099   -2.1241849524
 H   -3.1499447895   -0.4642632549   -1.2101964542
 H   -2.4554858151    1.5712041203   -2.2349754692
 H   -2.4431746931   -2.3806596521    0.0461980216
 H   -0.8245660535   -2.4965181054   -0.6315189611