15

 N   -0.0868699905    0.9873833498   -1.0461213119
 C   -0.0130941253    0.0177154925   -0.2141945993
 C   -1.2683785150   -0.4607926151    0.3502237569
 C   -1.5206524939   -1.4411873120    1.2296871960
 N   -0.6177361329   -2.2852603329    1.8528082929
 C    0.7431704881   -2.3265115476    1.7266603715
 N    1.5648080356   -1.6377050163    1.0323501053
 C    1.3430447016   -0.5841789606    0.1460579110
 N    2.3428789339   -0.0452976507   -0.4397298320
 H    0.8653751801    1.2122742082   -1.3544146987
 H   -2.1276131143    0.0859857598   -0.0208758660
 H   -2.5445703593   -1.6404825398    1.5245457587
 H   -1.0089822336   -2.9633912558    2.4876859032
 H    1.1698313067   -3.1109237424    2.3551778974
 H    3.1963943491   -0.5154527970   -0.1338445952