21

 C    0.0036857547    1.5461041054   -0.0479535035
 C    0.0061453263    0.0133642043    0.0476530846
 C    0.8101316320   -0.4495908604    1.2715244275
 C   -1.4391858384   -0.5666658166    0.0049884391
 N   -2.1207977789   -0.1023079638   -1.2111753661
 C   -1.4529490128   -2.1227976030    0.0953540633
 O   -2.7585121033   -2.6360354816   -0.0891180862
 C   -2.2193975237   -0.0812292999    1.1667580606
 N   -2.8365469063    0.2199748536    2.0969445581
 H    1.0300515284    1.9174179535   -0.1250329881
 H   -0.5624291661    1.8949410941   -0.9129190468
 H   -0.4465752390    1.9881233036    0.8472033020
 H    0.4933601853   -0.3884544982   -0.8530450104
 H    0.9718239830   -1.5305628345    1.2891900613
 H    1.7946520346    0.0272343996    1.2664782091
 H    0.3093944186   -0.1636626750    2.2027211230
 H   -1.5148807669   -0.2869906099   -2.0071509086
 H   -2.9498768175   -0.6781440051   -1.3408360307
 H   -0.8464857026   -2.5139412471   -0.7288097910
 H   -1.0187215913   -2.4686289125    1.0406107360
 H   -3.2648381760   -2.4543496765    0.7114724569