20

 C   -0.0847961109    1.6154817095   -0.0802377608
 C    0.0060299215    0.0855022126   -0.0058966194
 C    0.7640831368   -0.4945001334   -1.1984622587
 O    2.1333031303   -0.0714621515   -1.2216475079
 C    2.8544517375   -0.0789671930   -0.0674052390
 O    4.0480611210    0.0899663033   -0.0979048834
 N    2.1456983276   -0.2462261061    1.0934076137
 C    0.7097028041   -0.4599469903    1.2511645304
 C    0.2350918710    0.1410213393    2.5734969759
 H    0.9012465109    2.0824490377   -0.0151454538
 H   -0.5335531546    1.9195540486   -1.0310086365
 H   -0.7069471637    2.0202622685    0.7219552525
 H   -1.0071789197   -0.3340404423   -0.0250419557
 H    0.7276696557   -1.5922845195   -1.1815009061
 H    0.3443141935   -0.1553213323   -2.1487872903
 H    2.7335138654   -0.2778070144    1.9113642365
 H    0.5025784872   -1.5418587585    1.2869721262
 H    0.4361048079    1.2142575962    2.6211932616
 H   -0.8391070633   -0.0220900446    2.7037607363
 H    0.7463844616   -0.3374685799    3.4159245585