22

 C   -0.0401877963    1.5199938329    0.0194063007
 N    0.0850683242    0.0691052591    0.0610076063
 C    1.1099284329   -0.5732806785   -0.7472395520
 C    2.4431814447   -0.6173843445    0.0549179560
 C    2.1396225725    0.0215023319    1.4052707979
 C    0.7096697432   -0.5931085400    1.2520868064
 C   -0.1786005599   -0.8555642608    2.4363803823
 C    1.3490488496   -1.6557518425    0.2497152551
 C    1.3077524753   -3.1458379924    0.1789937146
 H    0.9104806410    2.0699987646    0.1014861354
 H   -0.5086400474    1.8052418180   -0.9289884176
 H   -0.7023753458    1.8511860747    0.8264007524
 H    1.0722417093   -0.6214253262   -1.8298017395
 H    3.4027512881   -0.7526383704   -0.4295486169
 H    2.6819091009   -0.4842885694    2.2095050231
 H    2.2312449056    1.1055560282    1.5347881132
 H   -0.4800173210    0.0850523178    2.9128676378
 H   -1.0866625384   -1.3843214648    2.1320895049
 H    0.3416745695   -1.4553497689    3.1901453231
 H    0.2781518684   -3.5159802630    0.1137790298
 H    1.8447037307   -3.5039594356   -0.7063700740
 H    1.7755073528   -3.6091569102    1.0556403208