17

 C   -0.0311816353    1.5840734846   -0.0220462995
 C    0.0551391212    0.0584026859   -0.0019100631
 C    0.7477588492   -0.5169311971   -1.2413370823
 N    0.8856182755   -1.9596396870   -1.1075352664
 C    1.3646603974   -2.5364102469    0.0377976648
 O    1.7775410262   -3.6727481826    0.1188368620
 N    1.3252505025   -1.6902777797    1.1580581828
 C    0.7375628725   -0.4408292216    1.2715016005
 O    0.7517016676    0.1692338640    2.3166347805
 H    0.9634179286    2.0323075400   -0.1136608051
 H   -0.6404578339    1.9257561839   -0.8638010864
 H   -0.4728825260    1.9466738549    0.9070271277
 H   -0.9599853567   -0.3633401418    0.0334424960
 H    0.1497919390   -0.3073675287   -2.1322120294
 H    1.7248459830   -0.0272294184   -1.3789781468
 H    1.0546565723   -2.5142816026   -1.9323466252
 H    1.7040393770   -2.0920545970    2.0051485901