19

 C   -0.1384396025    1.4401007421    0.2705904594
 O    0.3244604503    0.1575920878   -0.1017915140
 C    0.8461623269   -0.5733947264    0.9648674095
 C   -0.0985533416   -1.4059190553    1.8950317275
 C   -0.3735967973   -2.3222383289    0.6655858819
 C    1.1771735349   -2.0680941293    0.6649430016
 C    1.1463021758   -2.2891317637    2.1992887732
 C    2.1734408258   -2.5778775189   -0.3179296721
 O    3.1243804683   -3.2618546301   -0.0269414526
 H    0.6607675093    2.0374729702    0.7348390426
 H   -0.4696910474    1.9407240639   -0.6417070096
 H   -0.9820185024    1.3830851678    0.9732573342
 H    1.6396426294   -0.0096554367    1.4777468826
 H   -0.8259341960   -1.0317544707    2.6156031845
 H   -0.6796090018   -3.3482633497    0.8827088243
 H   -0.9366375404   -1.8859556147   -0.1578628974
 H    1.9556548517   -1.8363411059    2.7774847564
 H    0.9416323668   -3.3097360651    2.5254296780
 H    1.9792930700   -2.2780035063   -1.3725275100