21

 C   -0.8096826486    1.4904010313   -0.4997983416
 O   -0.9140833145    0.0945024249   -0.6388569317
 C   -0.5832024291   -0.6016112221    0.5462826093
 C   -0.7280251708   -2.0607548217    0.2829272959
 C   -0.3124177329   -2.9307362668   -0.8764564979
 C    0.3994806648   -3.9187973783    0.0441500818
 C   -0.5138799538   -3.3620542375    1.1718641589
 C   -1.9420932640   -3.8157454213    0.7590366682
 C   -1.7877952922   -2.8657731095   -0.4259791894
 H   -1.0830396224    1.9362032030   -1.4593449962
 H   -1.4880857980    1.8767219656    0.2777889191
 H    0.2157236406    1.8011451825   -0.2426985895
 H    0.4497807275   -0.3591233942    0.8564626092
 H   -1.2443471824   -0.2842804263    1.3734745943
 H   -0.0272391623   -2.6020980124   -1.8671308052
 H    0.3350182445   -4.9928367586   -0.1685450260
 H    1.4462208652   -3.6384171917    0.1939760285
 H   -0.1972232571   -3.3888492296    2.2131175921
 H   -2.0936746367   -4.8859389642    0.5728592951
 H   -2.7008560327   -3.4560073722    1.4601623788
 H   -2.5493538250   -2.4910114210   -1.0970600036