17

 N   -0.2204461194   -1.2263040065    0.0929016001
 C   -0.1196604741   -0.0742999724    0.0520189191
 C   -0.0437013179    1.3899428183   -0.0178187923
 C   -0.1601241251    2.0438114205    1.4246066776
 C    1.4112961980    2.1304989713    1.4741502622
 C    1.3506708319    1.9769901123   -0.0266850110
 C    1.6079844553    2.5711751332   -1.1834365846
 C    0.4442173891    2.3297502375   -2.1325377998
 N   -0.6631720014    1.9499735927   -1.2108192651
 H   -0.6238122449    3.0266961967    1.3342160711
 H   -0.6503562626    1.4510061992    2.1986349428
 H    1.8638013483    3.0427041901    1.8652019056
 H    1.8410552166    1.2655302717    1.9879343925
 H    2.4305308053    3.2341891232   -1.4193936685
 H    0.1811958722    3.2442747954   -2.6778774432
 H    0.6658711579    1.5561432884   -2.8866529130
 H   -1.3367489892    1.3290193285   -1.6426598836