19

 C   -0.1572341595    1.6435873993   -0.1349776923
 C   -0.0653635881    0.1274013463   -0.0439880846
 C    1.1629576265   -0.5920850388   -0.6426626496
 C    2.0624385230   -0.2873467669    0.5963293453
 C    0.6152958391   -0.5159013488    1.1855206371
 C    1.0458972373   -1.7825030536    0.3547258722
 N    2.5015252746   -1.7135077519    0.6886546363
 C    2.8746697529   -2.1801521774    2.0198106328
 H    0.7914077199    2.1232999077    0.1287799450
 H   -0.4196683421    1.9623375050   -1.1499274554
 H   -0.9263784911    2.0334946685    0.5409883084
 H   -1.0233229724   -0.3361712420   -0.3114600682
 H    1.5076645851   -0.6616892446   -1.6746187786
 H    2.7432437421    0.5501704006    0.7561584538
 H    0.3006365445   -0.4718482943    2.2286044052
 H    0.5025245037   -2.7201427117    0.2212283361
 H    2.8986432527   -3.2751638903    2.0234772301
 H    3.8842593577   -1.8260547593    2.2545458152
 H    2.2001440442   -1.8501674179    2.8281004412