19

 C    0.0112849244    1.5224102033   -0.0143447135
 C   -0.0317082043   -0.0146729458   -0.0138865479
 C   -1.4710736933   -0.5512234292   -0.0342582588
 C    0.7788460838   -0.5534798650   -1.1574356102
 C    1.0146287391   -2.0023626917   -1.6701426200
 C    1.5587959685   -1.0741773970   -2.7779171366
 O    0.3820785282   -0.1926344017   -2.5666508297
 C    2.2100905894   -0.2075027447   -1.6709189964
 O    3.1613825972    0.4581674625   -1.4225588100
 H    1.0407915417    1.8876785329    0.0345620869
 H   -0.4451496584    1.9180216637   -0.9267466408
 H   -0.5379890045    1.9207149507    0.8436692865
 H    0.4641978706   -0.3769295208    0.8979747728
 H   -1.9800430216   -0.2542505621   -0.9562838064
 H   -1.4953305904   -1.6434984048    0.0289781967
 H   -2.0387329598   -0.1526905271    0.8120074068
 H    1.7124895928   -2.6452122656   -1.1267885201
 H    0.0936191281   -2.5103525983   -1.9601853404
 H    1.8420432583   -1.2967597593   -3.8038146190