23

 C   -0.1262465915    1.6136098545    0.0339596592
 C    0.1323491277    0.1100585685   -0.1209827547
 C    0.7102243886   -0.5165968428    1.1425400937
 C   -0.1431272982   -0.7329426179    2.4402716240
 C   -1.2924400628   -1.6330487634    1.9500325984
 C   -0.4672520392   -2.6412621165    1.0746882753
 C    0.9416036906   -2.0572922933    1.2878406873
 C    0.9175108190   -1.8134341106    2.8329034070
 O    2.1010279970   -1.3903501623    3.4631179216
 H    0.7949151409    2.1509882787    0.2861427870
 H   -0.5212985596    2.0472315805   -0.8898620023
 H   -0.8508023868    1.8105734801    0.8313897294
 H   -0.7985768530   -0.3874319449   -0.4125868713
 H    0.8350141898   -0.0567518991   -0.9484155150
 H    1.6321203847    0.0262958742    1.3870818563
 H   -0.3916243297    0.0857026688    3.1171732206
 H   -1.8058290589   -2.1246863255    2.7813772043
 H   -2.0456504532   -1.0885335637    1.3746507588
 H   -0.5406987723   -3.6692614086    1.4411330725
 H   -0.7732862886   -2.6427210312    0.0254941208
 H    1.7801240556   -2.5628142289    0.8061559005
 H    0.5511125061   -2.6446824940    3.4432491097
 H    2.4715985837   -0.6463147427    2.9787022468