20

 C   -0.8168701047    1.2277953230    0.1721946766
 C   -0.0291471774   -0.0686666196    0.0456579943
 C    0.7874335168   -0.3930544592   -1.2539189323
 C    1.2328330908    0.8001369513   -2.0959867857
 C    1.9040687134   -0.9862840814   -0.3272458540
 O    3.2510207800   -0.6986436758   -0.5893357237
 C    1.2607509332   -0.2495639752    0.8877245972
 O    1.9002715213    1.0052918756    1.1112538746
 H   -0.1804839440    2.1030621812    0.0273559082
 H   -1.6255903274    1.2641541428   -0.5654412570
 H   -1.2697025403    1.3109795656    1.1660305392
 H   -0.6901312019   -0.9144651076    0.2658491040
 H    0.3124064850   -1.1331573573   -1.9056541249
 H    1.6785270794    1.5908902320   -1.4855232084
 H    1.9769042643    0.4858682945   -2.8343616690
 H    0.3858655823    1.2368679853   -2.6347219969
 H    1.8211548200   -2.0732478158   -0.2393182808
 H    3.3497377513    0.2495336180   -0.4339935632
 H    1.1667273831   -0.8025772323    1.8302234113
 H    2.6207876146    0.8577323447    1.7315612005