23

 C    0.0968163809    1.2673977501   -0.1821283056
 O    0.0301778252   -0.1353701883   -0.2278337511
 C   -1.2690735317   -0.6324332178    0.0127759668
 C   -1.2279846637   -2.1536542999   -0.0487026393
 C   -2.6090938559   -2.7767534698    0.1592551701
 C   -3.5283578103   -2.7607546605   -1.1031525013
 C   -3.1136290318   -4.2292920904   -1.3941332277
 C   -2.6291455607   -4.3280804989    0.0770613841
 O   -1.3964844558   -4.9463199893    0.3617457645
 H    1.1325464056    1.5548214861   -0.3805995415
 H   -0.5521871484    1.7351909120   -0.9406359847
 H   -0.1971546511    1.6611964284    0.8045811139
 H   -1.6292344399   -0.2992551408    1.0027912905
 H   -1.9751147759   -0.2273844172   -0.7337897497
 H   -0.8069788620   -2.4551347939   -1.0144703209
 H   -0.5377508555   -2.5226467800    0.7161788142
 H   -3.0576085511   -2.3682635337    1.0713201069
 H   -4.5871323565   -2.6680121749   -0.8481188435
 H   -3.2929185035   -2.0209236989   -1.8719389274
 H   -3.8853989097   -4.9272601371   -1.7287437528
 H   -2.2631560194   -4.2835251897   -2.0790810164
 H   -3.4274434280   -4.7304458077    0.7184218641
 H   -1.4988221808   -5.8961673780    0.2467187669