23

 C   -1.4363078147   -0.3363907025   -0.1590527985
 C    0.0621098187   -0.0493744996   -0.0347052408
 C    0.2972722011    1.4291164676    0.2980498889
 O    0.5284965613   -0.8784972744    1.0379581975
 C    0.8020410856   -0.4387872059   -1.3433763497
 O    0.2693617469    0.4040256477   -2.3498169655
 C    2.3620787280   -0.4838078401   -1.2327728210
 C    2.3031817415   -2.0331567888   -1.1937888163
 C    0.8230179280   -1.9704311861   -1.6514089250
 H   -1.8573413323    0.2006601678   -1.0104765950
 H   -1.6162811875   -1.4055747690   -0.2963646238
 H   -1.9490230619   -0.0252222432    0.7551054011
 H   -0.2109918224    1.6834543782    1.2327007824
 H    1.3652239514    1.6449004301    0.4202172986
 H   -0.0791376739    2.0707856210   -0.5005857661
 H    1.3585254367   -0.5121568474    1.3587109453
 H    0.6717653107    0.1599920376   -3.1889003710
 H    2.8192797695   -0.1014493673   -2.1511791596
 H    2.8359779857    0.0304695852   -0.3912217159
 H    2.9999233473   -2.5647799233   -1.8454347445
 H    2.3959595321   -2.4266835892   -0.1808689154
 H    0.1116165746   -2.5983276764   -1.1132745730
 H    0.7033298038   -2.1492620520   -2.7253676727