23

 C    0.4284541315    1.7475460311   -0.6512388102
 C    0.4148531243    0.2453870820   -0.4259251322
 C   -0.8187538669   -0.4130867411   -1.0313295692
 C    1.6473258352   -0.6166293604   -0.4970856365
 C    2.8818291017    0.0544463595    0.1244337567
 C    2.1397003665    0.1051043904    1.5008395720
 C    2.0820740164    1.3790076866    2.3254352910
 O    3.3907165754    1.6092541163    2.8356949669
 C    0.8791531452   -0.4603980590    0.8321744387
 H    1.3695530575    2.2180437339   -0.3649404881
 H    0.2662768006    1.9685514554   -1.7132527195
 H   -0.3762088692    2.2367953022   -0.0895452006
 H   -0.8639223616   -0.2378388244   -2.1123838854
 H   -0.8194887820   -1.4952623394   -0.8675606172
 H   -1.7371096249   -0.0071710760   -0.5911912900
 H    1.6864615697   -1.4832902209   -1.1478187871
 H    3.7603751229   -0.5923504765    0.1490848920
 H    3.1821480871    1.0137498351   -0.3081974435
 H    2.5686928386   -0.6661844934    2.1492209841
 H    1.7399484189    2.2322398088    1.7246858641
 H    1.3526461933    1.2436288381    3.1421721869
 H    3.3839130057    2.4411183532    3.3177423802
 H    0.2218793241   -1.1776651814    1.3133270669