15

 O    0.1316986176    1.5220637842   -0.0065647483
 C    0.0565459201    0.1264247203   -0.0020260714
 C    0.7333345601   -0.4515746610   -1.2379380051
 O    1.2157535799    0.2777303827   -2.0702117891
 C    0.6976812711   -0.4440999152    1.2700063533
 C   -0.0440278423   -0.2237137801    2.6006899912
 O   -0.2249986154   -1.6742647818    2.7461630149
 C    0.4097306504   -1.9224375513    1.5610192097
 O    0.5856952735   -2.9693994671    1.0236210392
 H    0.5836252491    1.7548938155   -0.8350716143
 H   -0.9976837577   -0.2061989683   -0.0359796211
 H    0.7595367330   -1.5533905350   -1.3203872212
 H    1.7611933723   -0.1949722854    1.3009481131
 H    0.5462109799    0.1761489617    3.4256800206
 H   -1.0089943617    0.2810290906    2.5307324381