21

 C   -0.6921146333    0.9986527717   -0.1147670073
 C   -0.0196006955   -0.3256207344    0.2012167679
 C    1.2726404981   -0.7392303259   -0.5798558730
 C    1.7891721037   -1.4070805514    0.7336904292
 C    0.7564064122   -0.5527343873    1.5305350120
 C    1.3650087263    0.6977303623    2.1578441109
 O   -0.0497370450   -1.2448338451    2.4658958878
 C    1.1324635505   -1.5475725740   -1.7719417993
 C    0.9982474162   -2.2305936345   -2.7532903074
 H    0.0096215844    1.8375092185   -0.0578246904
 H   -1.1098609579    0.9839703660   -1.1269686688
 H   -1.5137524371    1.1981143639    0.5813273738
 H   -0.7406414475   -1.1447203995    0.1225460617
 H    1.8686240642    0.1524272546   -0.8070632099
 H    1.5166968093   -2.4633890873    0.7710943989
 H    2.8499627756   -1.2889136015    0.9687508034
 H    1.9651829403    1.2657602418    1.4404487713
 H    0.5837394515    1.3545895473    2.5515504686
 H    2.0296010534    0.4187214079    2.9854746880
 H    0.4416257216   -1.3250529378    3.2907520664
 H    0.8849006690   -2.8323954253   -3.6204306639