19

 C   -0.0118355015    1.4496157575    0.1270905477
 C    1.3194969963    0.7598102703   -0.0736018708
 C    1.8057634554    0.1082213165    1.2225908350
 C    0.4876415573   -0.7602013138    1.2409968229
 C    0.0611500933   -0.0560208574   -0.0517055360
 O   -0.4403346637   -0.6538334459   -1.2012996272
 C    0.6331836396   -0.8542558541   -2.1290864485
 C    1.4407844629    0.4240577418   -2.3758711506
 O    2.1131781258    0.9024055207   -1.2043055913
 H   -0.2755654531    1.8921920517    1.0849254578
 H   -0.4025550174    1.9697292246   -0.7400246753
 H    2.6956602747   -0.5040221631    1.0643450390
 H    1.9746168125    0.7787399079    2.0701553681
 H    0.6990206850   -1.8213861920    1.0927791020
 H   -0.1779764333   -0.6461263996    2.1019946740
 H    1.3043674434   -1.6492055594   -1.7697749633
 H    0.1757903212   -1.1832844247   -3.0663008889
 H    2.2212027329    0.2314790563   -3.1178421011
 H    0.7732295386    1.2025925229   -2.7752977636