19

 C    0.1046095978    1.4385630644    0.2586337477
 C    0.0110794080   -0.0383001525    0.0018010869
 C    0.6262174080   -0.7707502712   -1.2371615728
 C    0.5711410870   -1.9069616423   -0.1736923598
 C    1.4795899851   -3.1035055522   -0.0993390397
 O    1.3421868141   -3.7576484645    1.1500460020
 O    0.8875780086   -0.8817993385    0.8392837847
 C   -0.9535150282   -2.0598584776    0.0290226742
 C   -1.3353692550   -0.7887713721    0.1429086671
 H    1.1310347052    1.7915697740    0.1297243979
 H   -0.5415504873    1.9864574835   -0.4347764248
 H   -0.2147788784    1.6706434065    1.2795950410
 H    0.0231869564   -0.8694581663   -2.1416954292
 H    1.6468739689   -0.4421500640   -1.4532146270
 H    1.2104123896   -3.8310325618   -0.8731157709
 H    2.5178038554   -2.7858885387   -0.2807274061
 H    1.4159738733   -3.0722079193    1.8249270572
 H   -1.5120824953   -2.9835550191    0.0584817917
 H   -2.3106641535   -0.3461368784    0.2875460198