19

 O   -0.3499651793    1.4555550195   -0.0411539458
 C   -0.0868352155    0.0579707830   -0.0495761992
 C    1.1578849021   -0.2708057702    0.7922015951
 C    1.2897541193   -1.7567199243    1.1298727056
 O    1.0418772575   -2.5979388766   -0.0035846248
 C   -0.2330649591   -2.8001682132   -0.4382456058
 O   -0.4085296456   -3.4750362266   -1.4151075891
 C   -1.3637241523   -2.1728988446    0.3721550125
 C   -1.3623414991   -0.6186592442    0.4572198522
 H    0.4101383949    1.9069318682   -0.4220736805
 H    0.0899057049   -0.2796489621   -1.0827828250
 H    2.0521159115    0.0703912389    0.2567264541
 H    1.1017094969    0.2976633487    1.7280020325
 H    2.3079903774   -1.9984244029    1.4424730714
 H    0.6224403254   -2.0289076303    1.9542818588
 H   -2.2815447830   -2.5283172992   -0.0957648001
 H   -1.3360123240   -2.6059653800    1.3780295987
 H   -1.5457423063   -0.2948163280    1.4872631181
 H   -2.1864841958   -0.2242258059   -0.1423138087