20

 C   -0.0098902689    1.4703315247    0.0008922978
 C    0.0376746507   -0.0458852821   -0.0133392021
 C    0.6026519489   -0.7019112699   -1.2842064041
 C    0.9356013533   -2.1582958729   -0.8444706783
 C    0.5957074024   -2.1722063589    0.6446747418
 C    0.7120179124   -0.7459630070    1.2224742660
 C   -0.7035160125   -0.9732243840    1.8431471743
 C   -1.2508485849   -0.7204228335    0.4921969344
 N   -0.8936742760   -2.1233026864    0.9109715822
 H    0.9863276525    1.8970153531   -0.1612928200
 H   -0.6656322183    1.8526842771   -0.7901614823
 H   -0.3902867787    1.8468918319    0.9565540420
 H   -0.1176209599   -0.6625533882   -2.1079682217
 H    1.5017239317   -0.1736396960   -1.6221430530
 H    0.3456084744   -2.9101080571   -1.3774232112
 H    1.9914535425   -2.3971880130   -1.0075346278
 H    1.0348287890   -2.9840414495    1.2268061050
 H    1.6072309835   -0.3395403978    1.6904741799
 H   -1.1270095486   -0.9257842013    2.8369953062
 H   -2.2722416435   -0.5553396293    0.1697136910