19

 C   -0.0137893820    1.5588931037   -0.1895019118
 C   -0.1708261535    0.0430800641   -0.2639514116
 C   -1.5424927312   -0.4496335175    0.1719816146
 O   -2.4101952659    0.3031878213    0.5573403774
 C   -1.7634392846   -1.9293585628    0.0822239826
 C   -2.9493063849   -2.5255758748    0.7910408286
 C   -2.9830218232   -2.4525578195   -0.7123213578
 C   -3.8698162025   -1.5677866767   -1.4071534622
 C   -4.6210291743   -0.8611833520   -2.0249129787
 H    0.9877308402    1.8608481434   -0.5083908841
 H   -0.7470773482    2.0571107821   -0.8285504958
 H   -0.1767840152    1.9173559146    0.8300142856
 H    0.0066140412   -0.3293786959   -1.2829228640
 H    0.5793868651   -0.4667615481    0.3576742314
 H   -0.8699765007   -2.5352778216   -0.0255642056
 H   -2.8379577966   -3.5007497985    1.2502800356
 H   -3.5689584150   -1.8117628077    1.3209492080
 H   -2.7838532685   -3.3842190526   -1.2347053517
 H   -5.2864719498   -0.2230161616   -2.5511668204