21

 O   -0.0991422211    1.4409741586    0.0280572017
 C    0.0168194116    0.0238052601    0.0124973131
 C    0.7739799862   -0.5085881987    1.2378509316
 C    0.6138705212   -2.0001132650    1.3901878421
 C   -0.3440930259   -2.6925926289    0.7710955349
 C   -1.3660135859   -2.0670735284   -0.1032958792
 C   -1.6615120904   -2.7445544854   -1.4350335005
 C   -2.6720384073   -2.8018763923   -0.3247318430
 C   -1.3988494100   -0.5483801600   -0.0224624320
 H    0.7885290300    1.8113087950    0.0655251677
 H    0.5471677224   -0.3051483502   -0.8965617779
 H    1.8398335251   -0.2518521855    1.1605463152
 H    0.4005977000    0.0168214978    2.1290079963
 H    1.3241451762   -2.5160754370    2.0306817887
 H   -0.4018433221   -3.7719309105    0.8971518187
 H   -1.8670948391   -2.1034807686   -2.2859717443
 H   -1.1132010234   -3.6479669180   -1.6793403636
 H   -2.8184211288   -3.7456970329    0.1902515963
 H   -3.5714921674   -2.2019973278   -0.4173497421
 H   -1.9178225174   -0.2316278652    0.8916220281
 H   -1.9469109339   -0.1202202171   -0.8677284118