19

 O   -0.2494528517    1.3912217817    0.0380354094
 C   -0.0889186017   -0.0201925835    0.0741267850
 C    0.3654230329   -0.6390198185    1.4126692736
 C   -0.6384125922   -0.0117157376    2.4168657396
 C   -1.6584463644   -0.8797159998    1.6650300134
 C   -0.5557453250   -1.9424782679    1.3769704801
 C   -1.1245198520   -2.1621425629   -0.0386231315
 C   -1.4879526184   -0.6697133852    0.0826521472
 O   -2.4435956870   -0.0939206664   -0.7349932447
 H    0.6079315595    1.8023011063   -0.1028193686
 H    0.5101871653   -0.3525279969   -0.7833244509
 H    1.4357255773   -0.6904671312    1.6170311813
 H   -0.4808226963   -0.3779192901    3.4356698005
 H   -0.7434323305    1.0747201617    2.4165681325
 H   -2.6575691264   -1.1287245271    2.0202010854
 H   -0.3108961603   -2.7513797095    2.0620022046
 H   -0.4764553047   -2.4703234224   -0.8656629116
 H   -2.0075225050   -2.8059795438    0.0024885874
 H   -2.2250691696    0.8466387431   -0.7859500127