18

 O    0.0064279413    1.3318991194    0.3155625943
 C    0.0704646587   -0.0374337037   -0.0630922414
 C   -1.3405560374   -0.5884526931    0.0273529457
 C   -1.5578961147   -2.0956608138   -0.0942219937
 C   -1.0102393288   -2.8413135596    1.0555709356
 N   -2.3186207152   -2.1816761844    1.2242177341
 C   -2.0529404112   -0.7185627308    1.4244663189
 C   -1.3138031347   -0.2617764310    2.6585014318
 O   -0.7764911070   -0.9823973315    3.4626270635
 H    0.9010697238    1.6840737610    0.3399140216
 H    0.4393997408   -0.1545903392   -1.0949542902
 H    0.7497276673   -0.5981910656    0.5945416458
 H   -1.9776256652   -0.0278260093   -0.6601180845
 H   -1.9280818692   -2.5911458484   -0.9856020427
 H   -1.1048797997   -3.9223849899    1.0221637617
 H   -0.1566542732   -2.4824018239    1.6172075191
 H   -3.0079769025   -0.1821343176    1.4124057566
 H   -1.2970413931    0.8441688713    2.7703407839