16

 O   -0.1120492138    1.5395114263   -0.2868164229
 C    0.0146964611    0.1398707848   -0.2273253271
 C   -1.2751428356   -0.6306163096   -0.0943743837
 C   -1.8342741768   -0.8512057337   -1.4621662639
 C   -0.9132483456   -0.2113054591   -2.4884227307
 C   -1.0076372503    1.2520923674   -2.8760728538
 O   -0.2172812086    1.7794739235   -3.6187983342
 C    0.2069894057   -0.6781018678   -1.5262417891
 N   -0.7510866804   -1.7616447082   -0.9453039850
 H    0.7607508401    1.9318367554   -0.3998124800
 H    0.7347343286   -0.1798816397    0.5361510795
 H   -1.8522417490   -0.8197101993    0.8025465932
 H   -2.8429667423   -1.2205934292   -1.6059766989
 H   -0.8715356640   -0.8185417841   -3.3983870302
 H   -1.8673102029    1.8105668743   -2.4483870771
 H    1.1889090039   -0.9614751009   -1.8969584361