14

 N   -0.2186333041   -1.1885842219   -0.2752680728
 C   -0.1243772113   -0.0425809462   -0.1614578973
 C   -0.0164989091    1.4028659857   -0.0147712933
 C   -0.3073402064    1.9692033607    1.4399240653
 N    1.0776849529    2.4833086871    1.4194420656
 C    2.1621688356    3.1548129613    1.8906844426
 N    3.1313828674    3.0973780020    0.9930950758
 C    2.6688339645    2.3796473333   -0.0904995319
 C    1.3806871590    1.9973885215    0.1815949759
 H   -0.6153939405    1.8907899834   -0.7888781768
 H   -1.0717284130    2.7473161059    1.4818001851
 H   -0.4868298149    1.2088430390    2.2013712158
 H    2.2105181132    3.6477450393    2.8482769084
 H    3.2890800370    2.1972670389   -0.9525913725