20

 N   -0.0346740357   -1.1204578970    0.5975750980
 C   -0.0232474663    0.0081536598    0.3443410725
 C   -0.0163230511    1.4339126056    0.0091067735
 C   -0.7449475684    2.3024741132    1.0766486843
 C    0.3254110841    2.6770262976    2.1120281379
 C    0.7256275091    1.5832590764    3.1470157709
 C    2.1024831930    1.4111505365    2.4440911465
 C    1.7156683292    2.5032885656    1.4023032208
 C    1.4210054877    2.0318885751   -0.0291010851
 H   -0.5032702170    1.5250435841   -0.9670293772
 H   -1.1121991402    3.2043915997    0.5750854826
 H   -1.6088363252    1.7916900652    1.5102921212
 H    0.1255167547    3.6555595228    2.5530457599
 H    0.7853392661    1.9487546266    4.1746899374
 H    0.0925702080    0.6927470483    3.1395785006
 H    2.9623903048    1.6766053909    3.0632518387
 H    2.2810877579    0.4191936517    2.0222506878
 H    2.3734962437    3.3746295453    1.4054968540
 H    2.1578469826    1.3211385850   -0.4126997772
 H    1.4045856528    2.8900069375   -0.7097350971