19

 C   -0.0371472200    1.5310307903    0.0394050103
 N    1.2317138895    0.7940596552    0.1874588540
 C   -0.0253891279    0.0475130614   -0.0188634991
 C   -0.4477244199   -0.7735311336    1.1810357703
 C    0.4805448242   -1.9610068201    1.3949030209
 O    0.3628250649   -3.0263288665    0.4422953282
 C    0.5603766084   -2.8364630625   -0.8885919719
 N    0.3622058363   -1.8702734865   -1.6732669698
 C   -0.2735110408   -0.6017987497   -1.3681234974
 H   -0.3816029198    2.0354390426    0.9383921261
 H   -0.2160544132    2.0816575730   -0.8810056296
 H    1.7588366791    0.8355413240   -0.6818879131
 H   -0.3973424751   -0.1544118515    2.0831084104
 H   -1.4836945186   -1.1164309717    1.0710843062
 H    1.5173744071   -1.6039885289    1.3986175874
 H    0.2748245418   -2.4433690253    2.3533089778
 H    0.9304620961   -3.7732599584   -1.3092392682
 H   -1.3581143386   -0.7466185300   -1.4921323092
 H    0.0230590466    0.1041943483   -2.1541077532