16

 C    0.1989229442    1.1024392363    0.0847517962
 C   -0.4917949074   -0.0850098516   -0.5403811518
 O   -0.0887494615   -0.6327653772   -1.5398563256
 C   -1.7541786257   -0.5968889518    0.1827587344
 C   -1.5268641098   -2.0206989096    0.6948584501
 O   -1.3116452215   -2.2544202428    1.8538224954
 C   -1.5715015721   -3.1022465390   -0.3918330046
 C   -1.1882497395   -4.4262943268    0.0780592117
 N   -0.8861027977   -5.4835010849    0.4296486799
 H    1.0815735867    1.3742940278   -0.4944317965
 H   -0.4905202289    1.9525631134    0.1414603925
 H    0.4837644354    0.8589930276    1.1152436667
 H   -2.0133587911    0.0326003670    1.0343830312
 H   -2.5691965543   -0.5867789408   -0.5487825063
 H   -2.5902119777   -3.1348431811   -0.7998337639
 H   -0.9290249192   -2.7760300666   -1.2194997395