23

 C   -0.1297156364    1.5531557630    0.1386455358
 C    0.1656161795    0.0748946970    0.0197114185
 C    1.5850802616   -0.4514744997   -0.1041276434
 C    0.7556940940   -0.7529989209    1.1262523240
 C    1.1214095437   -0.1637516986    2.4702978092
 O    0.1860348423   -2.0428867923    1.1836368183
 C    1.0683728878   -3.0626222760    1.5532160701
 C    1.0977151453   -3.5477946086    2.9813246133
 C    0.4408351408   -4.3746695712    1.8928276249
 H    0.6511960625    2.0866934821    0.6884410603
 H   -0.1967436944    2.0114860216   -0.8541618472
 H   -1.0809611878    1.7326821374    0.6520984707
 H   -0.5626875913   -0.4815838365   -0.5639731818
 H    1.7679060438   -1.2596832804   -0.8034564482
 H    2.4015398599    0.2579019576   -0.0067172817
 H    1.5080871177    0.8526529796    2.3665002264
 H    0.2450468729   -0.1318327608    3.1266170753
 H    1.8922398011   -0.7635381673    2.9630691797
 H    2.0033525500   -3.0649212243    0.9943312786
 H    2.0398581892   -3.8846727365    3.4008106955
 H    0.4381287836   -3.0476759810    3.6809796656
 H   -0.6428680393   -4.4042789675    1.8832152222
 H    0.9243665234   -5.2850807167    1.5572067439