18

 C   -0.0433196285    1.2034539725    0.2367866899
 N   -0.1413649453   -0.1948207911   -0.1394533377
 C    0.3364733056   -0.6658569095   -1.2113315820
 N    0.1029971048   -2.0198294760   -1.5691075689
 C    1.1247740065   -3.0208898539   -1.2221291738
 C   -0.1893917341   -2.9790206524   -0.5195852098
 C    1.1310654810    0.0935968486   -2.2742133966
 N    1.0331032590   -0.4469062662   -3.5165729863
 O    1.7837952955    1.0889794290   -2.0189665526
 H    0.7625570760    1.3156887202    0.9721637857
 H    0.1645894337    1.8888006189   -0.5878122456
 H   -0.9750057926    1.4859849063    0.7381506623
 H    1.3260124848   -3.7714222644   -1.9806809495
 H    1.9950483638   -2.6713652426   -0.6725555963
 H   -0.2152407042   -2.5883825576    0.4924392138
 H   -0.9533574877   -3.7107154018   -0.7639288645
 H    0.4639761826   -1.2622233893   -3.6696427458
 H    1.5068582591    0.0065452593   -4.2801106323