14

 O   -0.2734287099    0.3660829144    0.8546018986
 C    0.2981679411    0.7461846356   -0.1346614469
 C    1.3693482984    1.7864940129   -0.1104130315
 N    2.3329643508    1.7243723147   -1.2176887750
 C    1.4151666214    2.8690603440   -1.1700234171
 C    0.4322090718    2.9938318993   -2.2064088872
 C   -0.4002866612    3.1492561640   -3.0714025117
 C   -1.3365886543    3.3129097217   -4.0434245027
 C   -2.1684071018    3.4592831292   -4.9063810936
 H    0.0764853138    0.3481573280   -1.1465725961
 H    1.7017484468    2.0728962061    0.8842634306
 H    3.2573890661    2.0004166950   -0.8970147601
 H    1.8105481144    3.8176617418   -0.8102302981
 H   -2.9006127575    3.5853378434   -5.6650380392