20

 C   -0.0800002415    1.3753572415    0.1414223777
 O   -0.0490721274   -0.0285748715    0.0404390386
 C    0.6522284705   -0.4810670810   -1.0943604018
 C    0.6535588104   -2.0055693594   -1.0569139884
 C    1.3092327940   -2.6096054108   -2.3016338229
 O    2.6537833136   -2.1910558419   -2.3455428136
 C    3.3294758875   -2.5226117946   -3.5468843457
 C    1.2070422876   -4.0888995273   -2.2833155977
 N    1.1396007585   -5.2424015233   -2.2788945865
 H    0.9327770920    1.8021868285    0.2132642118
 H   -0.5853433120    1.8364194035   -0.7222240957
 H   -0.6344641074    1.6251806608    1.0489875287
 H    0.1655911624   -0.1211440333   -2.0193703475
 H    1.6834540547   -0.0980529159   -1.0994285143
 H    1.1865823785   -2.3536426330   -0.1674899456
 H   -0.3771184254   -2.3663634198   -0.9864256601
 H    0.7750831449   -2.2652873925   -3.2043893865
 H    3.3897355696   -3.6094373546   -3.6904488032
 H    2.8329727733   -2.0760982886   -4.4210715318
 H    4.3384082262   -2.1154481867   -3.4610867554