18

 C   -0.6820399610    1.7170070459    0.1147072304
 C    0.1190884196    0.4242736040   -0.0299382920
 O    1.0326779672    0.3561515094    1.0424788031
 C    1.9868028475   -0.6913001281    0.9417832695
 C    2.9182464201   -0.5846310429    2.1466934485
 C    3.8424018508   -1.7787832723    2.2537130923
 O    5.0417681219   -1.7125102525    2.3162885506
 C   -0.7744055728   -0.7594669744   -0.0443063238
 N   -1.4577936886   -1.6912939618   -0.0470015356
 H    0.0057698267    2.5649961276    0.0927355018
 H   -1.4014714121    1.8148787697   -0.7015029476
 H   -1.2201096489    1.7207887706    1.0650657900
 H    0.6599671479    0.4279515459   -0.9903673884
 H    1.4814107610   -1.6689763327    0.9293458882
 H    2.5536805304   -0.5968603981    0.0023574515
 H    3.5124702130    0.3311072823    2.1114462615
 H    2.2932732146   -0.5618811242    3.0501360818
 H    3.3203938927   -2.7638316785    2.2795415182