18

 C   -0.0379559216    1.3961360206   -0.3580464481
 C   -0.0420755532   -0.0513351647    0.1516538269
 N   -1.3825442569   -0.6167941824    0.1492063656
 C   -1.8320635618   -1.1905436267   -0.8875969281
 O   -1.0444901758   -1.2955948900   -2.0500328009
 C   -1.4972950386   -1.9290794725   -3.1525316074
 C   -2.7162987723   -2.4853312247   -3.2394598779
 C   -3.5824809063   -2.3984953905   -2.0912846926
 C   -3.1553005845   -1.7779823171   -0.9719891471
 H    0.9617845449    1.8332297762   -0.2668413355
 H   -0.3356930223    1.4379458182   -1.4099983634
 H   -0.7372596278    2.0079286716    0.2192919936
 H    0.6593835281   -0.6494904238   -0.4456592514
 H    0.3151147288   -0.0658657097    1.1873009365
 H   -0.7567917301   -1.9231306321   -3.9436346547
 H   -3.0236418984   -2.9770330387   -4.1522696976
 H   -4.5742536784   -2.8357417647   -2.1344863816
 H   -3.7627320139   -1.6876408289   -0.0808963161