21

 C    0.1312765365    1.4946143760    0.2075815454
 C   -0.0041720006   -0.0218657735    0.0638706041
 C   -1.4640555359   -0.4570237910   -0.0715406881
 O   -2.3065319594    0.2488999503   -0.6002811615
 N   -1.7407801669   -1.6985662009    0.4248400212
 C   -3.0518124493   -2.3330421606    0.3238194602
 C   -3.0281075781   -3.4909930951   -0.6820905528
 C   -3.5364382353   -2.7818346579    1.7063359598
 H    1.1814620241    1.7975647020    0.1724092708
 H   -0.4115231029    1.9935091833   -0.5975393692
 H   -0.2919303833    1.8400312091    1.1557286245
 H    0.5138795243   -0.3569628084   -0.8447185258
 H    0.4752877072   -0.5424244112    0.9014035457
 H   -0.9883918011   -2.2327963463    0.8305731022
 H   -3.7097703043   -1.5464203723   -0.0544627613
 H   -2.3406702633   -4.2815596388   -0.3573379145
 H   -4.0228937158   -3.9364795602   -0.7834072707
 H   -2.7061836917   -3.1418090709   -1.6669177197
 H   -4.5369807920   -3.2202845293    1.6409545193
 H   -2.8700247907   -3.5429435620    2.1310962312
 H   -3.5743861814   -1.9371408123    2.3995725694