20

 C   -0.0260232916    1.5635932081    0.0650146652
 C    1.5170843260    1.4973642927   -0.0295038116
 C    2.1451588479    1.1318172988    1.3419998450
 C    1.8684411142   -0.3858002087    1.4463475863
 C    0.3386484249   -0.5991492147    1.3767915169
 C   -0.0273476178    0.0175295301    0.0002450079
 C    1.3757039148    0.0850313436   -0.7132247381
 C    2.3009878788   -0.8654263064    0.0437594935
 H   -0.4648147027    2.0393195822    0.9495571261
 H   -0.4687233270    2.0075905152   -0.8320474177
 H    2.0385630328    2.3029639215   -0.5497511638
 H    3.2245853678    1.3198897662    1.3399203092
 H    1.7116305507    1.7081927375    2.1662659338
 H    2.3537972029   -0.8753110373    2.2935153197
 H    0.1048767382   -1.6693592613    1.4000040687
 H   -0.2021150623   -0.1255310153    2.2031270266
 H   -0.8646644207   -0.4788310444   -0.4938346155
 H    1.3747890564    0.0640897664   -1.8023412467
 H    3.3628336819   -0.6915376120   -0.1615183777
 H    2.0780409748   -1.9225902523   -0.1367732881