21

 C   -0.1103922587    1.5378409090    0.0123802755
 C   -0.0081877088    0.0248018643    0.0594518480
 C   -1.2043767434   -0.6779480559   -0.5580809076
 C    1.3698943245   -0.6334841733   -0.1802765635
 C    2.5467185505    0.1326514194   -0.4485502648
 C    3.5421331408    0.7737782588   -0.6705600706
 C    0.6986934694   -0.6465318244    1.2047258517
 C    1.3016334939    0.1186932405    2.3602035144
 O    0.1322983811   -1.8712024996    1.5920343090
 H    0.8095535385    2.0355262988    0.3223597333
 H   -0.3269915058    1.8648967501   -1.0105113437
 H   -0.9271683862    1.8896349394    0.6527654044
 H   -1.3027407605   -0.4014435883   -1.6136270230
 H   -1.1210200992   -1.7622631042   -0.4835032860
 H   -2.1279056178   -0.3795730766   -0.0485632029
 H    1.3177601804   -1.5909843876   -0.6919267561
 H    4.4204576885    1.3344676333   -0.8732527658
 H    1.7995269775    1.0341278239    2.0395546231
 H    0.5291694527    0.3697980001    3.0938997181
 H    2.0559458095   -0.4996494581    2.8627639401
 H    0.8328331332   -2.4102841694    1.9762627166