21

 C    0.0796874584    1.5016187859   -0.1401930664
 C    0.0054564309   -0.0171841569    0.0399891676
 O    0.5631924418   -0.4223868010    1.2904464421
 C   -1.4072676175   -0.5574656620    0.0154938659
 C   -2.3445489898   -0.4509565408   -1.2336715111
 C   -3.0993000394   -1.5548756220   -0.4528617901
 C   -1.7163375495   -2.0926052996   -0.0188205325
 O   -3.5724271096   -0.8708539964    0.7178845835
 C   -2.3952797234   -0.1310115953    1.1180115390
 H    1.1237267948    1.8352631252   -0.1452526813
 H   -0.3690160037    1.8080465919   -1.0903360606
 H   -0.4365550906    2.0179515814    0.6740956351
 H    0.5605766889   -0.4924719728   -0.7867705387
 H    1.4617016829   -0.0813453621    1.3404783466
 H   -2.8752756535    0.4883452860   -1.4090294867
 H   -1.8697326250   -0.8108718642   -2.1489131078
 H   -3.8976595268   -2.1654184128   -0.8712254497
 H   -1.1749348167   -2.6082360642   -0.8147120437
 H   -1.6659258703   -2.6505258409    0.9181182691
 H   -2.0712998735   -0.4348420871    2.1176902590
 H   -2.6162885883    0.9426552977    1.1205984106