19

 C   -0.7463176493    1.2360897593   -0.2574755113
 C   -0.0779981664   -0.1203447003   -0.0019143814
 C    0.5942107886   -0.7035749952   -1.2294738252
 C    0.4821955215   -2.1392489402   -1.5198725282
 O   -0.2897646219   -1.1787369663   -2.2556449422
 C    1.7945191522    0.0877680430   -1.7611878887
 O    2.7614976907    0.2446724378   -0.7576587968
 C    2.4108186728   -0.5349207233   -2.9999880911
 O    3.5944262363   -0.7746179643   -3.0506636612
 H   -0.0140952920    2.0105257451   -0.5061528024
 H   -1.4653997992    1.1666110537   -1.0794981906
 H   -1.2832281597    1.5709289647    0.6345052638
 H    0.6763858314   -0.0305901033    0.7865825911
 H   -0.8290630513   -0.8386732927    0.3436637559
 H    1.2579117456   -2.6529679339   -2.0874038764
 H   -0.0906971941   -2.7770704862   -0.8492823827
 H    1.4158874173    1.0743642118   -2.0896155082
 H    3.5916902030   -0.0705964594   -1.1512759351
 H    1.7278089945   -0.7344137502   -3.8446583593