20

 C   -0.0175814793    1.4246420465    0.4538429617
 C    0.0842895996   -0.0619864731    0.1695279461
 O    1.1262291037   -0.6663118920    0.2759095067
 C   -1.2087979452   -0.7479355840   -0.2754089320
 C   -1.1136781034   -2.2541631158   -0.2238756671
 N   -1.6608383864   -2.9150944670    0.9747186829
 C   -2.2689181314   -3.1814494518   -0.3465144168
 C   -3.7145267443   -2.7544267959   -0.4638267302
 O   -4.5448202219   -3.5562302913    0.3584324612
 H    0.9775876312    1.8476155978    0.5956578861
 H   -0.5373826190    1.9455144658   -0.3574538980
 H   -0.6102249497    1.5818558457    1.3629448412
 H   -2.0384401988   -0.3839310250    0.3382128831
 H   -1.4122475582   -0.4030443991   -1.3005187996
 H   -0.1619287864   -2.6282624282   -0.5914156810
 H   -1.0624746378   -3.6854544266    1.2583585481
 H   -2.0598634122   -4.1522467677   -0.7934517070
 H   -3.8209697067   -1.6887313184   -0.2146751562
 H   -4.0694651478   -2.8912403113   -1.4909704137
 H   -4.1615150258   -3.5041443685    1.2424841845