17

 O    0.1584908861    1.2989634168    0.1915239198
 C   -0.0462053471   -0.0753425661   -0.0852311850
 C    0.5675627083   -0.9729597917    1.0009153927
 N   -0.4073900453   -0.8006898461    2.0932614668
 C   -1.7305146241   -0.9009291327    1.4847334098
 C   -1.5412669326   -0.3969400286    0.0313564762
 O   -1.8937546045   -1.7251317497   -0.4804458730
 C   -2.0928116066   -2.2169496057    0.7962685831
 N   -2.4204956466   -3.3591384815    1.1934188564
 H    0.0271863300    1.4057398953    1.1427351580
 H    0.3470891512   -0.2730091617   -1.0843664096
 H    0.6511776064   -2.0086450590    0.6381697270
 H    1.5584177605   -0.6259792828    1.3038631386
 H   -0.2797113517   -1.4620509471    2.8511620076
 H   -2.5094343744   -0.4705952715    2.1149533119
 H   -2.1922515080    0.3757470739   -0.3753011949
 H   -2.5548174316   -4.0065683716    0.4141573446