20

 C    0.2168293599    1.4424913360   -0.1602995980
 C    0.0193272419   -0.0525409622    0.0351551345
 C   -1.4369550288   -0.4579935889   -0.1744476405
 O    0.8761576824   -0.8233227455   -0.8711023047
 C    1.4146160902   -1.6015925313    0.2124856301
 C    2.7704530038   -1.0649986904    0.7300543484
 C    2.0099566634   -0.2073588112    1.7907933164
 C    0.6537721743   -0.7540292009    1.2690846543
 H    1.2685186299    1.7249834904   -0.0766041025
 H   -0.1281046124    1.7350479863   -1.1575887092
 H   -0.3582701443    2.0119834526    0.5778250944
 H   -1.7527612125   -0.2178463365   -1.1946063194
 H   -1.5663955867   -1.5337172627   -0.0230648121
 H   -2.0940429599    0.0704083347    0.5254181541
 H    1.3011829472   -2.6775348735    0.0518255691
 H    3.4164073335   -1.8313017319    1.1673226854
 H    3.3334199873   -0.5165254694   -0.0282701956
 H    2.2152120153   -0.5213437422    2.8168460049
 H    2.1494784143    0.8745714874    1.7388999402
 H   -0.0451673889   -1.1549614209    2.0032526800