17

 C    0.0132950122    1.5336382812    0.0102601521
 C   -0.0113975174    0.0245745577    0.0022738010
 C   -0.0172116574   -0.6965311817   -1.1946141036
 C   -0.0094155133   -2.0859579696   -1.2102550070
 C    0.0014798100   -2.8129824039   -0.0132208476
 N   -0.0578241272   -4.2111790746   -0.0205122274
 C    0.0042907474   -2.0990332633    1.1916645839
 C   -0.0035994486   -0.7094840085    1.1912056246
 H    1.0392786390    1.9239471337    0.0024478521
 H   -0.4942550137    1.9466935924   -0.8669966846
 H   -0.4771931371    1.9369484559    0.9016132458
 H   -0.0273613520   -0.1603086060   -2.1397141949
 H   -0.0204873364   -2.6172164255   -2.1579648048
 H    0.3126125545   -4.6394733843   -0.8569459916
 H    0.3220739111   -4.6485501995    0.8069326460
 H    0.0040065294   -2.6405465707    2.1336163448
 H   -0.0029267105   -0.1835596233    2.1421249011