14

 O    0.0151277578    0.0542335042   -0.1337564929
 C    0.0311939804    1.2517693637   -0.0482850085
 N   -1.0558328381    2.1485528355   -0.0724756571
 C   -0.5215432560    3.4983203023    0.2596590141
 C    0.7323711400    3.5863569899   -0.6285875898
 C    1.7739416060    3.9101631014    0.4655758544
 O    2.5175884811    2.6103263356    0.2876973039
 C    1.1227232382    2.2913069682    0.1577776036
 C    0.6255760418    3.2709610546    1.2778997134
 H   -1.9424322350    1.8268509247    0.2860490843
 H   -1.2901216102    4.2650537366    0.3348515860
 H    0.8164142497    3.7088059688   -1.7065449789
 H    2.3931234722    4.7866685822    0.6447768143
 H    0.5985389123    3.0430541324    2.3424391532