21

 C    0.0946413795    1.3804781580   -0.0668778644
 O    0.2562850320   -0.0163555707   -0.1048319429
 C    0.4670311540   -0.5777800057    1.1767018695
 C    0.5599042012   -2.0787095542    1.0288738931
 C   -0.7000452382   -2.7393741594    0.5061692240
 C    1.8917067115   -2.6590977339    0.6475016063
 C    1.3751860033   -2.8476587110    2.0690055572
 C    2.0142704225   -2.1999258071    3.1771351942
 C    2.5461975897   -1.6746812328    4.1205576862
 H    0.9842020398    1.8850598776    0.3430491952
 H   -0.0615351294    1.7207417132   -1.0935906253
 H   -0.7748272983    1.6764205242    0.5419606578
 H    1.3843958797   -0.1744316772    1.6308459417
 H   -0.3692694504   -0.3149773769    1.8483808319
 H   -0.9662423280   -2.3210039913   -0.4685097505
 H   -0.5671325059   -3.8195734063    0.3927420399
 H   -1.5428874128   -2.5729630411    1.1870543260
 H    1.9134741455   -3.5341666918    0.0071918208
 H    2.7251523988   -1.9789887842    0.5153290489
 H    0.9881370057   -3.8371415141    2.2978024177
 H    3.0175332298   -1.2100375753    4.9505186428