18

 C    0.1099831733    1.5180713251   -0.2726854063
 N    1.4633804355    1.5613392337    0.3807458302
 C    1.4340431009    0.0901487751    0.5855612370
 C    0.7779914734   -0.3410532860    1.9199813743
 O   -0.5412136956   -0.3896648404    1.2901391068
 C    0.0230221923   -0.0009352250    0.0233157802
 C    0.0921486203   -1.0167375770   -1.1074588391
 O    1.4795514581   -1.0114427312   -1.4778817130
 C    2.2596586191   -0.8463449077   -0.2819015754
 H   -0.6348070893    2.1368494657    0.2353878172
 H    0.1125004945    1.7534268780   -1.3430978326
 H    2.1996076728    1.8585710899   -0.2501922746
 H    1.0678938135   -1.3243158857    2.3091702267
 H    0.8243622853    0.4120170087    2.7114122524
 H   -0.2255461508   -2.0018478396   -0.7348523149
 H   -0.4782528131   -0.7659641255   -2.0052675097
 H    3.2364227811   -0.4570945535   -0.5835226170
 H    2.4091588586   -1.8138331947    0.2216908978