16

 C   -0.0501585688    1.5627281447    0.0312272050
 C    0.0249187133    0.0655099794    0.0074272890
 C   -0.8582745992   -0.8253886015    0.8405571353
 C    0.6366137092   -0.9387588777    1.0046189609
 N    1.1427358503   -1.8044643143   -0.0892700109
 C    0.6992466672   -0.7701171753   -1.0895071403
 C    1.3393130882   -0.7278997923    2.2236455080
 N    1.9324378510   -0.5485316323    3.2024864091
 H    0.9074453239    2.0162983944   -0.2447600624
 H   -0.8092843864    1.9248791077   -0.6725229839
 H   -0.3214553757    1.9271553566    1.0266033926
 H   -1.3815994092   -0.3204728083    1.6458299769
 H   -1.3724383158   -1.6791920204    0.4080620986
 H    2.1561510338   -1.8589113200   -0.0621388212
 H    0.0549771470   -1.1713804943   -1.8788195386
 H    1.5383809611   -0.2357494364   -1.5462069483