19

 C   -0.0486012978    1.6117546197    0.2133738338
 C    1.4764640142    1.3538362162   -0.0039371152
 C    1.7504821096    0.4398554272    1.2120852030
 C    0.7152179461   -0.4115380108    1.2218941842
 C   -0.0915688737    0.0478316986    0.0095567814
 C   -1.2164952235   -0.5742434518   -0.7711681058
 O   -1.0912445419    0.0035994574   -2.0791448602
 C    0.2464101594    0.4970184040   -2.3207980046
 C    1.0512977045    0.2491643321   -1.0405254778
 H   -0.3537350549    1.9872883504    1.1917810977
 H   -0.5373792207    2.1736397139   -0.5858050060
 H    2.1911577126    2.1466560624   -0.2256783160
 H    2.5896601216    0.5122609606    1.8898081169
 H    0.4831391106   -1.2195944467    1.9007130795
 H   -1.1161615603   -1.6705506522   -0.8157222014
 H   -2.2196186376   -0.3334886457   -0.4035714346
 H    0.6766608276   -0.0500192062   -3.1680175311
 H    0.1731472499    1.5526800098   -2.6072290593
 H    1.7554232042   -0.5793215189   -1.1447169045