19

 C    0.0407018385    1.4937064952   -0.0571553889
 C   -0.0841697733    0.0005537871    0.0164020601
 O    0.4576951855   -0.6873613709   -1.1437074234
 C   -0.4825571695   -1.7557639911   -0.9041459259
 C   -0.0718952189   -2.5951860766    0.3737663762
 C    1.2090456960   -1.9914285579    0.9907288943
 C    0.3560167607   -0.7535562837    1.3454133468
 C   -0.9495939388   -1.6234903889    1.2443947194
 C   -1.3918020492   -0.8512908343   -0.0306855162
 H    1.0967926529    1.7870161845   -0.0462442829
 H   -0.4145633560    1.8783578623   -0.9744744837
 H   -0.4504545574    1.9615820108    0.8022041708
 H   -0.7630840743   -2.2853619865   -1.8153850409
 H   -0.2184608637   -3.6741496981    0.3191328056
 H    1.5054528210   -2.5359050182    1.8918556755
 H    2.0718578414   -1.8468382621    0.3361967214
 H    0.6107077750   -0.1205139452    2.1965860045
 H   -1.5725252743   -1.9207044515    2.0847014513
 H   -2.3784898957   -0.4791582250   -0.3031174242