10

 O    0.0260211399   -0.0150395004    0.3633261680
 C    0.0330422363    1.1367319352    0.0478756820
 O   -1.1410049744    1.7595425283   -0.3250503927
 N   -1.2249223600    3.1404082840   -0.7191487084
 N   -0.1954931149    3.8217948249   -0.7296315147
 C    1.0448981267    3.3089889441   -0.3755095809
 C    1.2087756768    2.0232016119    0.0061769516
 C    2.4793066199    1.4943619865    0.3698928378
 N    3.5228424133    1.0885188200    0.6607893974
 H    1.8616259364    4.0174950655   -0.4299803001