12

 O   -0.1015113734   -0.0136154690   -0.0002409494
 C   -0.0067503399    1.1876251600    0.0087008336
 C    1.2558610641    1.9410813063    0.0009620193
 C    1.3724519169    3.3213175264    0.0111199864
 N    2.7061478877    3.5781974363   -0.0010422737
 C    3.3502196886    2.3592779365   -0.0189464614
 N    2.4997789633    1.3594514409   -0.0177544914
 C    4.7684206964    2.2726433269   -0.0353946844
 N    5.9251874565    2.2540540432   -0.0483085155
 H   -0.9066871223    1.8441018956    0.0241694832
 H    0.6352041266    4.1076777158    0.0258505602
 H    3.1492598454    4.4839653809    0.0019568131