15

 C   -0.0415332688    1.2794663307   -0.0167420184
 O   -0.1767631691   -0.1364258365   -0.2299800539
 C    0.5480157187   -0.6748504802   -1.1836632285
 N    0.5507245151   -1.9319325083   -1.5171195377
 C    1.4632004090   -1.9337369972   -2.5454390907
 C    1.8062023499   -3.2088211168   -3.2570881818
 O    0.6443706470   -3.9410726350   -3.5826776536
 N    1.9906917409   -0.7771387782   -2.8414159890
 O    1.3709111328    0.0959455372   -1.9002354378
 H    0.9867066152    1.5306492928    0.2552310441
 H   -0.3291105954    1.8323270560   -0.9144883069
 H   -0.7182490915    1.5112594785    0.8042146174
 H    2.3328237348   -2.9804082066   -4.1866595622
 H    2.4889728206   -3.7916343944   -2.6173801773
 H    0.0945052909   -3.9598656121   -2.7898324833