19

 C   -0.0186565703    1.5606251294    0.0331422523
 C   -0.0195570138    0.0270579149    0.0094035272
 C    0.7452054920   -0.5514477920    1.2195948840
 C    0.8672538890   -2.0036169670    1.2071188692
 C    0.9721212857   -3.2005616474    1.1896305586
 N   -1.3656506788   -0.5278613392   -0.0293721674
 C   -2.0659158174   -0.5790964712   -1.2126630564
 N   -3.3853569001   -1.0014561163   -1.0667826836
 O   -1.5900605897   -0.2641538988   -2.2885077804
 H    1.0034741925    1.9532085381    0.0170069910
 H   -0.5464271578    1.9390528519   -0.8448370936
 H   -0.5156270104    1.9423293217    0.9328874959
 H    0.4659774680   -0.3092258240   -0.9100311977
 H    1.7431290771   -0.0976596480    1.2434277446
 H    0.2501426871   -0.2290722489    2.1473645738
 H    1.0696082114   -4.2576253519    1.1725755280
 H   -1.8944814559   -0.5131861632    0.8293981639
 H   -3.5694220411   -1.6853964429   -0.3470417609
 H   -3.8039757675   -1.2325688752   -1.9556013485