20

 C    0.2485868519    1.5565716959    0.0199492030
 C    1.5348791243    0.7511837740    0.0961554466
 C    1.9946880872    0.4402459394    1.4783719222
 C    1.1148479031   -0.3171574670    2.1375671063
 C   -0.0668888225   -0.7054513805    1.2689137519
 C    0.1922764753    0.0547162173   -0.0339539607
 N   -0.0958541305   -2.1525323257    1.0249621731
 C   -0.7693210904   -2.9554441616    2.0403477911
 C   -1.4059227370   -2.7219975028    0.7156120571
 H   -0.0797085551    2.0645849403    0.9214533346
 H    0.0423221528    2.0902141714   -0.9025922361
 H    2.2449768993    0.8145681905   -0.7205906067
 H    2.9168741846    0.8326722758    1.8927288507
 H    1.1933044819   -0.6259938337    3.1735152938
 H   -1.0168784632   -0.3778504647    1.7350051315
 H   -0.1043192361   -0.4241839420   -0.9591657936
 H   -0.3069666415   -3.9099995841    2.2744339613
 H   -1.2058499866   -2.4394264312    2.8947582379
 H   -2.2627465199   -2.0499995798    0.6884914527
 H   -1.4153403677   -3.5027856215   -0.0393215664