14

 C   -0.0360591727    1.5637960341   -0.1146492947
 C    1.5012435382    1.4574131307    0.0371489787
 C    1.9574647989    0.4829737562   -1.0675425660
 C    2.0388994868   -0.6912703174   -0.1679946123
 C    1.3217866463    0.1506718904    0.9172015878
 C    0.0110042519    0.0400158085    0.0789196192
 N    0.8489389768   -0.5350613848   -1.0600882876
 H   -0.4936424690    2.0573448934    0.7486996668
 H   -0.4512929605    1.9616670170   -1.0448076804
 H    2.1431983589    2.2925326221    0.3098791004
 H    2.4440030872    0.6876331162   -2.0128475797
 H    2.6679350203   -1.5731886068   -0.1621409004
 H    1.4117226820    0.1189137972    1.9995743980
 H   -0.8570632353   -0.5720811968    0.3184834602