21

 C   -0.2368089918    1.3796168488    0.0764949524
 C   -0.0344761006   -0.1332031364   -0.0136934820
 O    0.5984131697   -0.5728987168   -1.1974017370
 C   -0.2104773538   -0.5543952660   -2.3589412945
 C    0.5620474363   -1.2278205005   -3.4843753305
 C   -0.2140889880   -1.2539704665   -4.7947623999
 O    0.5979013053   -1.9016801439   -5.7606416128
 C    0.8254183082   -0.6607587792    1.1322565631
 O    0.8000042191   -0.2265550948    2.2532930340
 H    0.7049344026    1.8961956622   -0.1305369300
 H   -0.9921780057    1.7284865953   -0.6317782711
 H   -0.5581238547    1.6362931768    1.0887235202
 H   -1.0147982248   -0.6378576113    0.0925778711
 H   -1.1578927611   -1.0861205256   -2.1636922733
 H   -0.4708335138    0.4786501757   -2.6378413092
 H    1.5091383372   -0.7003733436   -3.6391807522
 H    0.8098506591   -2.2535872211   -3.1921611487
 H   -1.1694275958   -1.7868368680   -4.6549534146
 H   -0.4599596345   -0.2250033745   -5.1057400045
 H    0.1174975000   -1.9220942397   -6.5933073442
 H    1.4772491269   -1.5104535309    0.8335762137