18

 C   -0.1377535518    1.6183036982    0.0510208196
 C   -0.0340597340    0.0958538472    0.0296660597
 C   -1.4237714160   -0.5205945963   -0.1604365228
 O   -2.0079612462   -0.1489038974   -1.4072004197
 C    1.1339713877   -0.6159248791   -0.7447412985
 C    2.1591225649   -0.1291705615    0.3069883849
 C    0.9022922411   -0.6697990339    1.0272904720
 O    0.9246344085   -1.8217431372    0.0900706398
 H    0.8220017655    2.1340644830    0.0009019969
 H   -0.7450677850    1.9417426371   -0.7987465467
 H   -0.6483694533    1.9491320811    0.9628896964
 H   -1.3724318118   -1.6069179127   -0.0512834004
 H   -2.1001825283   -0.1276270869    0.6074973310
 H   -1.5665218036   -0.6559742067   -2.0954423008
 H    1.2691977858   -0.7695838939   -1.8174751036
 H    3.0341834545   -0.7723202434    0.4012118997
 H    2.4069484443    0.9295190719    0.3751519795
 H    0.7517266078   -0.8914639298    2.0853571631