18

 C    0.1792494213    1.5155900371   -0.2431556110
 C   -0.0387082350    0.0553718112   -0.0938581438
 C   -1.1171670447   -0.7461997894    0.1196554070
 N   -0.6864901521   -2.0753887446    0.1707682565
 C    0.5888408651   -2.0075780634   -0.0089632147
 O    1.0707573572   -0.7592835841   -0.1778426464
 C   -2.5368311383   -0.3923731002    0.2837364310
 C   -3.6117356237   -1.3160040383   -0.2545377774
 C   -3.4102325058   -1.1946752717    1.2280027698
 H    0.8548987888    1.9037168757    0.5277202060
 H    0.6168348932    1.7611538414   -1.2176256865
 H   -0.7721029277    2.0450937137   -0.1566862902
 H    1.3045038955   -2.8144520706   -0.0399779706
 H   -2.7431223993    0.6711409906    0.2247112482
 H   -4.4896108381   -0.8623742629   -0.7011646934
 H   -3.2709575391   -2.2276168136   -0.7312805801
 H   -2.9355527665   -2.0256870385    1.7364760910
 H   -4.1478769209   -0.6566175425    1.8130606347