18

 O    0.2694763396    0.1186465284   -0.2548118896
 C    0.0568846088    1.2772697722   -0.0547515505
 C   -1.1753381197    2.1550586359   -0.1035146878
 N   -1.1316417299    2.9359662322    1.1858565039
 C   -0.3039339484    3.3695439910    0.0564224444
 C    0.9869620237    2.5288594597    0.1326849187
 C    1.8756481735    2.6452918965    1.3382879643
 C    3.2432686104    2.0097710241    1.3259679219
 C    3.1138677523    3.5111619961    1.2950848306
 H   -2.1109513198    2.0115569295   -0.6284310538
 H   -1.9806881650    3.5016464359    1.1933493643
 H   -0.4309276051    4.3375708193   -0.4104894711
 H    1.5687289689    2.6226904062   -0.7937236906
 H    1.3366741311    2.6188689162    2.2789986577
 H    3.5947778303    1.5382200168    2.2365826051
 H    3.5593129318    1.5068592957    0.4182158154
 H    3.3456858410    4.0221708394    0.3659172157
 H    3.3763123866    4.0716851150    2.1854308714