16

 N    0.0183342672    1.4170906170    0.0990953072
 C   -0.0986076905    0.0281298342    0.0071741959
 N   -1.2441717557   -0.5124764784    0.0943066689
 C   -1.3875186306   -1.9501425293    0.1231408313
 C   -0.5006113661   -2.6961952577   -0.8652415182
 O    0.8431443618   -2.8791334343   -0.3983894123
 C    1.6730701519   -1.8602438710   -0.1462945141
 O    2.8458028956   -2.0542405515    0.0449385843
 N    1.1757157170   -0.5523758603   -0.1218829521
 H    0.6341699365    1.8392497366   -0.5841250410
 H   -0.8968998876    1.8466145658    0.0960241482
 H   -1.2032709119   -2.3542442919    1.1298496374
 H   -2.4313118117   -2.1849008275   -0.1169769297
 H   -0.8621077852   -3.7158346115   -1.0150439822
 H   -0.4908770470   -2.1837448878   -1.8346345831
 H    1.9376683263    0.0755977573    0.0932466297