25

 C    0.2355318257    1.4504363497    0.3809536384
 C    0.2431661617   -0.0808423938    0.2837595184
 C    0.5683320742   -0.5800321158   -1.1257319864
 C    2.0899613400   -0.5667366818   -1.5052021507
 O    2.9960356894    0.2616611840   -0.8120275051
 C    2.1463712904   -2.0947982948   -1.2809359960
 C    0.5880657517   -2.1412027899   -1.3560393928
 C   -0.1021989982   -3.0283123878   -0.3227895815
 C    0.0958931158   -2.4941016223   -2.7646059249
 H    1.2037438123    1.8634389193    0.0872227165
 H   -0.5248033344    1.8765631289   -0.2829834770
 H    0.0107983994    1.7822556694    1.3997774553
 H    0.9551172311   -0.4912317911    1.0144104055
 H   -0.7368871662   -0.4696984951    0.5855116794
 H   -0.0725208677   -0.0445367674   -1.8361407438
 H    2.2253462019   -0.3088227682   -2.5585086119
 H    2.9963516307   -0.0029351963    0.1134936351
 H    2.7127761057   -2.6977572239   -1.9963368645
 H    2.5065704324   -2.3300539595   -0.2723195693
 H    0.2266973553   -2.8073683789    0.6967344094
 H   -1.1918105790   -2.9109671370   -0.3564381439
 H    0.1194957045   -4.0838833575   -0.5195331913
 H    0.2963574610   -3.5461828110   -2.9985405578
 H   -0.9846646538   -2.3319863233   -2.8524230031
 H    0.5847706159   -1.8851250258   -3.5320892180