21

 C   -0.8586443037    1.1361763551   -0.1132531448
 C    0.0388885913   -0.0907383744   -0.1200392985
 C    1.4339001696    0.0172504539   -0.7321482653
 O    1.9807696670    0.8400660395   -1.4186790036
 C    2.0256607316   -0.9819639690    0.2530900107
 O    3.3388948634   -0.7711202981    0.6725964429
 C    0.7915853262   -0.6043972878    1.1779305349
 C    1.1607052282    0.5214894222    2.1430289070
 C    0.1334749262   -1.7763188453    1.8979163249
 H   -0.3364736450    2.0142255161    0.2752987855
 H   -1.1869290716    1.3724938035   -1.1298130316
 H   -1.7514970699    0.9689646921    0.4976461074
 H   -0.4852029431   -0.9453346982   -0.5662642538
 H    1.9051820668   -2.0178311551   -0.0922707220
 H    3.6525788629    0.0221581519    0.2189447326
 H    1.6172066495    1.3741493419    1.6299477309
 H    0.2775277001    0.8859876277    2.6770971471
 H    1.8841394935    0.1617055108    2.8799610774
 H    0.7876302882   -2.1704456694    2.6834398846
 H   -0.8069879447   -1.4715434863    2.3712533920
 H   -0.0906069065   -2.5941737012    1.2045956516