21

 C   -0.0708382516    1.5020881704   -0.0023317144
 C    0.0232681870   -0.0195064816    0.0002739666
 C    0.8549451171   -0.5997457955   -1.1668761012
 O    1.4133035098   -1.8339549339   -0.6973905102
 C    0.9488320050   -2.0477832005    0.6363809922
 C    0.7821044772   -0.6328656774    1.1947669008
 C   -0.4149886449   -2.7541262700    0.6057099889
 O   -1.3336312057   -2.0633079260   -0.2261101493
 C   -1.3809818374   -0.6630517194   -0.0099452307
 H    0.9216950886    1.9551286060    0.0901012210
 H   -0.5246710038    1.8732719043   -0.9283136619
 H   -0.6818432535    1.8635123759    0.8320740862
 H    0.2423408112   -0.7885872634   -2.0561272140
 H    1.6741257966    0.0774356362   -1.4448428575
 H    1.6859886846   -2.6634321954    1.1605142529
 H    1.7543723052   -0.1528543486    1.3464010084
 H    0.2177380229   -0.5912580696    2.1309185311
 H   -0.3190120588   -3.7542080474    0.1742333386
 H   -0.8021923534   -2.8537709501    1.6349078323
 H   -1.8948367417   -0.4274436697    0.9384375086
 H   -1.9873427544   -0.2609334543   -0.8287322386