19

 C    0.0383993760    1.5305647591   -0.0117989351
 C    0.0262725500   -0.0057180983   -0.0477589452
 C    0.7423708625   -0.5260561251   -1.3009290259
 C    0.6223715368   -0.5501951364    1.2510945232
 C    0.8381682353   -2.0693573783    1.4484263911
 C    2.3115227180   -1.6836453366    1.6812041531
 O    2.0489169476   -0.3011324019    1.3664031463
 H    1.0657250235    1.9002543352    0.0696215657
 H   -0.4023858518    1.9501180057   -0.9214598197
 H   -0.5255428088    1.9150866827    0.8447324065
 H   -1.0202195544   -0.3453377221   -0.0697401827
 H    1.8018582745   -0.2555841226   -1.2718129703
 H    0.6715754361   -1.6138311865   -1.3986765137
 H    0.3037152404   -0.0887556152   -2.2031342701
 H    0.0930446069   -0.0911054049    2.0998308433
 H    0.3165295457   -2.5149496566    2.2967028795
 H    0.6607181305   -2.6786530481    0.5610098147
 H    2.6652795073   -1.8056389547    2.7132505662
 H    3.0486757841   -2.1254075154    1.0005061130