20

 C   -0.0872392008    1.5661398626   -0.0557232129
 C    0.0158424655    0.0390129110    0.0729693110
 C    0.7809388522   -0.5636311222   -1.1194299369
 O    0.5778445452   -0.3929053296   -2.3012057608
 N    1.7756819726   -1.3359338631   -0.5627516585
 C    1.7733198646   -1.2685746891    0.8508290210
 C    2.8093032113   -2.0427511222    1.5944728312
 C    0.7719302009   -0.4827949390    1.2797470179
 C    0.3830615472   -0.1560537839    2.6848811048
 H    0.9009239086    2.0315881779    0.0153163487
 H   -0.5171100917    1.8225223826   -1.0275477286
 H   -0.7204575004    1.9873790810    0.7302063456
 H   -1.0015888545   -0.3785834023    0.0469851881
 H    2.4641757880   -1.8165516113   -1.1185418184
 H    3.8206028973   -1.7233579577    1.3127443794
 H    2.7035637326   -1.9116807981    2.6722773714
 H    2.7362557301   -3.1149789907    1.3738912228
 H    1.0351042899   -0.6419313743    3.4155001994
 H    0.4227321577    0.9239419365    2.8763144189
 H   -0.6464109763   -0.4723936680    2.9005063260