15

 N    0.0422527224   -1.1242779202   -0.0290348818
 C    0.0117087637    0.0321603695   -0.0031233430
 C   -0.0545875604    1.4677847088    0.0288789841
 C   -1.0365664789    2.2871109764    0.9032323524
 N   -0.8574999704    3.4178635816   -0.0726688741
 C    0.6111891057    3.7001477370   -0.0555777607
 C    0.9126503853    2.9790402633   -1.3353366744
 C    1.2513678690    2.3104551836   -0.0140433937
 C   -0.5062249683    2.3978656789   -1.1679517440
 H   -2.0613591690    1.9111426891    0.8503944871
 H   -0.7558087558    2.5034040528    1.9367238136
 H    1.0403102116    4.5902051174    0.3840622868
 H    1.5153483906    3.2376442200   -2.1934868550
 H    2.2119426324    2.0809191809    0.4236280927
 H   -1.2488261180    2.1382288207   -1.9183065200