23

 C   -1.6218600885   -0.9901772294    2.3225752806
 C   -0.7966848470   -0.8574173565    1.0598391143
 C   -0.6876347108    0.4658319365    0.3385666831
 C    0.5403595798   -0.1512161845    0.9762905120
 C    1.3449160662    0.4443649534    2.1409954244
 C    1.8852599457   -0.6691094037    3.0484781288
 C    2.5163266708    1.2607645255    1.5349174572
 C    0.5519276273    1.4588188573    2.9552338868
 O    0.3688169124    1.4096860977    4.1451455337
 H   -1.5512264869   -0.1100212900    2.9657859395
 H   -2.6793505956   -1.1281538673    2.0708173178
 H   -1.3086183480   -1.8562250051    2.9155005969
 H   -0.8678042287   -1.7286343797    0.4125597317
 H   -0.7490222416    0.4916912582   -0.7441370089
 H   -1.1513732061    1.3208575367    0.8186648447
 H    1.2183999387   -0.6093973913    0.2583064832
 H    2.4669841815   -1.3864403649    2.4608928121
 H    2.5301668091   -0.2584557062    3.8301746749
 H    1.0714605763   -1.2062544584    3.5398066080
 H    2.1501659539    2.0633684728    0.8866631015
 H    3.1372928174    1.7055222865    2.3191920452
 H    3.1517832373    0.6050459661    0.9315623828
 H    0.1785063069    2.3245013765    2.3615675399