18

 C   -0.1167078682    1.2625369656    0.1887149915
 C    0.7221162572    0.2001342280   -0.4781927877
 O    1.8860670889    0.0050197805   -0.2008019626
 C    0.0428991593   -0.6724802384   -1.5409159643
 C   -0.1064418225   -2.1068010991   -1.0518114427
 C    0.4619477283   -3.2367782374   -1.8620010024
 N    1.0813723976   -2.8718452021   -0.6006329728
 C   -1.3039110429   -2.3941319665   -0.2093852735
 O   -2.1736463002   -1.5935803191    0.0359976435
 H   -0.4462482086    1.9942060576   -0.5592582111
 H   -1.0242073023    0.8049894958    0.5973599551
 H    0.4525606539    1.7655667028    0.9709010278
 H   -0.9433964480   -0.2847114742   -1.8057769333
 H    0.6827767447   -0.6504496750   -2.4280368440
 H   -0.0321027923   -4.2052280910   -1.8708390863
 H    0.9319684681   -2.9569025343   -2.8014760901
 H    1.8993186575   -2.2767825572   -0.7228685781
 H   -1.3233926405   -3.4285689962    0.1951748110