18

 C    0.0777195781    1.2963256822    0.2280156343
 O   -0.0335060723   -0.1233795149    0.0928384138
 C   -1.2866738686   -0.6045198727   -0.0219823283
 N   -2.3116959198    0.1480521223   -0.0118260790
 N   -1.2540159829   -1.9789335278   -0.1448485534
 C   -2.3570870664   -2.9328588209   -0.2943805753
 C   -1.2860280936   -4.0639349162   -0.3370670715
 C   -0.2405681822   -2.9635194562   -0.1775060698
 N    1.0157351125   -2.9734875805   -0.1074744359
 H    1.1466330987    1.4972187299    0.3067321322
 H   -0.3470045063    1.8013090784   -0.6429384071
 H   -0.4468541411    1.6410341644    1.1224269296
 H   -3.1710999684   -0.3860250444   -0.1090892860
 H   -3.0351116117   -2.9577108044    0.5646819145
 H   -2.9343689400   -2.7953530127   -1.2142573521
 H   -1.3238811031   -4.7719403963    0.4918844522
 H   -1.2237021248   -4.6099091396   -1.2793642612
 H    1.3815367318   -2.0273588305   -0.0004810870