18

 C    0.2139504972    0.6873897452   -0.6450354847
 N   -0.1537793067    0.0222496515    0.5867085216
 C    0.6692070079   -0.7931792739    1.0697545255
 O    0.4048868079   -1.4189407147    2.2410568254
 C    1.3010030015   -2.4332505424    2.6524001525
 C    0.8949851127   -3.8018950836    2.0700859366
 O    0.9612384085   -3.8001950051    0.6487109822
 C    1.7078563867   -4.8635769016    2.6633351704
 C    2.4293665235   -5.7030514573    3.1321605720
 H    1.2039034538    0.3971223324   -1.0346750306
 H   -0.5341237709    0.4717801154   -1.4164019766
 H    0.2104374093    1.7729497179   -0.4932689620
 H    1.6439786116   -1.0492035744    0.6297456893
 H    2.3331049779   -2.1999722710    2.3561338348
 H    1.2553305189   -2.4681391667    3.7439946470
 H   -0.1630018334   -3.9592014286    2.3098670123
 H    1.8757403434   -3.9712842580    0.3970224808
 H    3.0440572802   -6.4623878550    3.5498364834