18

 C   -0.5508574931    1.6428216107   -0.2318676110
 C    0.0487835865    0.2958196128    0.1262694645
 O    1.2133529534    0.1705092207    0.4305248710
 C   -0.8890866801   -0.8949786140    0.0474021791
 C   -0.9716198425   -1.5617590027   -1.3853639920
 C   -0.6882904290   -2.8811554047   -0.6993705647
 C   -0.3661282388   -2.2393472492    0.6310595769
 N   -0.8190265297   -4.0588019644   -1.1431827797
 O   -0.5154560248   -5.0064062783   -0.1476191109
 H    0.2326821459    2.3985708833   -0.2952923361
 H   -1.0983277449    1.5867666579   -1.1791944540
 H   -1.2772390497    1.9357698865    0.5356649684
 H   -1.8851329126   -0.6224333264    0.4048293602
 H   -1.9228290445   -1.4754341973   -1.9149575250
 H   -0.1638036262   -1.2396830020   -2.0511065155
 H    0.7067127534   -2.1889487581    0.8416148169
 H   -0.8844352861   -2.6478198089    1.5011558134
 H   -0.6619467772   -5.8387229157   -0.6095462917