14

 C    0.0879460640    1.4958140142    0.0010171700
 C   -0.0682717626    0.0213446963    0.0327488216
 C   -1.1211580636   -0.8432110938   -0.0513792386
 N   -2.5106003986   -0.9323276153   -0.1968882066
 C   -2.7248366766   -2.1999235810   -0.1782095651
 O   -1.6331020701   -3.0397203308   -0.0340453554
 C   -0.5930555461   -2.1555896404    0.0480666308
 C    0.7496951885   -2.0777181064    0.1889591202
 O    1.0644368691   -0.7363415137    0.1785927828
 H    0.7253756115    1.8164574912   -0.8308227273
 H   -0.8934912562    1.9594335538   -0.1188047290
 H    0.5381280565    1.8741813424    0.9258299277
 H   -3.6753202630   -2.7058935562   -0.2631554715
 H    1.5706345572   -2.7618000105    0.2991044803