23

 C    0.0107134393    1.6071084091    0.2998528373
 C   -0.0235782395    0.0995768761   -0.0125609492
 C   -1.4156748934   -0.4627123094   -0.0656630155
 C   -2.0864119157   -0.9313499138   -1.1324843750
 C   -1.6179928616   -1.0584305631   -2.5491247464
 C   -3.4882931404   -1.3873254708   -0.7570561059
 C   -3.5419847884   -1.2325745186    0.7588044028
 C   -2.5618877049   -2.0222713821    1.5878371030
 C   -2.2338546680   -0.5970389358    1.1843186669
 H    1.0416657350    1.9711712563    0.3524643579
 H   -0.5133117008    2.1772796676   -0.4736310940
 H   -0.4692927244    1.8293108553    1.2582668261
 H    0.4962278452   -0.0808270181   -0.9590692946
 H    0.5487015227   -0.4332234419    0.7595364287
 H   -1.6361377224   -2.1046710824   -2.8819520488
 H   -2.2785762038   -0.5073640260   -3.2318737978
 H   -0.6025511878   -0.6813537864   -2.6926860232
 H   -4.2480941675   -0.7650741926   -1.2524147880
 H   -3.6833365750   -2.4184605516   -1.0835085663
 H   -4.4774990668   -0.9437440258    1.2230976371
 H   -2.8310294177   -2.2049328902    2.6234695389
 H   -1.9993482628   -2.8230820308    1.1171732667
 H   -2.1807165414    0.1639159349    1.9558962894