19

 C    0.4082896287    0.3192859083    0.6890127467
 C   -0.1993782730    0.2716977969   -0.7170812609
 N    0.5860660417   -0.2841637346   -1.8059737112
 C    1.7405261456   -0.7325232689   -1.6008115729
 O    2.4534529003   -1.2493700201   -2.6347962779
 C    3.7537407777   -1.6779323441   -2.3158974753
 C    3.9447298075   -3.0383555464   -1.6992949515
 C    4.2901313700   -2.7903105653   -3.1535005614
 H    0.6485308788   -0.6809339577    1.0653341700
 H    1.3220812456    0.9225663146    0.7184625004
 H   -0.3085300634    0.7700586724    1.3820040069
 H   -1.1415136656   -0.2918750148   -0.6838609055
 H   -0.4867271808    1.2876879894   -1.0193829610
 H    2.2732001455   -0.7639941020   -0.6430764311
 H    4.4237976499   -0.8719653262   -2.0248276381
 H    4.7478331973   -3.1726921592   -0.9832176742
 H    3.0492904733   -3.6146524836   -1.4962890421
 H    3.6156818396   -3.1961411157   -3.8982628394
 H    5.3322345513   -2.7557826630   -3.4488748513