15

 C   -0.4097859669    1.3296059342    0.6228518739
 C   -0.1110484062   -0.0938074251    0.2001024399
 O    0.7565816158   -0.6767581254    1.2090251826
 C    1.0743574605   -1.9538286437    1.0336995584
 O    0.7251434187   -2.6712797437    0.1326161714
 C    2.0255780538   -2.4714682127    2.1165582950
 O    3.1487099250   -2.0620783747    2.2628334067
 C    1.4935258367   -3.6108523019    2.9916652591
 O    0.3297338046   -3.9012065647    3.0423044222
 H    0.5100211258    1.9151050742    0.7021737259
 H   -1.0584681990    1.8035918988   -0.1195303934
 H   -0.9193845610    1.3512229678    1.5898867955
 H   -1.0142842346   -0.7061561786    0.1270824593
 H    0.4050613513   -0.1417135896   -0.7631683338
 H    2.2831518955   -4.0880408450    3.6082368073