24

 C   -0.4181935359   -2.2006647717    6.2425445098
 C   -0.0064813482   -2.8789671082    4.9297612682
 C    0.8886941596   -1.9810184011    4.0964723433
 C    2.3840519165   -1.9793887510    4.2054408434
 C    3.1426936141   -2.8798777747    5.1307746652
 C    4.6484890546   -2.9596367940    5.0114720648
 C    4.0251731392   -2.2587537180    6.1895621752
 N    1.7202150256   -2.4469866686    2.9835107402
 C    1.7568590764   -3.8548532971    2.6174764409
 H   -0.9209659891   -1.2462438457    6.0515357355
 H   -1.1058606853   -2.8302694318    6.8153965728
 H    0.4558181531   -1.9947650815    6.8686352625
 H    0.4772717217   -3.8344107344    5.1501092366
 H   -0.9044724096   -3.1208999179    4.3459566318
 H    0.4150246135   -1.0205175976    3.8822597377
 H    2.8918378340   -1.0231293838    4.0622526061
 H    2.6498912333   -3.8003065766    5.4210198221
 H    5.1266563050   -3.9192669159    5.1734015228
 H    5.1241241915   -2.3473434235    4.2523973345
 H    4.0833646734   -1.1756805423    6.2240700843
 H    4.0728325521   -2.7361620376    7.1618642969
 H    1.7165952670   -4.5717118897    3.4496929296
 H    0.9141515226   -4.0671659221    1.9512239892
 H    2.6794831549   -4.0461679052    2.0600308365