14

 O   -0.0795744544    1.3727839779   -0.0445959522
 C   -0.0612270235   -0.0175772873    0.0393832560
 C   -0.5328362316   -0.6983939773    1.3100968557
 C   -0.9123907667    0.0997815709    2.5028167037
 O   -0.7705411757   -0.3033481590    3.6318297176
 C   -1.3971456412   -0.6900947863    0.0140632492
 C   -2.6578667426    0.1005805810   -0.0771960434
 O   -3.6588660883   -0.3409947723   -0.5848518628
 H    0.7147407333    1.7160005052    0.3790155935
 H    0.7462454727   -0.5085612473   -0.5024772075
 H   -0.0945467307   -1.6591837772    1.5583511705
 H   -1.3159715281    1.1124061237    2.3013734676
 H   -1.4666096728   -1.6503594574   -0.4847558758
 H   -2.6218209204    1.1283941154    0.3308725380