16

 O    0.1559158602    1.3433967998   -0.1385152799
 C    0.0149926775   -0.0324520210    0.0119617993
 C    0.3212936032   -0.6452071082    1.4365579976
 C   -0.8601353907   -0.0323084044    2.2031246127
 C   -1.9099701798   -0.0153830937    1.3763576686
 C   -1.4537441962   -0.6162935830    0.0385026769
 C   -1.0753026743   -2.0808621991    0.2745513253
 C   -0.0263362833   -2.0979593727    1.1009857312
 H   -0.3808706843    1.7569748071    0.5515725903
 H    0.6226424521   -0.4936597773   -0.7690767659
 H    1.3121027558   -0.4650254852    1.8523398634
 H   -0.8249727215    0.2714725544    3.2408917375
 H   -2.9208347558    0.3053093586    1.5903429877
 H   -2.0862367166   -0.4096186350   -0.8242151612
 H   -1.5896388432   -2.9221978580   -0.1697446262
 H    0.5089106270   -2.9564108122    1.4835527629