12

 N    0.0056559761   -1.0490561416   -0.5818127239
 C   -0.0041064907    0.0392836310   -0.1959188201
 C    0.0029151360    1.4131591810    0.3050885513
 C    1.3874596220    2.0319699733    0.2234832788
 O    1.7718543206    2.5979669993   -1.0200246206
 C    1.5791654735    3.4911186270    0.0791638169
 C    0.4452714992    4.3873432374    0.0004353284
 N   -0.4584404076    5.1066233751   -0.0387380711
 H   -0.7092967661    2.0155533330   -0.2667363512
 H   -0.3331093729    1.4100062769    1.3487945071
 H    2.1762529121    1.4794470536    0.7331667031
 H    2.4854656877    3.9448916839    0.4747112814