16

 C    0.0298906132    1.5619225005    0.1181189922
 C   -0.0047074770    0.0363222842   -0.0934428813
 C   -1.3952578272   -0.5244868537   -0.0442892790
 C   -2.0673939479   -1.0117301226   -1.1210096495
 N   -3.3492031378   -1.5220062295   -1.1058388205
 N   -3.9872279320   -1.5639433423   -0.0039706014
 N   -3.3752149298   -1.1064454357    1.0995217583
 C   -2.0902117595   -0.5594332664    1.2345153264
 O   -1.6790537683   -0.1890902581    2.3183142440
 H    1.0618157324    1.9228264431    0.0884846790
 H   -0.5349883571    2.0801596475   -0.6628367773
 H   -0.3981242374    1.8208866943    1.0887923782
 H    0.4552338704   -0.2231310826   -1.0525669380
 H    0.5856602568   -0.4411484383    0.6970769280
 H   -1.6082303383   -1.0272627691   -2.1049806728
 H   -3.9371114306   -1.1729801915    1.9398922438