18

 C   -0.1169898461    1.4997512691   -0.0387993304
 C    0.0239506828    0.0103835047   -0.0364679870
 C    0.8232067170   -0.8958689673   -1.0165210855
 C    2.2531818792   -0.8886700573   -0.4172648181
 C    2.1229109279   -0.9181336561    0.9211969364
 C    0.6090489400   -0.9393099528    1.0583852652
 C   -0.7765726100   -0.9756806352    1.7241523328
 N   -1.1775268616   -0.9422652848    0.2352793212
 C    0.0457455852   -1.8348763080   -0.0714847570
 H    0.8718728246    1.9697866664   -0.0720309480
 H   -0.6859199195    1.8301392478   -0.9140062145
 H   -0.6397273727    1.8546263021    0.8552524942
 H    0.7051746343   -0.8786722802   -2.1013711969
 H    3.1669649108   -0.8626488893   -0.9950847141
 H    2.8910641032   -0.9151537607    1.6806142778
 H   -1.0773991256   -1.8989243071    2.2288556976
 H   -1.1095467101   -0.1008627333    2.2904128000
 H   -0.0366867794   -2.9244282181   -0.0773301338