17

 O   -0.1293962342    1.6021993040   -0.1414020877
 C    0.0777068919    0.2341186807    0.0191748791
 C   -0.1800665613   -0.4029623104    1.3494700467
 C   -1.1404281836   -0.6769799637    0.1890122557
 C   -2.4261224225   -0.0533313420    0.1505306986
 C   -3.4673995606    0.5491854073    0.0791345650
 C    1.2017889019   -0.2513789697   -0.8467415928
 C    2.5509820184   -0.4780875180   -0.3149175398
 O    1.6704178077   -1.5736875289   -0.5940582256
 H   -1.0734176712    1.7490315632   -0.2942736952
 H    0.4422689926   -1.2363979186    1.6536715466
 H   -0.5331730653    0.2498376447    2.1384666383
 H   -1.0673575066   -1.6603751589   -0.2641234436
 H   -4.4093666671    1.0384289461    0.0424041000
 H    1.0960914217    0.0079732789   -1.9006061813
 H    3.4123727996   -0.3963249974   -0.9748238376
 H    2.7430933585   -0.2950266673    0.7404280136