16

 O   -0.0376281815    1.4365769608    0.0049005397
 C    0.0325267037    0.0178738962    0.0059594153
 C    0.5676302265   -0.5862110841    1.3463168386
 C   -0.6842409904   -1.2976506497    1.8399889440
 C   -1.4107332469   -1.9541301919    0.6288298780
 O   -2.7241722025   -1.7063942661    1.2357923585
 C   -1.9492939068   -0.4738906372    1.4574064449
 C   -1.3847007389   -0.5274957483    0.0080180282
 H    0.8608407584    1.7813179538    0.0055108454
 H    0.6085956550   -0.3388429442   -0.8601208563
 H    1.4066828296   -1.2737481059    1.1967559182
 H    0.8953599706    0.2121142984    2.0196101499
 H   -0.6863563606   -1.8297317375    2.7904551523
 H   -1.2412532498   -2.9217582126    0.1543713591
 H   -2.4344468328    0.3487318879    1.9813247414
 H   -2.0498553637   -0.3003922895   -0.8229622671