16

 C    0.0160700499    1.5520486064   -0.0429097077
 C   -0.0176086205    0.0579683107    0.0402019582
 C   -1.1099556905   -0.7554372917    0.0636237064
 N   -2.4232883678   -0.4035557508    0.1088795404
 C   -0.7071038836   -2.2055070274    0.0463587478
 O   -0.0124691684   -2.5712706015   -1.1586881441
 C    0.7513686811   -2.2274944944    0.0162395496
 C    1.2001680636   -0.7608708663    0.0391782137
 O    2.3529014925   -0.3816503814    0.0592262001
 H    1.0538254094    1.8773738325   -0.1536279538
 H   -0.5536865410    1.9365418673   -0.8992190100
 H   -0.3873961024    2.0277533872    0.8598194410
 H   -2.6686645365    0.5562920244   -0.0772685143
 H   -3.1132459766   -1.0821845424   -0.1704307084
 H   -1.3256243487   -2.9734997857    0.5021003082
 H    1.3710470095   -3.0125264068    0.4369474328