13

 N    0.1194755681    1.2782865456   -0.6969042419
 C   -0.0049766273    0.0198335935   -0.1939706232
 N    1.1740037341   -0.6620898102   -0.0175174427
 N   -1.1025836202   -0.6012805432    0.1354900584
 C   -2.3102678335    0.0041984786    0.1275965762
 N   -3.4196624591   -0.6052627032    0.4958634851
 O   -4.3920618941    0.3309171340    0.3416995958
 N   -3.8414443623    1.5035966005   -0.1244776291
 N   -2.6042502326    1.3223207557   -0.2569304425
 H    1.0090343436    1.7419518061   -0.6130950431
 H   -0.7106950787    1.8558991393   -0.6991641763
 H    1.9280783084   -0.4605390554   -0.6558640873
 H    1.0393408535   -1.6410478113    0.1848416407