20

 C   -0.0585319350    1.5896989788   -0.1808108662
 C    0.0325336730    0.0784580627   -0.0297825556
 N    1.1032514464   -0.5689151143   -0.8030807679
 C    1.7616332301   -1.1117854228    0.2703245149
 O    2.7647838395   -1.7705258462    0.3708111672
 C    0.7186652635   -0.5205228947    1.2521165147
 C    1.2612441501    0.3984350538    2.3426604620
 C    1.9800618447   -0.3972007781    3.4401900891
 O    2.4778055264    0.4376342124    4.4741875606
 H    0.9086597611    2.0697296744   -0.0099430026
 H   -0.3942860781    1.8552126134   -1.1889647560
 H   -0.7831866515    2.0034561537    0.5278354632
 H   -0.9486144772   -0.3728843319   -0.2218442469
 H    1.2775211867   -0.6321282846   -1.7957319621
 H    0.1091552545   -1.3143242300    1.6973846684
 H    1.9652448371    1.1226853793    1.9129915291
 H    0.4490390123    0.9767091543    2.7989895050
 H    1.2716129861   -1.0795566443    3.9239486507
 H    2.7716169395   -1.0134229594    2.9924967922
 H    3.2329521209    0.9197906634    4.1234846702