14

 C   -0.0091673856    1.4258333472   -0.0585952488
 N   -0.0180216774   -0.0277380804   -0.0764686457
 C   -1.0954368264   -0.6629328504   -0.0694771280
 O   -2.3753843526   -0.0952405330   -0.0293035162
 C   -3.3415298519   -1.0529873721    0.2314782758
 O   -4.4672602574   -0.7702310497    0.4939537421
 C   -2.6834300485   -2.4066801771    0.1330944027
 O   -2.0830047709   -2.5800881649   -1.1557721693
 C   -1.2515964021   -2.1453463640   -0.0711049229
 H    0.6476024369    1.7579546578    0.7515607415
 H    0.4358602773    1.7808354610   -0.9943652871
 H   -0.9969814588    1.8809719054    0.0622185467
 H   -3.1201187157   -3.2752281606    0.6108317428
 H   -0.4409340168   -2.7964781593    0.2306617463