17

 C    0.0301739606    1.4799332517   -0.0653524985
 C    0.0302640213   -0.0166322244   -0.0702240212
 N    0.6753092559   -0.8721096684   -1.1260732710
 C    0.0993618357   -1.8812117970   -0.1795456379
 C    0.4508790528   -1.0130820433    1.0544109525
 O   -0.8725320258   -1.0912913766    1.6545615076
 C   -1.1544081746   -1.0253975155    0.2199604098
 C   -2.5706684473   -1.0536540412   -0.2538162181
 H    1.0518563941    1.8682175407   -0.1201512279
 H   -0.5327121129    1.8820506724   -0.9149985964
 H   -0.4344282943    1.8446875878    0.8563383707
 H    0.1256934803   -0.8433365672   -1.9895720144
 H    0.1911017166   -2.9599142789   -0.3100303878
 H    1.3285010204   -1.0223183203    1.6986630168
 H   -3.1301703302   -0.2027145774    0.1470251270
 H   -2.6041339785   -1.0052118176   -1.3475731158
 H   -3.0670711840   -1.9750558949    0.0657310745