18

 N   -0.3004020429    1.2165895222   -0.3759951625
 C    0.0193039386   -0.1620511775    0.0191789073
 C   -1.2862927965   -1.0078827188    0.1388408295
 C   -1.3139938788   -1.8794718141   -1.1055942738
 C   -1.0949705055   -1.2624027923   -2.4398222095
 N    0.0175658050   -1.9223942458   -1.7411159477
 C    0.8894544479   -1.0186498923   -0.9835170688
 C    0.7175185078   -0.0781685951    1.3141050160
 N    1.2941335057   -0.0307890253    2.3144946988
 H    0.5402674955    1.7156877569   -0.6502301825
 H   -0.9370756167    1.2280281136   -1.1632932267
 H   -1.2444043792   -1.6437830603    1.0262518042
 H   -2.1521881635   -0.3495722458    0.2462511228
 H   -1.8482443331   -2.8230102491   -1.0401117165
 H   -1.4327504511   -1.7826428526   -3.3316836057
 H   -1.0882758902   -0.1809192621   -2.5386397187
 H    1.4633313354   -0.3700991647   -1.6530019802
 H    1.5979332616   -1.6366184469   -0.4240207759