18

 O    0.9491757776   -0.0613871397    0.1877656567
 C    0.5726472485    1.0570674060   -0.0006246260
 O    1.2553349945    2.1373244472    0.4102665975
 C    0.7299914746    3.4492913389    0.1019672651
 C    0.7132051877    4.2892031968    1.4006178328
 C    1.9421919777    5.2372997971    1.3204629251
 C    2.7776183156    4.7162946638    0.1339341832
 C    1.7146543079    4.1676811218   -0.8293383165
 H   -0.3701241318    1.3172285673   -0.5223904355
 H   -0.2652113949    3.3268038093   -0.3389130372
 H   -0.2224517429    4.8483614143    1.4863022885
 H    0.7658894908    3.6139211279    2.2574275915
 H    1.6118810965    6.2623327273    1.1204394307
 H    2.5085472825    5.2623334017    2.2543971503
 H    3.4091704526    5.4868519098   -0.3153514034
 H    3.4297057080    3.8982396124    0.4577755962
 H    2.1054041397    3.5026406433   -1.6033774773
 H    1.1907708953    4.9940082248   -1.3261178317