23

 C    0.3270572505    1.6471540599   -0.6948161632
 C    0.3946640518    0.1664466116   -0.3777820980
 C    1.6231638579   -0.6966936428   -0.4453739480
 C    2.8562873589    0.0194295781    0.1264319361
 C    2.1353282826    0.1169263786    1.5174978861
 C    2.0559658348    1.4331167828    2.2877797848
 C    3.4005922596    1.8494009617    2.8720449468
 O    3.2193339319    3.0750968242    3.5664011244
 C    0.8774738887   -0.5012574115    0.8872218589
 H    1.2573591154    2.1731771367   -0.4724748900
 H    0.1194720656    1.7940120657   -1.7609340637
 H   -0.4739153325    2.1377754650   -0.1309195568
 H   -0.4734592102   -0.3696137927   -0.7609333674
 H    1.6673673517   -1.5813047777   -1.0700256228
 H    3.7489143072   -0.6087857512    0.1555882456
 H    3.1244671631    0.9668708696   -0.3535648748
 H    2.5826812163   -0.6372090946    2.1767141299
 H    1.6885825256    2.2465508386    1.6555095683
 H    1.3375302772    1.3315110385    3.1112136455
 H    3.7718247216    1.0602175351    3.5473167958
 H    4.1418786650    1.9571307127    2.0629322954
 H    4.0686558963    3.3438306065    3.9282532413
 H    0.2365641209   -1.2055594749    1.4073492856