14

 N   -0.0536513447    1.3484787368   -0.1790431476
 C    0.0352431116    0.0153886976   -0.0048367847
 N    1.2508579669   -0.5560425549    0.1260243680
 H    1.2877153753   -1.5649522858    0.1360575335
 H    2.0769783510   -0.0652414409   -0.1726677785
 C   -1.1325998667   -0.7451288395    0.0353636625
 C   -1.3445569094   -2.1361536191    0.0845156921
 O   -0.3766114040   -3.0809292012    0.1201276909
 N   -2.6327704471   -2.3780004331    0.0916616486
 N   -3.2524842889   -1.1410466069    0.0470160175
 N   -2.3888192171   -0.1760503548    0.0152061566
 H    0.7019468536    1.9553130986    0.0916175438
 H   -0.9959331053    1.7158000125   -0.1518389307
 H   -0.8205484152   -3.9392616694    0.1426366881