23

 C   -0.5064202626    1.5709565512    0.3244254544
 C    0.1948726356    0.2606104361   -0.0527001454
 C    0.8663377680   -0.4039991879    1.1329848413
 C    0.0819190573   -1.2922824553    2.0643405405
 O   -1.2758339728   -1.4644423783    1.7689763099
 C    1.1265918649   -1.8895075928    1.1548062607
 C    0.8315677627   -2.9340666957    0.0703221338
 C    1.9065781199   -3.8515478548    0.7281184465
 C    2.3791964856   -2.6525572919    1.6041957341
 H    0.1976174021    2.2870238626    0.7633529560
 H   -0.9588228601    2.0445428110   -0.5528791998
 H   -1.2976339301    1.3856719586    1.0569218725
 H   -0.5358112115   -0.4283485678   -0.4861863021
 H    0.9470072245    0.4517709649   -0.8293375144
 H    1.6244491541    0.2083342520    1.6201549954
 H    0.3119160480   -1.2413217926    3.1303410410
 H   -1.5161545620   -2.3731512740    1.9785310529
 H   -0.1917703898   -3.3190410405    0.0312707665
 H    1.1072126991   -2.6042068168   -0.9362616590
 H    1.4643837239   -4.6559165079    1.3214800089
 H    2.6501635411   -4.2882067374    0.0580716346
 H    3.3076953986   -2.2010676293    1.2389734623
 H    2.4868447634   -2.8363624833    2.6778732395