14

 N    0.0661879376    1.4592924201    0.0774620635
 C    0.0033348354    0.0402789011    0.0104094877
 C   -1.1165428887   -0.7063066921    0.0786350958
 O   -1.1082025185   -2.0393273837    0.0876093900
 C    0.1344375431   -2.7597067892   -0.0571157179
 O    0.0292463855   -3.9489641167   -0.1237340467
 N    1.2807429536   -2.0271713047   -0.0813464337
 C    1.2377973112   -0.7176416003   -0.0376631506
 N    2.3953761196   -0.0206200204   -0.0577998275
 H    0.2481421594    1.8743437583   -0.8325822506
 H   -0.7946135605    1.8585013163    0.4340850789
 H   -2.1169744762   -0.2884341778    0.1539724061
 H    3.2483250853   -0.5446696487    0.0580563174
 H    2.3642571533    0.9413509579    0.2419567176