20

 C    0.2869468104    1.3282793741   -0.3211455057
 O    0.2859899277   -0.0705904080   -0.1726959086
 C    0.4727603555   -0.4793047671    1.1656701916
 C    0.4622473138   -1.9850914092    1.1950592394
 N    1.7570777881   -2.6754652709    1.0874614120
 C    0.9784962234   -2.8062410658    2.3229190524
 C    1.5863884513   -2.2214247897    3.5921814249
 C    2.4147175579   -3.1899603300    4.3032533902
 C    3.0806540756   -4.0080938436    4.8789278786
 H    1.2441312943    1.7729589244   -0.0056152709
 H    0.1298486957    1.5452688685   -1.3804898133
 H   -0.5188081502    1.8031193743    0.2621447311
 H    1.4268223457   -0.0962556277    1.5584203695
 H   -0.3376543978   -0.0804159112    1.8022958026
 H   -0.3800190581   -2.4058598591    0.6476430243
 H    1.6824763205   -3.5104873780    0.5141710681
 H    0.4617854127   -3.7491604214    2.4937726213
 H    2.1873922350   -1.3435973175    3.3341539015
 H    0.7816199412   -1.8750721526    4.2543476529
 H    3.6793610774   -4.7208220794    5.3894570781