10

 O   -0.0421869625   -0.0118993420    0.1331895940
 C   -0.0324847068    1.1591735631   -0.0438892047
 O    1.0926116482    1.9079888948    0.2707835489
 C    1.0226126775    3.2505561452    0.1643200280
 N   -0.0672098871    3.9572912348    0.2904388634
 O    0.3372897152    5.2546364173    0.1226998197
 N    1.6841547154    5.3392077394   -0.0897331519
 C    2.1273498170    4.1152007174   -0.0700818189
 H   -0.8392822359    1.7774900736   -0.4621179726
 H    3.1688274792    3.8771346565   -0.2136690359