21

 C   -0.4489191714    1.2598699385   -0.2157650167
 C   -0.1435057994   -0.1753350180    0.1539194948
 C    1.1573856131   -0.8878929886   -0.1872221324
 C    2.3562998829   -0.0242373450   -0.3970373726
 C    2.7084317661    0.6228968188    0.7165907914
 C    1.8393554479    0.2346881379    1.8980753028
 C    1.3249373029    1.4073662712    2.7348643716
 O    2.4588417178    2.0307428330    3.3269682739
 C    0.7637487006   -0.6576749534    1.2694912527
 H    0.4491977375    1.8803507143   -0.2339741652
 H   -0.9032079628    1.3044334866   -1.2124124790
 H   -1.1591878569    1.7072005542    0.4886227668
 H   -1.0102545266   -0.8247119659    0.0428579899
 H    1.1082574285   -1.8645829617   -0.6577552643
 H    2.8454048654    0.0744431847   -1.3601331891
 H    3.5087430158    1.3464964522    0.8126209178
 H    2.4394711620   -0.3733120863    2.5924346950
 H    0.7671688049    2.1160254137    2.1082514927
 H    0.6334872954    1.0286438183    3.5044010743
 H    2.1594076066    2.8104473960    3.8031106649
 H    0.3909947696   -1.4798434905    1.8703829809