21

 C   -0.0496089185    1.5353748110   -0.0531387579
 N   -0.0044853657    0.0783438659    0.0189607756
 C    0.7084604793   -0.4198627331    1.1961680452
 C    2.1989192767   -0.0764130413    1.1878018541
 C    2.9587365694   -0.8115008288    2.2860560686
 O    4.3045683511   -0.3663995231    2.2481510107
 C   -1.3386323292   -0.5022111451   -0.0506103490
 C   -1.9882143175   -0.2490110551   -1.3429463693
 N   -2.5158494620   -0.0506071089   -2.3510759355
 H    0.9620874000    1.9382906800   -0.1213658733
 H   -0.5910714608    1.8409316859   -0.9519212088
 H   -0.5476031912    1.9905171322    0.8241299176
 H    0.2463102566   -0.0507971742    2.1343639441
 H    0.5991577734   -1.5117616970    1.2036039626
 H    2.6260623106   -0.3384127438    0.2141638292
 H    2.3587902900    0.9965290110    1.3340687108
 H    2.4964868232   -0.6021475043    3.2653248796
 H    2.8922614772   -1.8997267391    2.1221218269
 H    4.7958101021   -0.8304060133    2.9322176465
 H   -1.2613775726   -1.5876213559    0.0768651505
 H   -2.0184347024   -0.1366669929    0.7449350716