20

 C   -0.0734403748    1.5939531504    0.1034651296
 C   -0.0243948918    0.0669619022   -0.0063520041
 N   -1.3408840801   -0.5460275438   -0.0173933552
 C   -2.0751596569   -0.8620897991    1.1181877654
 C   -3.3383254375   -1.2414449650    0.7238193395
 N   -4.4286547277   -1.5847960169    1.5514090804
 C   -3.3746757798   -1.1660334228   -0.6992013724
 C   -2.1324819513   -0.7345710005   -1.1203557936
 N   -1.6319935076   -0.4234699915   -2.4067459781
 H    0.9403024774    2.0061104097    0.1442959834
 H   -0.5855716702    2.0186498983   -0.7637093705
 H   -0.6085930391    1.9013909771    1.0065473349
 H    0.4959287715   -0.2206490291   -0.9228463238
 H    0.5348266852   -0.3601112757    0.8329511191
 H   -1.6273275227   -0.8024784078    2.0973670942
 H   -4.1296642591   -1.8444099403    2.4834591603
 H   -4.9676661363   -2.3516544142    1.1671846420
 H   -4.2082934124   -1.4167810229   -1.3387380721
 H   -2.3958690022   -0.2057401819   -3.0350671935
 H   -1.1158882746   -1.1974641263   -2.8170840655