19

 C    0.0535071115    1.5462447444   -0.3015749094
 C    0.0403503986    0.0270865587   -0.1228594836
 C    0.8179198997   -0.7227562258   -1.2310111544
 N    2.2322894788   -0.4104704349   -1.2668882666
 C    2.7135123237    0.4067887453   -2.2751851140
 N    4.0931426553    0.3931035027   -2.3920761011
 O    1.9952169914    1.0679928679   -3.0035072332
 C    0.6400470023   -2.2148832007   -1.0387352918
 O    1.5518116728   -2.9884450108   -0.8777416276
 H    1.0735505264    1.9361128491   -0.2597433215
 H   -0.3689002192    1.8357138081   -1.2677416385
 H   -0.5275574910    2.0286591874    0.4903297539
 H    0.4712390706   -0.2412858181    0.8498344497
 H   -0.9948821659   -0.3382515064   -0.1214553636
 H    0.3736847124   -0.4482159116   -2.1987677899
 H    2.8095399570   -1.2006068836   -1.0035700311
 H    4.6378322742    0.1868784335   -1.5688649621
 H    4.4512361383    1.1476075138   -2.9566524086
 H   -0.4159133470   -2.5585934691   -1.0263101068