13

 O   -0.0686190701    0.0511519256    0.1032210418
 C   -0.0681913808    1.2422710480    0.0957278187
 C   -1.1391210667    2.3357533473   -0.0837048980
 C   -0.8665274856    3.2264745286    1.1414790899
 N    0.4812171700    3.5891980711    0.5537865431
 C    0.0182834413    3.1634342742   -0.7664886154
 C    1.0198848900    2.2969592119   -0.0170601832
 C    2.4251604517    2.1490066012   -0.1879804853
 N    3.5601289481    1.9866319131   -0.3361273279
 H   -2.1238296495    2.0885437564   -0.4679491674
 H   -1.4625104592    4.1402174961    1.1691993905
 H   -0.8367521955    2.7568669140    2.1291617213
 H    0.1565661464    3.6825103326   -1.7044587282