13

 N    0.1181004594    1.3943388370    0.1647116636
 C   -0.0003419615    0.0251730991    0.0420318255
 C   -1.0516354611   -0.8348354708   -0.0091489250
 O   -0.6038509407   -2.1682392736   -0.0372662674
 C    0.7276780537   -2.0869902112   -0.0131428391
 N    1.7495999606   -2.9122511279   -0.0458597623
 C    2.7861200062   -2.0159207126   -0.0090497764
 N    2.4774745195   -0.7176108282    0.0409426872
 N    1.1182662232   -0.7981569990    0.0418844647
 H    0.9803049439    1.7519619127   -0.2261261264
 H   -0.6845311741    1.9121030398   -0.1627788248
 H   -2.1158640405   -0.6932836370   -0.0136884135
 H    3.8177656014   -2.3348124984   -0.0192921160