21

 C    0.0469723851    1.3908214805   -0.0455642638
 N    0.0616463425   -0.0553251182   -0.0912588278
 C   -1.0505217329   -0.6438628239   -0.0249573433
 O   -1.1122908302   -1.9861399359   -0.0615690057
 C   -2.4048410139   -2.6488535481    0.0153074214
 C   -3.2790877900   -2.2553878540   -1.1826536997
 C   -2.0378246155   -4.1325476241   -0.0571560965
 C   -3.0891142152   -2.3322318660    1.3516162071
 H    0.6473883180    1.7407526767    0.8024755470
 H    0.5143678831    1.7949069899   -0.9513194722
 H   -0.9617018865    1.8291150343    0.0444722359
 H   -2.0142310115   -0.1230618401    0.0641987735
 H   -2.7457870968   -2.4435208073   -2.1186936052
 H   -4.1994477936   -2.8472210273   -1.1848625213
 H   -3.5653668042   -1.2002814753   -1.1553081498
 H   -1.3813103161   -4.4022376505    0.7741537203
 H   -2.9374219469   -4.7527594122   -0.0089440792
 H   -1.5129333644   -4.3485138145   -0.9913191813
 H   -3.3725171598   -1.2789497818    1.4305352904
 H   -4.0009645759   -2.9280966380    1.4555815630
 H   -2.4228348452   -2.5731493743    2.1846881671