19

 C   -0.3444314108    1.4250746014   -0.0985039044
 N   -0.0078123985    0.0118576877    0.0597541572
 C    1.3013724664   -0.5077926835   -0.3758808722
 C    2.4043719626    0.3299544702   -0.9031286516
 O    2.6218650482    1.4970078661   -0.6548289133
 C    0.8811088817   -0.4538173721    1.0971976100
 C    1.5532892428    0.5066885637    2.0596363278
 C    0.4683785253   -1.7738332832    1.7248381070
 H    0.4962321445    2.1169794339   -0.0006938429
 H   -0.7852923990    1.5589307489   -1.0910341530
 H   -1.1098773752    1.6711627513    0.6441067415
 H    1.2418847095   -1.4766884620   -0.8700055887
 H    3.0698209881   -0.2260100909   -1.6017876241
 H    1.9989849970    1.3639839620    1.5571355166
 H    0.8210048414    0.8672524331    2.7913208933
 H    2.3405133126   -0.0124328506    2.6154513562
 H    1.3410329083   -2.3195703507    2.0991054011
 H   -0.2023795235   -1.5931604795    2.5727786020
 H   -0.0609999416   -2.3985826258    1.0023537074