18

 C   -0.0465386762    1.4639225321   -0.1320375885
 C   -0.1299491555   -0.0194452852   -0.0496536443
 C   -1.1783319101   -0.8954520482   -0.0299953008
 C   -2.6456813469   -0.5895819537   -0.1077805769
 O   -2.9734395444    0.3683791278   -1.1108466151
 C   -0.5429155853   -2.1738758077    0.0712732972
 C   -1.1770531084   -3.5271022734    0.1378574155
 N    0.7635867831   -2.0637237525    0.1072516951
 O    1.0286098844   -0.6957203366    0.0262476362
 H    0.7100672437    1.7689561053   -0.8613289773
 H   -1.0160533582    1.8650221693   -0.4297513571
 H    0.2367183311    1.8958821335    0.8345261451
 H   -3.2058729281   -1.5251595127   -0.2551327718
 H   -3.0104994657   -0.1508277205    0.8277959425
 H   -2.6119585985    0.0461249709   -1.9436230111
 H   -1.8186817999   -3.7076732661   -0.7313544683
 H   -0.4038750218   -4.2971193643    0.1648911104
 H   -1.8013861532   -3.6300221380    1.0316260691