20

 C    0.0211704374    1.4723595000   -0.0208997924
 C   -0.0274714133   -0.0258934087    0.0437595841
 C   -0.9730576465   -0.9359746028   -0.6640330356
 C   -1.1487108879   -2.0549895813    0.3827800224
 C   -1.2827782213   -1.2653352788    1.7185367670
 C    0.1645885099   -0.8145619097    1.3639279181
 C    0.3739734634   -2.2171202839    0.7086281032
 C    1.1398179832   -1.9989976913   -0.5818358550
 N    0.4367817887   -0.8229326605   -1.1212614029
 H    1.0191488312    1.8474430505    0.2342818527
 H   -0.2209996612    1.8220982181   -1.0277691890
 H   -0.6922610795    1.9192189855    0.6808359170
 H   -1.7547129180   -0.6265681099   -1.3471494415
 H   -1.7900634416   -2.8990914192    0.1299927072
 H   -2.0599787131   -0.4979025458    1.7859929131
 H   -1.3256271657   -1.9151505392    2.5978408277
 H    0.8498865416   -0.4001454228    2.1040662113
 H    0.6477066599   -3.0354968599    1.3723739433
 H    2.1986120745   -1.7633992242   -0.4271756315
 H    1.0636347281   -2.8369218562   -1.2835135092