17

 C    0.1224014455    1.4412807412    0.4165056371
 C    0.0578062751    0.0203716775    0.1086646557
 C    0.0012398086   -1.1526075396   -0.1542105813
 C   -0.0988200167   -2.5753626605   -0.4601617585
 C   -1.4551523974   -3.1755584531   -0.0781940786
 C   -1.5029779042   -4.5622714119    0.4779151805
 N   -1.7727900954   -3.4102282570    1.3407620072
 C   -2.5699761740   -2.7049098480   -0.8777703888
 N   -3.4387610394   -2.3464945672   -1.5502806577
 H    0.7714917011    1.6342642536    1.2774715209
 H    0.5139748092    2.0128007032   -0.4318185669
 H   -0.8714909119    1.8361176949    0.6527573923
 H    0.0780163341   -2.7487334935   -1.5291682684
 H    0.6792736146   -3.1353728515    0.0748527006
 H   -2.3626556441   -5.1926189264    0.2747069802
 H   -0.5547773221   -5.0871214796    0.5633161162
 H   -0.9602435131   -3.1714532820    1.9051276595