15

 N    0.0984573464    1.3323837717    0.1660405531
 C   -0.0540989858   -0.0244642448    0.0558597338
 N   -1.1946537933   -0.6059588372    0.0478123495
 C   -1.1823888457   -1.9892171819   -0.0000972721
 C   -0.0481596332   -2.7332144619   -0.0505054803
 N    0.0238824342   -4.1174612661   -0.1711220752
 C    1.2284026566   -2.0360942251   -0.0258315889
 N    2.3495365736   -2.6338464709   -0.0315835344
 O    1.1539142272   -0.6492010266    0.0137390807
 H    0.9550751273    1.7138330592   -0.2037914865
 H   -0.7375626120    1.8548792917   -0.0439393604
 H   -2.1593448724   -2.4629057359   -0.0047371169
 H   -0.7377449663   -4.6234828081    0.2564902166
 H    0.9336723736   -4.4722703936    0.0941991987
 H    3.1267150797   -1.9760826306    0.0025669424