21

 C   -0.0761807276    1.5335221697   -0.0410273948
 C    0.0452268720    0.0279923630   -0.0048044949
 C    1.1332620350   -0.7082495116   -0.8454182619
 C    1.0656203132   -1.8158760739    0.2460354441
 C    0.6346095823   -0.6952836459    1.2375329892
 C   -0.1348007227   -2.7287137818   -0.0510246112
 O   -0.5395790433   -3.4819856273    1.0828123750
 C   -1.2685270499   -1.8740401030   -0.6688430134
 O   -1.2577745130   -0.5096397780   -0.2526437541
 H    0.8793298876    2.0041558743    0.2078834840
 H   -0.3850876955    1.8701000007   -1.0355583177
 H   -0.8291625767    1.8703875255    0.6783920841
 H    0.9111001156   -0.9676499725   -1.8835002487
 H    2.0788241240   -0.1620311003   -0.8074418820
 H    1.9604125278   -2.3961135225    0.4774311830
 H    1.5005217094   -0.1745274304    1.6549422410
 H   -0.0686578582   -0.9232312343    2.0448813899
 H    0.1547545189   -3.4868428559   -0.7876373024
 H   -0.7720573584   -2.8645941223    1.7843812305
 H   -1.2010396036   -1.9224140025   -1.7653140060
 H   -2.2375376068   -2.2902931509   -0.3795104737