13

 N    0.1053356059    1.3770328169    0.1380788820
 C   -0.0624971268    0.0017097858    0.0396121034
 C   -1.1865511766   -0.8019087782    0.0230810161
 C   -0.6506328939   -2.1047271374   -0.0019229613
 N    0.6697112773   -2.1487415661   -0.0069498577
 N    1.0076906969   -0.8450323337    0.0265273059
 N   -1.4226111851   -3.3330970754   -0.0349167656
 O   -2.6431658142   -3.1954011296   -0.0169584317
 O   -0.8257719699   -4.3959414869   -0.0777862956
 H    0.7757115147    1.7627364587   -0.5156460223
 H   -0.7697594696    1.8774967054    0.0676828145
 H   -2.2224041791   -0.5142107639    0.0148884991
 H    1.9827414206   -0.5985026657    0.0806235032