19

 C    0.0519439891    1.6091664872    0.0440622773
 C   -0.0135119572    0.0809206287   -0.0084311274
 N    0.6776315783   -0.4805286008   -1.1583308831
 C    2.0247154298   -0.8349026247   -1.2582655142
 C    2.2155563243   -1.2574917514   -2.5424393389
 C    3.4651824605   -1.7624637084   -3.1839189380
 N    1.0236651530   -1.1682861510   -3.2539054314
 C    0.1605573374   -0.7025783209   -2.3917873469
 O   -1.1411308697   -0.4399201049   -2.6228077024
 H    1.0888905415    1.9552897276    0.0834104928
 H   -0.4225340558    2.0442458579   -0.8398266014
 H   -0.4692843254    1.9799286104    0.9321698498
 H    0.4312260295   -0.3552599366    0.8913509917
 H   -1.0537639242   -0.2525904072   -0.0522721361
 H    2.6857325615   -0.7614496195   -0.4104507288
 H    3.3337042372   -2.7838010892   -3.5586591060
 H    3.7494411969   -1.1416457873   -4.0410725975
 H    4.2965590609   -1.7642734625   -2.4735644634
 H   -1.3016820175   -0.6893785574   -3.5413806559