21

 C   -0.0420353202    1.3386066062   -0.2314652706
 O   -0.0940501346    0.0591168318    0.3618239432
 C   -1.3216971772   -0.5871969368    0.1834238102
 C   -1.5358468560   -1.3910353644   -1.1709634535
 C   -0.5739833596   -2.4565892585   -0.5485782404
 C   -1.3269509756   -2.0445599905    0.7599913966
 C   -2.7706467894   -2.4339549398    0.4111476966
 C   -3.7384219605   -3.0921730225    1.3322826514
 C   -2.8969089062   -2.0033361362   -0.8527458551
 H    0.9315737871    1.7703190441    0.0120801382
 H   -0.1454174723    1.2914066668   -1.3253596800
 H   -0.8321459469    1.9973458391    0.1609936415
 H   -2.1568258043    0.0635994033    0.4821780030
 H   -1.3692104543   -0.9472742691   -2.1522414441
 H   -0.6902424403   -3.4886668592   -0.8874114066
 H    0.4726902200   -2.1464567396   -0.5521446305
 H   -0.9457518449   -2.2619776337    1.7579350554
 H   -3.8986193823   -2.4959205273    2.2398955126
 H   -4.7089601295   -3.2395980195    0.8493924858
 H   -3.3736842029   -4.0721234098    1.6666635458
 H   -3.7624673103   -2.0292243842   -1.5009201595