14

 N    0.7058461129    0.6421134041   -1.1320565579
 C    0.2593002589   -0.3603339340   -0.3158766743
 N   -1.0049706987   -0.6630998438   -0.1434119667
 O   -1.0350974106   -1.6441811959    0.8281079179
 N    0.2194993780   -1.9704468315    1.2367251466
 C    1.0316485963   -1.2050317195    0.5598301169
 N    2.3978617336   -1.2678574371    0.8272922923
 C    3.4463029289   -1.0022758435   -0.0134857141
 N    3.3219351011   -0.5361196207   -1.1942472613
 H    1.6335763320    0.4510253329   -1.5113518064
 H    0.0178001320    0.9588357654   -1.8000730845
 H    2.6167741779   -1.7746789766    1.6714799893
 H    4.4023422640   -1.2346349083    0.4661727954
 H    4.2309694635   -0.3944103815   -1.6240727531