20

 C   -0.0644455249    1.4997836123    0.0413815463
 C   -0.0866666635   -0.0360680155    0.0193376494
 C    0.7470240322   -0.6585844002    1.1480688877
 N   -1.4739580218   -0.5715501654   -0.0083034729
 C   -2.2798739488   -0.2760511523    1.1011067035
 O   -3.4057886824   -0.6351972402    1.3104689930
 C   -1.9642585079   -1.3541687837   -1.0862276026
 C   -0.9603620434   -1.7783839268   -2.1528469523
 O   -3.1205838140   -1.6816161612   -1.1655049612
 H    0.9632894135    1.8538180348   -0.0848020165
 H   -0.6708475174    1.9082683273   -0.7718240853
 H   -0.4395941479    1.9086058400    0.9837149263
 H    0.3677092162   -0.3401295324   -0.9206852362
 H    0.7279600546   -1.7506357538    1.0893684534
 H    1.7873433858   -0.3283874693    1.0688873552
 H    0.3814062598   -0.3670468060    2.1369891122
 H   -1.7264673604    0.3574355831    1.8191914453
 H   -0.0930103568   -2.2962317556   -1.7326501121
 H   -1.4920246691   -2.4531085619   -2.8229612559
 H   -0.5965046440   -0.9254320531   -2.7348867273