17

 O    0.1838821034    0.6967307178    0.8783583011
 C   -0.1609860853    0.2296077323   -0.4138708081
 C   -1.5059985946   -0.4668871123   -0.4161022204
 C   -1.9664264782   -1.4889931982   -1.4130049562
 C   -0.8404020710   -2.4578398998   -1.7697330590
 O   -0.5193977710   -2.6857445138   -0.3708778790
 C   -1.6430904654   -1.9134987044    0.0309522543
 C   -2.5327305500   -2.3572586279    1.1115290579
 O   -2.3507299068   -3.3257470821    1.8060805431
 H    0.3510862469   -0.0746094749    1.4305053930
 H   -0.2107259674    1.1173608565   -1.0529822150
 H    0.6133363105   -0.4320709836   -0.8202949630
 H   -2.3206870129    0.1580061620   -0.0550375256
 H   -2.9317134148   -1.4435961459   -1.8994312117
 H   -1.2076722693   -3.3812424866   -2.2286497989
 H    0.0123341357   -2.0726480931   -2.3379496832
 H   -3.4157706501   -1.6896074160    1.2415364808