16

 C   -0.2779970461    1.4651932264    0.0142305534
 C    0.0185043769   -0.0028161371   -0.0270369784
 N    0.1874466999   -0.5328808732   -1.1882966175
 O    0.4650868941   -1.9098224282   -1.2066172982
 C    0.5510015734   -2.6455546069   -0.0562852836
 N    0.8016322075   -3.8903737737   -0.0714938308
 C    0.3353461980   -1.9100106207    1.2044013961
 C    0.4196772582   -2.6751033492    2.4839367074
 N    0.0816428575   -0.6480135178    1.2099057121
 H    0.4874561719    1.9809756804    0.6028967778
 H   -0.3090101370    1.8804444541   -0.9931310746
 H   -1.2371922417    1.6350615354    0.5137140744
 H    0.9205457402   -4.2261065575   -1.0295289405
 H    1.4007880320   -3.1524525427    2.5711732813
 H    0.2432444897   -2.0073191848    3.3271013196
 H   -0.3107743746   -3.4903807444    2.4815428714