18

 C    0.1715904558    1.5842350853   -0.3695515593
 C    0.1053014712    0.1473680827   -0.1430478322
 C    0.0553784855   -1.0421922632    0.0397823555
 C   -0.0264113441   -2.4758212363    0.2666325530
 C    0.3833309927   -2.9423902215    1.6912458619
 C   -0.5027544181   -4.1911762126    1.9297160095
 O   -1.3482869199   -4.3320036056    0.7883756762
 C   -1.4492625695   -3.0675122812    0.1660167227
 H    0.7963267665    1.8224283407   -1.2376050473
 H   -0.8232092263    2.0052226153   -0.5532647446
 H    0.5958108677    2.1056215930    0.4958133850
 H    0.5972788391   -3.0006534060   -0.4673398535
 H    1.4508658172   -3.1618492822    1.7553429367
 H    0.1609051066   -2.1562981741    2.4165718075
 H    0.0739200781   -5.1161014986    2.0262125001
 H   -1.1082410232   -4.0726855791    2.8398034897
 H   -2.1671053943   -2.4100529054    0.6832041387
 H   -1.7875109752   -3.2175252313   -0.8619192196