17

 C    0.4745930601    1.4899129032   -0.2279802771
 C    0.2542368710    0.0147058496    0.0200906043
 O    1.1357462370   -0.8528956954   -0.7563425327
 C    1.4275756865   -1.6695202519    0.3998454417
 C    2.8221268936   -1.2837689262    0.9573530289
 O    3.8248769778   -0.9771850841    0.0445161175
 C    2.1046876752   -0.1597030670    1.7785597990
 O    2.4775015602    0.7482803149    2.4602658187
 C    0.7096507946   -0.6600571068    1.3440670734
 H    1.4962801082    1.7944173741    0.0112586575
 H    0.2749604642    1.7225396957   -1.2787222013
 H   -0.2119810737    2.0798176973    0.3879600507
 H   -0.7873195046   -0.2542994462   -0.2002277036
 H    1.1626216800   -2.7187192942    0.2649004495
 H    3.2010305470   -2.0419518448    1.6565641596
 H    3.3795629379   -0.5320966260   -0.6906145641
 H   -0.0372685951   -0.8842047223    2.1028708979