14

 N    0.0800340546    1.3517014933   -0.2229584703
 C   -0.0198103364    0.0049050688   -0.0969792479
 C   -1.2123002921   -0.6764083759    0.0372997359
 N   -2.4174230498    0.0847027945    0.0988939620
 N   -1.2113584098   -2.0187310968    0.1546619172
 C   -0.0892421876   -2.6850408368    0.1252758196
 C    1.2084470149   -2.0725163675   -0.0485918817
 O    2.2951718987   -2.5746022346   -0.1085076637
 O    1.1405017555   -0.6483053859   -0.1538028796
 H    0.9758047952    1.7681725778   -0.0213275399
 H   -0.7497640668    1.8554710644    0.0570675054
 H   -3.0698066706   -0.3690664568    0.7311355454
 H   -2.8761729655    0.1232693291   -0.8086513562
 H   -0.1049583505   -3.7636206437    0.2394694039