17

 C   -0.0146682539    1.4969601998    0.0172915609
 C    0.0108184742   -0.0004617444   -0.0498492399
 C    0.5689978222   -0.9196505637   -1.2040801491
 C    0.0574423508   -1.9495952306   -0.1190576308
 O    0.1360592842   -3.3194267191   -0.1253392834
 C    0.7058070242   -0.9916271653    0.9460116138
 O    2.1032598613   -0.8823034352    0.9812286390
 C   -1.1429540067   -1.0147863296   -0.0246838657
 O   -2.3375266683   -1.0662373585   -0.0042423230
 H    1.0010223914    1.9040108090    0.0212412283
 H   -0.5482666669    1.9176693434   -0.8404934225
 H   -0.5210117521    1.8371133425    0.9263565167
 H    0.0445376409   -0.8922926398   -2.1602829546
 H    1.6508749373   -0.8888734595   -1.3084609630
 H   -0.7389462129   -3.6738675746   -0.3218856671
 H    0.2791884280   -1.0400397562    1.9558509322
 H    2.4584879763   -1.7149678885    1.3099918981