17

 C   -0.2046848556    1.2679848312   -0.0416421425
 N    0.1497868819   -0.1328894833    0.0655812874
 C    0.5134619883   -0.7245857847   -0.9760708070
 O    0.8575428324   -2.0430398599   -0.9155627559
 C    1.2944394677   -2.6589380134   -2.1240665212
 C    1.7918255926   -4.0532110896   -1.7119250683
 O    0.7765893277   -4.8132933516   -1.1150148531
 C    0.2038477561   -2.7338403263   -3.1139314659
 N   -0.6344029089   -2.7665550175   -3.9077761937
 H    0.4295064975    1.8551851491    0.6311788182
 H   -0.1095289272    1.6778668130   -1.0593550935
 H   -1.2386462585    1.4058865043    0.2920284991
 H    0.5891679491   -0.2812943189   -1.9789260436
 H    2.1240678717   -2.0912900452   -2.5684139581
 H    2.1284865651   -4.5943024615   -2.6005456322
 H    2.6546890028   -3.9022780404   -1.0462984384
 H    0.4533097772   -4.3146729352   -0.3550508711