20

 C   -0.9690023299    1.0968484630   -0.0846433295
 C    0.0935909664    0.0198791252    0.0642580784
 C    1.3412716955    0.0579164118   -0.8647417374
 C    2.2207249029   -0.3405613403    0.3441302828
 C    2.8041404123   -1.7681042639    0.4343595481
 O    4.1428739754   -1.2619382710    0.6030432814
 C    3.6809593748    0.1025333806    0.5292500720
 C    1.0627508467    0.0796639706    1.2801321628
 H   -0.5220340066    2.0967402975   -0.0367440664
 H   -1.4920606123    1.0117366561   -1.0438275055
 H   -1.7198836905    1.0295301076    0.7106640043
 H   -0.3720163767   -0.9709177912    0.0138430728
 H    1.3562303817   -0.6020355462   -1.7371557594
 H    1.5601207993    1.0791638065   -1.1976527637
 H    2.4774518066   -2.3613770982    1.2995727273
 H    2.7076742432   -2.3793675924   -0.4735735738
 H    4.1222801068    0.6417857066   -0.3203018579
 H    3.8920947918    0.6597329207    1.4524220470
 H    1.1919682254    1.1079099638    1.6374611032
 H    0.8527116572   -0.5627196868    2.1404189333