21

 C   -0.0676746108    1.5370781540    0.0903913390
 C    0.0081862091    0.0194025371    0.0179995459
 C    0.6209442748   -0.4849437192   -1.2939749956
 C    0.7798437183   -2.0173827297   -1.3129907555
 C    2.2067458511   -2.5101505982   -1.6340527606
 O    2.4920179599   -2.6992270969   -0.2323763303
 C    1.0824799159   -2.6285768057    0.0806554512
 C    0.7399902808   -1.8100830998    1.3113180447
 O    0.8128007802   -0.4148541224    1.1100954495
 H    0.9328469611    1.9714003075   -0.0000455198
 H   -0.6925219769    1.9320511760   -0.7163787695
 H   -0.4912053289    1.8525206024    1.0474798866
 H   -1.0075815741   -0.4020944206    0.1337486896
 H    0.0163795068   -0.1541624326   -2.1453884257
 H    1.6028237440   -0.0075311874   -1.3910221957
 H   -0.0309568303   -2.4973202866   -1.8648680962
 H    2.2418701316   -3.4602247409   -2.1861495718
 H    2.8912091396   -1.7940148216   -2.1025105176
 H    0.6690943997   -3.6424130613    0.1994802646
 H   -0.2758212169   -2.0930511082    1.6411132879
 H    1.4394431451   -2.0526107761    2.1180150694