20

 C   -0.0283179333    1.3910818911   -0.0578370334
 N    0.0169555683   -0.0552917913   -0.0745498728
 C    0.5601548406   -0.6260514659    0.9065443939
 O    0.6339505841   -1.9718332049    0.9499885368
 C    1.2657340982   -2.6044054325    2.0946936456
 C    2.7493704700   -2.2026043780    2.1919037929
 C    0.4944638951   -2.2873501237    3.3895606552
 C    1.1708083064   -4.0414762560    1.8142605220
 C    1.1168792407   -5.2262626751    1.6288557980
 H    0.4832780220    1.7864286827   -0.9430231550
 H   -1.0696418431    1.7282632163   -0.1172895531
 H    0.4302062945    1.8460537510    0.8365269129
 H    0.9959787863   -0.0946063681    1.7633874310
 H    2.8570089307   -1.1432377809    2.4400846842
 H    3.2397049519   -2.7877817167    2.9737499996
 H    3.2510106921   -2.3986012398    1.2418696342
 H   -0.5603308156   -2.5419604011    3.2662622804
 H    0.9021706781   -2.8755236020    4.2153750876
 H    0.5776341800   -1.2288646751    3.6505821283
 H    1.0611093829   -6.2719400799    1.4504457716