19

 C   -0.0587863710    1.4833772280    0.0089118592
 O    1.1662080606    0.7537113090   -0.0951556793
 C   -0.0679422938    0.0149868069    0.0203937847
 C   -0.2417204476   -0.7229013975    1.3411124725
 C    0.1627190765   -2.1745926402    1.2515694528
 C    0.1632995001   -2.8529848852    0.1032270940
 C   -0.2447450008   -2.2493393945   -1.1892095954
 C   -1.6296997558   -1.6329648028   -1.3055404112
 C   -0.4192634547   -0.7417508831   -1.2224701032
 H   -0.2000598365    2.0329013486    0.9400379666
 H   -0.3644368044    2.0201011810   -0.8891879818
 H    0.3524654951   -0.2016457041    2.0984929491
 H   -1.2890378304   -0.6452523499    1.6689165232
 H    0.4439840376   -2.6681078845    2.1771458722
 H    0.4587588899   -3.8984236415    0.0888699504
 H    0.1491914409   -2.7216316923   -2.0827669667
 H   -2.1403843247   -1.6943178479   -2.2603230698
 H   -2.2803277042   -1.7171743714   -0.4422246857
 H   -0.1210330568   -0.2336873486   -2.1334271817