18

 C    0.0424902521    1.5661149228    0.0100128857
 C   -0.0051945981    0.0270656823    0.0021081929
 C   -1.3655381808   -0.5019567635    0.0122564972
 C   -2.5017626156   -0.9026756123    0.0210723500
 C   -3.8590234889   -1.4344349667    0.0312272310
 C   -3.8836036929   -2.9867323154    0.0232151438
 C   -5.2394543788   -3.5193702912    0.0332624311
 C   -6.3703656594   -3.9265766413    0.0417862438
 H    1.0791215891    1.9159992295    0.0020223698
 H   -0.4665490340    1.9747155260   -0.8670964474
 H   -0.4496786610    1.9651083158    0.9010637489
 H    0.5268290298   -0.3501329109   -0.8808829603
 H    0.5435743848   -0.3596478889    0.8706177762
 H   -4.4016573648   -1.0783432213    0.9148600395
 H   -4.4183999033   -1.0690452080   -0.8380552612
 H   -3.3448555461   -3.3466988166   -0.8608052690
 H   -3.3281840556   -3.3560198947    0.8929565750
 H   -7.3628871965   -4.3023104655    0.0491598230