15

 C   -0.0016334949    1.5641926611   -0.0015163388
 C    0.0456329446    0.0557919192   -0.0816926946
 C    0.6497508352   -0.7417118566   -1.2170234344
 C    1.9515048697   -0.1047216898   -1.6906606834
 O    2.4616832624   -0.0237118511   -0.3283785702
 C    1.3160445119   -0.7256358528    0.1581724263
 C    1.4906506156   -1.7371976057    1.1503910244
 N    1.6092093396   -2.5559265742    1.9596017163
 H    0.9677012991    2.0031301613   -0.2461986695
 H   -0.7529327520    1.9675323120   -0.6878933561
 H   -0.2638454312    1.8826258253    1.0118031671
 H   -0.8218398417   -0.4558458250    0.3298580389
 H    0.1300926464   -1.5529874422   -1.7077869169
 H    2.5735570055   -0.7801493732   -2.2858063167
 H    1.8957212198    0.8772257715   -2.1710448426