11

 O   -0.1293945188    1.3484878825    0.0880420524
 N    0.0397346095   -0.0461987267    0.0642698067
 C   -1.0730168337   -0.6327521506   -0.0309507819
 C   -2.5377542187   -0.2848795327   -0.1273587322
 O   -2.8560357313   -1.6960721631   -0.1865399517
 C   -1.4634921770   -2.0877827653   -0.0965139546
 H    0.7778266118    1.6649013468    0.1615060515
 H   -2.9682640461    0.2124143430    0.7511857527
 H   -2.8400125118    0.2582539557   -1.0318636090
 H   -1.1251082303   -2.6378435109   -0.9837177612
 H   -1.2533844435   -2.6838356186    0.8005772473