14

 O    0.0070701419   -0.0047482259    0.0103788514
 C   -0.0247475757    1.1831333972   -0.0289889676
 C   -1.0602116448    2.3291584917    0.0594878493
 C   -0.0285390223    2.9847983351    1.0141410131
 C    1.0114747473    2.3471785218    0.0291703147
 C    0.6129352557    3.0581371723   -1.2829582113
 O   -0.8353519594    3.0125194734   -1.1924636613
 C    1.0767956797    4.4479681908   -1.3815043380
 N    1.4634529230    5.5343640101   -1.4512760348
 H   -2.1243409174    2.2251285588    0.2473805465
 H   -0.0523158486    4.0745901934    1.0626239977
 H   -0.0020263454    2.5362589041    2.0082124540
 H    2.0674824646    2.2148515622    0.2447390985
 H    0.9472109315    2.5125193449   -2.1726064623