18

 C    0.1911306883    1.5438884551   -0.3226821908
 C    0.0898581176    0.1063163971   -0.1161698394
 C    0.0072820335   -1.0838986229    0.0471240614
 C   -0.0974542475   -2.5170284962    0.2645843196
 C    0.3710906581   -2.9782015423    1.6641489213
 O   -0.2772759786   -4.2371441439    1.8805759294
 C   -1.3981014659   -4.3412608299    1.0979696615
 N   -2.1856510637   -5.3263251401    1.1023100826
 C   -1.5269389952   -3.1021225352    0.2398957280
 H    0.8805011871    1.7801612172   -1.1405782041
 H   -0.7827039608    1.9784921171   -0.5733943141
 H    0.5579348114    2.0498807192    0.5770625437
 H    0.5051812880   -3.0482991096   -0.4831558821
 H    1.4496066604   -3.1319390588    1.7332296000
 H    0.0596890334   -2.2630616638    2.4348573840
 H   -1.8831142274   -6.0228659413    1.7859165833
 H   -2.2305224900   -2.4046291213    0.7072760652
 H   -1.8991438188   -3.3403189703   -0.7558425596