18

 O   -0.0126067664    1.3446703285    0.0276435535
 C    0.0458180855   -0.0488959443   -0.0013808715
 C   -0.4752458555   -0.8098903342    1.2114929641
 C   -1.2911894377   -0.7842017110   -0.0559446123
 N   -2.4263931116    0.0940357012   -0.0987975460
 C   -3.3657812178   -0.0753348151   -1.2054766619
 C   -3.7435885227   -0.4792992629    0.1768317996
 C    1.1635222166   -0.5786567383   -0.7329829613
 C    2.0941949078   -1.0456597867   -1.3342380497
 H   -0.9607298902    1.5554767710    0.0109159313
 H    0.0041075258   -1.7411614944    1.4892557857
 H   -0.8141011002   -0.1876090461    2.0323604983
 H   -1.3443476687   -1.6992692911   -0.6462973225
 H   -3.7557956401    0.8413349185   -1.6370941759
 H   -3.1598508998   -0.8668069514   -1.9227935021
 H   -3.7906942230   -1.5438514380    0.3929469072
 H   -4.4111200371    0.1394573470    0.7690700698
 H    2.9203582252   -1.4456719226   -1.8677710861