19

 C   -0.1383734791    1.5582771279    0.0802926871
 N    0.0239118865    0.1240908572   -0.1550309845
 C    1.0206629678   -0.4242212247    0.7631942133
 C   -1.2436889211   -0.6131659992   -0.1040924199
 C   -2.1708249251   -0.1374343917   -1.2480446170
 O   -1.4919359225   -0.1444394866   -2.4853241286
 C   -1.0003466095   -2.1033558404   -0.3242364697
 O   -1.5753659692   -2.9697632492    0.2808582266
 H    0.8431527771    2.0383445774    0.0322425243
 H   -0.7669252879    2.0130189319   -0.6880927086
 H   -0.5790037106    1.7816533300    1.0683174387
 H    0.7242268481   -0.3252414474    1.8224556049
 H    1.1932134668   -1.4844907490    0.5600825519
 H    1.9702036755    0.1007194525    0.6245274984
 H   -1.7705246703   -0.5034240812    0.8600801059
 H   -3.0264006768   -0.8169660363   -1.3238355906
 H   -2.5723264475    0.8585964838   -1.0064832680
 H   -0.5761298951    0.0916877891   -2.2793623992
 H   -0.2800038471   -2.3361943141   -1.1379671248