19

 C    0.0301267823    1.5685499717   -0.0571905269
 C    0.0092104299    0.1145432303   -0.1035025044
 C   -0.0029752069   -1.0896730898   -0.1289456087
 C    0.0207312074   -2.5283879003   -0.2133288470
 C    1.2041312772   -3.1365205150   -0.9516570944
 O    2.4117216020   -2.9314808169   -0.2495194823
 O   -0.2687517747   -3.2455902344    1.0181498415
 C   -1.2187645735   -3.3248236050   -0.0465289001
 C   -2.5718081162   -2.7105423955    0.1905854626
 H    1.0308380826    1.9558649123   -0.2769028268
 H   -0.6635326774    2.0013609521   -0.7864357376
 H   -0.2584955367    1.9345983258    0.9341441515
 H    1.0034734382   -4.2072590200   -1.1093425737
 H    1.3246050416   -2.6611066091   -1.9297962802
 H    2.2726792350   -3.2752760275    0.6408287480
 H   -1.2326877108   -4.2970165989   -0.5446320750
 H   -2.4758070923   -1.7103368309    0.6168993693
 H   -3.1255045648   -2.6411724339   -0.7517929147
 H   -3.1528734128   -3.3337064151    0.8780484189