20

 C    0.2981238109   -2.8794026440    0.3417130644
 C   -0.0643703906   -1.5101562103    0.9296724427
 C   -1.4998346307   -1.1316460187    0.6185529597
 C   -2.6133640330   -1.4566723168    1.5576759776
 N   -2.2342507057   -0.0697614078    1.3051465920
 C   -1.6113509635    0.6774884086    2.3930344820
 C   -2.6771384967    1.4258229733    3.1910285676
 H    1.3429945891   -3.1331248803    0.5444117372
 H   -0.3305601229   -3.6688274082    0.7664879398
 H    0.1568487445   -2.8927457225   -0.7445548878
 H    0.1046899505   -1.5220521272    2.0109393736
 H    0.6090308448   -0.7468675418    0.5175479786
 H   -1.7249853682   -1.1631640552   -0.4486705168
 H   -3.5905312629   -1.7652915812    1.1944034218
 H   -2.3305680612   -1.8919517697    2.5173036108
 H   -1.0271668434    0.0396592811    3.0773111500
 H   -0.9095705261    1.3934176457    1.9478513335
 H   -2.2188177036    2.0220503036    3.9863598527
 H   -3.2482156713    2.0913651637    2.5378575305
 H   -3.3794035900    0.7252023576    3.6548233899