16

 C    0.1021728334    1.4858165895   -0.0530950202
 C    0.0306241927    0.0026811379    0.1117305391
 C   -1.2883310455   -0.8104504334    0.2671759049
 C   -0.4012305101   -1.9084590643    0.8457146563
 C    0.6778171385   -0.9159499562    1.2299207009
 C    0.9140770845   -1.7765135161    0.0277646570
 O    0.7380552414   -0.7471238470   -0.9355689358
 C    1.8248571004   -2.8480616469   -0.1979019917
 N    2.5600531853   -3.7262575288   -0.3612288931
 H    1.1414536766    1.8244956697   -0.0714175821
 H   -0.3727317809    1.7792758768   -0.9952551977
 H   -0.4192117981    1.9878344761    0.7670738181
 H   -1.9352348435   -0.3844295879    1.0381774993
 H   -1.8487481383   -1.0035888103   -0.6515942857
 H   -0.6711738207   -2.8325022222    1.3390409535
 H    1.2561861042   -0.7450195868    2.1268592573