18

 O    0.0032067347    1.3949269826   -0.0521046206
 C    0.0170035557   -0.0145453325    0.0364875422
 C    0.5899873020   -0.5559645871    1.3793416803
 N   -0.1843385201   -1.7654902260    1.5661539277
 C   -0.1040963616   -2.8730175416    2.3674247175
 C   -1.2214393316   -3.6401026691    2.1073569297
 C   -2.0031516974   -2.9660324627    1.1219158945
 C   -1.3330524330   -1.8048750494    0.8131396746
 C   -1.4294172119   -0.5636368514   -0.0187151845
 H    0.9003057348    1.7013046924   -0.2159536721
 H    0.5949649959   -0.4521828108   -0.7897962820
 H    1.6637767424   -0.7645980875    1.3375148882
 H    0.4042848100    0.1765107586    2.1758079624
 H    0.7278571276   -3.0297774019    3.0349114388
 H   -1.4488042841   -4.5913712107    2.5646919491
 H   -2.9361622517   -3.3031502137    0.6972744780
 H   -2.1012440779    0.1849586520    0.4219691545
 H   -1.7623295640   -0.7378068413   -1.0449824484