21

 C   -0.4556627340    1.3596855740    0.0926031911
 C    0.0343671200   -0.0723286067    0.0188046050
 C   -0.6262872941   -1.0997493200    0.9164361345
 C    0.7897991329   -0.6532156683    1.1933550867
 C    1.9417857319   -1.6190789734    0.9781845655
 C    1.9340495490   -2.2595349020   -0.3820358335
 C    1.2575965487   -1.7727632509   -1.4208957305
 C    0.4219480673   -0.5210870603   -1.3854168805
 O   -0.7279063912   -0.6448639923   -2.2290550705
 H    0.3416985069    2.0641165654   -0.1730813817
 H   -1.2850074704    1.5149254155   -0.6047283685
 H   -0.8021966699    1.6119103968    1.0996187363
 H   -1.4148592448   -0.7614416677    1.5800260701
 H   -0.7613502924   -2.1090236186    0.5386071578
 H    0.9174558205    0.0121466514    2.0431588996
 H    2.8952129445   -1.0881039853    1.1179421168
 H    1.9280579459   -2.3972619591    1.7538965704
 H    2.5334299142   -3.1587319136   -0.5040608173
 H    1.2957679627   -2.2631442611   -2.3903203560
 H    0.9938743294    0.2916674706   -1.8561697208
 H   -1.3029567172   -1.3018095648   -1.8201417348