14

 O   -0.1518972413    0.0684846578    0.4730709607
 C   -0.0492819348    1.2001833644    0.0780365414
 C    1.2427556269    1.9801923213    0.0750532857
 C    1.5212815563    2.9597249381    1.2428087660
 C    3.0037747430    2.4301358185    1.1378677651
 C    2.5869638836    1.2081662061    1.9167553881
 N    2.5146956239    1.2452996832    0.4165158995
 C    1.4463708844    2.0120417088    2.4699030732
 O    0.8826750409    2.0658123453    3.5220786309
 H   -0.9268428187    1.7688561919   -0.3075871648
 H    1.3862749198    2.4546736068   -0.9021522247
 H    1.1527688085    3.9801471192    1.2918566179
 H    3.9712092034    2.8987077242    1.0310168627
 H    3.1864413143    0.4279882244    2.3629473783