16

 O    0.0546786571    0.0885246302    0.1249957913
 C    0.0204453942    1.2841525198    0.1336536681
 C   -1.0600126260    2.3180657369    0.0875695725
 C   -0.4583393519    3.5768874626    0.6542079684
 N   -0.1452444909    3.2148444671   -0.7526944480
 C    1.0445376977    2.4012166645   -0.1092005864
 C    0.9412642593    3.2855623706    1.1298018414
 C    1.9337870764    4.3047296820    1.5927998584
 C    1.5423430075    3.1454090308    2.4916466694
 H   -2.1156074614    2.2091900127   -0.1265833089
 H   -1.0890805985    4.4277765087    0.8917976595
 H    1.9685512608    2.2356134644   -0.6577939944
 H    2.9234661801    4.2964274332    1.1484227003
 H    1.5672104708    5.2943771158    1.8469627119
 H    0.9156505009    3.3544631584    3.3521736767
 H    2.2682478539    2.3548596822    2.6507050396