15

 C    0.1869041898    1.4716928660    0.0513736325
 N   -0.2370536639    0.0982820063   -0.1878879748
 C    0.4562965680   -0.6548848681   -1.1170346401
 C    0.6613991865   -2.0029047774   -1.1303465550
 N    0.3120900248   -3.0030744736   -0.2326315144
 O    1.3342708734   -2.2922321634   -2.3241347759
 C    1.4947191350   -1.0983205901   -2.9082421093
 N    1.0029614247   -0.0888804535   -2.2609018509
 H    1.1856666307    1.5539577393    0.5080636229
 H    0.2066592820    2.0091852774   -0.8980448621
 H   -0.5391036213    1.9552218172    0.7100063166
 H   -0.4135015211   -0.4327338856    0.6542791509
 H   -0.3905815263   -3.6447459242   -0.5873326965
 H    1.1045541305   -3.5446377327    0.0970851428
 H    2.0177294770   -1.0782535477   -3.8524888368