19

 O    0.0016169596    0.0320233335    0.1116296166
 C   -0.0154204994    1.2213829392   -0.0092362347
 C   -1.0952044047    2.3230812812    0.0497497223
 C   -0.0253877443    3.0051763212    0.9678292105
 C    1.0366539035    2.3507065848    0.0210620326
 C    0.9866771648    3.0528233175   -1.4025131254
 C   -0.0724829698    4.1932533655   -1.3877329603
 C   -1.1017550541    3.0257601410   -1.3744095356
 C   -0.0597715807    2.2890639811   -2.2768275936
 H   -2.0885041230    2.0942479516    0.4347104186
 H   -0.0380692714    4.0881536643    1.0682524659
 H   -0.0061505721    2.5547172770    1.9635756248
 H    2.0455471565    2.1478211083    0.3790781785
 H    1.9856219766    3.2440661182   -1.7963778612
 H   -0.0716878696    4.9479178072   -0.6019341978
 H   -0.0921005647    4.7042475609   -2.3534291310
 H   -2.1155543995    3.1909208155   -1.7411886559
 H   -0.0784111813    2.6611173281   -3.3037864681
 H   -0.0457741044    1.1970108239   -2.2882632859