19

 C   -0.0163855373    1.4660043507    0.0402927979
 C    0.0117538399   -0.0267344481   -0.0257120604
 C   -0.0460482934   -0.8299818213   -1.1438501331
 N    0.0437110826   -2.1174853525   -0.6639347430
 C   -0.0353895070   -3.4731685747   -1.1762282843
 C    0.4265241067   -4.3024389244    0.0545699425
 C    0.1538678456   -3.4061398791    1.2969280653
 C    0.1288153138   -2.0362249025    0.6903410715
 N    0.1180820882   -0.7968460008    1.1213591384
 H    0.9022237583    1.8601052943    0.4890768706
 H   -0.1224847368    1.9025518582   -0.9568585631
 H   -0.8501631949    1.8173722588    0.6579413804
 H   -0.1205612283   -0.6020238313   -2.1941484763
 H   -1.0630356155   -3.7153662663   -1.4758820861
 H    0.6119307612   -3.6156822899   -2.0463966548
 H   -0.0804274538   -5.2678601397    0.1061861988
 H    1.4995966964   -4.4961489575   -0.0274602956
 H   -0.8103654488   -3.6448517003    1.7626517224
 H    0.9189737133   -3.5172810538    2.0689590890