19

 O    0.0287699112    1.5558484284   -0.0287940729
 C    0.0945312104    0.1394131880   -0.1536883565
 C   -1.2702578524   -0.5067862270    0.0004710395
 C   -1.4857341122   -2.0421110260    0.0305773046
 C   -0.4341479002   -2.7889226552    0.8701591934
 C   -0.2897167237   -2.1007642526    2.2124596448
 C   -1.0466537571   -1.0322786918    2.4666757147
 C   -2.0081350180   -0.6240747980    1.3712396001
 O   -2.6598134871   -1.8309248485    0.8651052972
 H   -0.1799038335    1.7568203010    0.8890664983
 H    0.4734610844   -0.0507079672   -1.1645680061
 H    0.8185175788   -0.2856771074    0.5538942280
 H   -1.9609699647   -0.0708507900   -0.7259495249
 H   -1.7253214780   -2.5571308454   -0.9038258421
 H   -0.7495355801   -3.8312961481    1.0079949661
 H    0.5295066449   -2.8261304505    0.3435063378
 H    0.4166974278   -2.5013016984    2.9337785905
 H   -0.9977631233   -0.4788622671    3.3987654927
 H   -2.7295301573    0.1421379658    1.6620316850