12

 O    0.0789285305   -0.0826995352   -0.0021656414
 C    0.0389265875    1.1237918520    0.0083602538
 C    1.2073740550    2.0022847845    0.0022944125
 C    1.2999255780    3.3726210526    0.0126579483
 C    2.6815166575    3.6828374509   -0.0004381653
 C    3.3329493523    2.4746215424   -0.0181136212
 O    2.4473552084    1.4484880872   -0.0166275796
 C    4.7112257507    2.1618522169   -0.0365179763
 N    5.8470238218    1.9373722603   -0.0514018315
 H   -0.9175096434    1.6884238343    0.0240521401
 H    0.4725529779    4.0650690286    0.0279077342
 H    3.1478025939    4.6547582055    0.0024435265