19

 O    0.0013714076   -0.0795491640   -0.1633295276
 C   -0.0127214838    1.1233718037    0.0250917785
 N   -1.1824496764    1.8473686289    0.1829707884
 C   -1.2083209726    3.3078930744    0.0999575401
 C   -0.8507778363    3.8319872259   -1.3166739756
 C    0.7122839493    3.8535535987   -1.3383694783
 C    1.1233438646    3.3402522503    0.0676753809
 C   -0.0374977163    3.8259948607    0.9475229820
 N    1.1403810197    1.8796102576    0.1509404129
 H   -2.0027188439    1.3295367162   -0.0909823590
 H   -2.1866820218    3.6501921748    0.4439514052
 H   -1.2774336067    3.1923247459   -2.0928815010
 H   -1.2574516641    4.8379324013   -1.4624314169
 H    1.1347079789    3.2254442864   -2.1262400959
 H    1.0868685827    4.8702363555   -1.4951795082
 H    2.1009658950    3.7097650732    0.3845405189
 H   -0.0519645850    4.9184187956    0.9986355302
 H   -0.0177596901    3.4115510615    1.9567799924
 H    1.9668239493    1.3846519533   -0.1457958572