19

 C    0.0277437470    1.5793447072    0.0344115503
 C    0.0418991258    0.0765729698    0.0711886119
 C   -1.2207679043   -0.7968188928   -0.0760059187
 N   -0.5526003719   -1.8938658215    0.7054070807
 C    0.8860397217   -1.8563204075    0.2615412557
 C    0.3898526333   -0.8982620058    1.2804885371
 C    1.0487654062   -0.7529965518   -0.7553236587
 C    1.3495186780   -0.7311150955   -2.1976838801
 N    2.3659110080   -0.3156868739   -1.1920819726
 H    1.0140531350    2.0007376699    0.2605719102
 H   -0.2752781620    1.9442339415   -0.9546418459
 H   -0.6794422376    1.9858783719    0.7646338269
 H   -2.0729232159   -0.4344703068    0.5062076255
 H   -1.5448893974   -1.0679757816   -1.0879265381
 H    1.4654206253   -2.7613580782    0.3829128129
 H    0.5875953968   -0.7687900247    2.3364934339
 H    1.5875385467   -1.6474825603   -2.7310647411
 H    0.8839006901    0.0391847044   -2.8090598525
 H    2.4317797954    0.7002050459   -1.1705936973