22

 C    0.2883771521    1.5035467012    0.0379936157
 C    0.0761700036   -0.0105829240    0.1130915641
 C   -1.3860258131   -0.4023635211   -0.1365533898
 N   -1.6402195653   -1.8383056274   -0.0539048446
 C   -1.6357175045   -2.4836234001    1.2694742942
 C   -2.9281865234   -3.2361680429    1.6414985421
 O   -2.9561243990   -4.5690423922    1.2078268625
 C   -1.7735334650   -2.5712297933   -1.1817674161
 O   -1.9698163676   -3.7765596299   -1.2374312573
 H    1.3360741476    1.7626285688    0.2136595950
 H    0.0089560323    1.8969599731   -0.9455875606
 H   -0.3140162696    2.0281208620    0.7877538377
 H    0.7065759956   -0.5198014546   -0.6258534062
 H    0.3920077967   -0.3811477258    1.0955854398
 H   -2.0403393313    0.1095292587    0.5804481109
 H   -1.6915742396   -0.0633558602   -1.1322152014
 H   -0.8012637809   -3.1917640800    1.3355627905
 H   -1.4585946578   -1.6874574781    1.9972934753
 H   -2.9967413137   -3.2612743139    2.7360207072
 H   -3.7907673776   -2.6504173243    1.2770731640
 H   -2.6880974226   -4.5572881036    0.2728958092
 H   -1.6888692169   -1.9578830624   -2.0972239421