23

 C    0.2148926673    1.2336177484    0.4483070250
 O   -0.0381428920   -0.1000608485    0.0723980982
 C    0.6075852253   -0.5189383564   -1.1228770543
 C    2.1122135012   -0.7284030984   -0.9162238775
 C   -0.0418377769   -1.8224477226   -1.5853076509
 O    0.0271579050   -2.8488394591   -0.5701621803
 C   -1.4068750373   -2.8334506990   -0.3962527481
 C   -1.5910691986   -1.9579237683   -1.6534819286
 C   -2.5188754369   -0.7530466376   -1.6161441157
 H    1.2608156287    1.4001055076    0.7416405319
 H   -0.0329892695    1.9393402830   -0.3605601723
 H   -0.4218329122    1.4500069857    1.3099524660
 H    0.4441635031    0.2380108026   -1.9114320409
 H    2.5901284173   -1.0239097956   -1.8556107880
 H    2.6045024126    0.1835248109   -0.5689111145
 H    2.2694201934   -1.5196742596   -0.1788454447
 H    0.4782301152   -2.1383627493   -2.5006681385
 H   -1.8326656286   -3.8430222750   -0.4215111138
 H   -1.6911033234   -2.3372773785    0.5400903228
 H   -1.8483400078   -2.5864552381   -2.5119017783
 H   -2.3210973368   -0.1260095149   -0.7459844818
 H   -2.4044952706   -0.1386745896   -2.5164817063
 H   -3.5639170384   -1.0806964479   -1.5799307696