16

 C    0.0309079177    1.5441576137   -0.1911240898
 C   -0.0085883115    0.0453714790    0.0408816661
 N    1.2809506125   -0.6768009426   -0.0115245595
 C    0.5576620022   -0.6395245103    1.2539456991
 C    1.2001110051    0.1262744988    2.4012328125
 C    2.1062477369   -0.7303278664    3.1668254638
 N    2.8105260521   -1.4232011086    3.7652445588
 C   -1.1568351572   -0.6170011010   -0.5468763259
 N   -2.0668039860   -1.1406794509   -1.0322528012
 H    0.9488076406    1.9705997212    0.2151950851
 H    0.0093385407    1.7558334663   -1.2636202220
 H   -0.8311240020    2.0334270704    0.2713085945
 H    1.1894383107   -1.5791358182   -0.4707736003
 H    0.0383371365   -1.5423130199    1.5669797113
 H    1.7659426058    0.9804055237    2.0213658818
 H    0.4268817259    0.5107998350    3.0761935656