18

 C   -0.0213052885    1.5296831019    0.0093922540
 C    0.1124260736    0.0201814869    0.0736297584
 C    1.3733931661   -0.7645780218   -0.1716101324
 C    0.7035647511   -0.7671849919    1.2125837712
 C    1.9182543058   -0.0463874647    1.8244850970
 O    2.6414667114   -0.7891693864    2.7699220158
 C    2.6015563257   -0.0565570881    0.3937217494
 O    3.7080242147   -0.9451181367    0.3594791922
 H    0.8461477278    2.0527176106    0.4198525605
 H   -0.1434434618    1.8622254386   -1.0271618493
 H   -0.9001646163    1.8634817162    0.5714956866
 H   -0.7503260247   -0.4907954138   -0.3513383324
 H    1.4378452915   -1.5499426675   -0.9155730397
 H    0.1623713043   -1.5603488885    1.7157245694
 H    1.7227961030    0.9313161147    2.2759158937
 H    3.0832347767   -1.4896093657    2.2680258664
 H    2.8739554681    0.9114477304   -0.0475571898
 H    4.4619507316   -0.4859781142    0.7460138690