18

 C   -0.0461997559    1.5483327604    0.0008949254
 C    0.0404888959    0.0212792398   -0.0193045192
 C    0.7500733997   -0.5145654961   -1.2692366482
 C    1.0285479395   -1.9981055785   -1.0803344853
 O    1.7757598098   -2.2345814933    0.1221266259
 C    1.4665606287   -1.4332434142    1.1793649930
 N    0.6881871892   -0.4296043296    1.2140857666
 C    2.1635500370   -1.8577942694    2.3613517664
 C    2.7494698891   -2.2156046299    3.3473312003
 H    0.9560241501    1.9890997294   -0.0017989213
 H   -0.5902202733    1.9197977071   -0.8737476217
 H   -0.5593474719    1.8846043491    0.9051542568
 H   -0.9865124973   -0.3743158031   -0.0032676530
 H    0.1444758153   -0.3590243109   -2.1679898087
 H    1.6975414678    0.0186813518   -1.4132440739
 H    0.0909731382   -2.5667319134   -1.0214972217
 H    1.6338230092   -2.4177368650   -1.8870265209
 H    3.2629999589   -2.5238923542    4.2245532595