19

 O   -0.0144594539   -0.0662636771    0.0142571921
 C    0.0416642264    1.1400485826    0.0060064914
 C    1.3043922542    1.9205929217    0.0030052256
 C    2.7497637058    1.3852937364    0.0102517859
 C    2.8919845948    2.9260531344   -0.0012941828
 C    1.7306305881    3.0265934773   -1.0427207983
 C    0.9386595259    4.3087225176   -0.7939364732
 C    0.9352209124    4.3207216978    0.7612940706
 C    1.7260417526    3.0426033277    1.0333281402
 H   -0.8902042977    1.7535877531   -0.0001363696
 H    3.0710789220    0.8652707577    0.9159362372
 H    3.0750009359    0.8514011355   -0.8859096235
 H    3.8129684992    3.5124076920   -0.0037826517
 H    1.9137741596    2.7083576044   -2.0708030149
 H    1.4408222599    5.1823415226   -1.2215833473
 H   -0.0676307018    4.2710111115   -1.2220222266
 H    1.4355068226    5.2008538383    1.1776344935
 H   -0.0729577205    4.2895788463    1.1854490785
 H    1.9046754243    2.7403388602    2.0670103927