16

 C   -0.0131418527    1.4389843442   -0.0061349984
 N   -0.0084753400   -0.0040204944    0.0685215568
 N    0.0633769608   -0.7717677558   -1.0899316588
 N    0.0516433215   -2.0310898718   -0.7451137228
 C   -0.0256825014   -2.1055650450    0.6032958007
 C   -0.0632759701   -0.8426993084    1.1079413487
 O   -0.1409262361   -0.6879631360    2.4370127412
 C   -0.1640217273   -2.0756040590    2.9511000978
 C   -0.0839580133   -3.0813969833    1.7407389320
 H    0.8457253219    1.8592126107    0.5249153620
 H    0.0468212133    1.7027694136   -1.0622237266
 H   -0.9331035689    1.8480995627    0.4211351248
 H    0.6857122600   -2.1698359512    3.6300827739
 H   -1.0894031970   -2.1807176919    3.5208998095
 H   -0.9606703645   -3.7364813507    1.7158406969
 H    0.8012012538   -3.7208166035    1.8188988121