17

 C    0.0056876148    1.4747778435    0.0456014281
 C    0.0213458108   -0.0399441915    0.0001080670
 O    0.6692066476   -0.4999831881    1.2035739929
 C    0.8122739039   -1.8149766989    1.3601880244
 C    1.4689034305   -2.4948312818    2.3499920555
 N    2.2175509449   -1.9904243713    3.4367599363
 C    1.2849763690   -3.8444330358    1.9561289606
 N    0.5830928570   -3.9781945437    0.8540671061
 O    0.2922782257   -2.6554543030    0.4558463391
 H    1.0230196862    1.8730518512    0.0892642378
 H   -0.4810444474    1.8653146721   -0.8526404223
 H   -0.5446971346    1.8315929197    0.9204247360
 H   -0.9916438990   -0.4545052552   -0.0416303964
 H    0.5738989275   -0.4143148305   -0.8686541213
 H    2.3108582669   -0.9836185072    3.3648101411
 H    1.7774483387   -2.1934157701    4.3286577216
 H    1.6443689475   -4.7341474995    2.4555341635