21

 C   -0.3131738733    1.2793179992   -0.1157423097
 C    0.1545011491   -0.1522875860   -0.0595719075
 O   -0.6260644772   -1.0647030203   -0.7944537038
 C   -1.6630099350   -1.7416384552   -0.0683771618
 C   -1.2488810557   -2.1652877153    1.3574609214
 C    0.2815490363   -2.1590562663    1.5124828577
 C    0.8030349298   -0.7749381268    1.1678565637
 C    1.6085451914   -0.5477021814   -0.1031477392
 O    1.9850960270   -1.6195598634   -0.9046781256
 H    0.3971503165    1.9347575130    0.3974098746
 H   -0.4039230491    1.6171883748   -1.1533599582
 H   -1.2889380129    1.4016231677    0.3692710785
 H   -2.5626072463   -1.1116902768   -0.0420221968
 H   -1.8941024923   -2.6167585797   -0.6830350029
 H   -1.6746693389   -1.4729883616    2.0925278004
 H   -1.6688542337   -3.1525217591    1.5760500125
 H    0.5566865552   -2.4291063926    2.5355476727
 H    0.7417377618   -2.9029185506    0.8531361255
 H    1.0104021680   -0.1085095999    2.0003773863
 H    2.3543986006    0.2423713289   -0.0878430208
 H    1.1792106287   -1.8865194386   -1.3705125871