17

 C   -0.0245996158    1.5610095547    0.1016169095
 O    1.3434237792    1.9884518931   -0.0589758669
 C    2.0032242357    0.8489930319   -0.5637422236
 O    1.4665252308    0.5211061563   -1.8305728322
 C    0.3451373047   -0.3839180804   -1.5126615231
 C    0.9720920694   -1.7534103215   -1.3404380571
 C    1.7007576397   -1.6805488526   -0.2206594250
 C    1.5029909151   -0.3126303398    0.3745830096
 C    0.0434846852    0.0393321823   -0.0555553294
 H   -0.3761717596    1.8623497603    1.0940744429
 H   -0.6592189703    2.0384090483   -0.6557966880
 H    3.0691362006    1.0557001397   -0.6392415878
 H   -0.4268571398   -0.2500127412   -2.2690076143
 H    0.9437488912   -2.5523311563   -2.0690744525
 H    2.3777894279   -2.4263445586    0.1756595322
 H    1.7745741938   -0.1587158708    1.4176207048
 H   -0.7441114578   -0.5323177753    0.4332682709