20

 C   -0.1341832500    1.5810725588    0.1482800584
 C   -0.0092620571    0.0671043072    0.0598544925
 C    0.9938370129   -0.5507718189   -0.9865612445
 C    1.7063452666   -1.2692086090    0.1724053399
 C    2.3792680988   -2.6143978060    0.1477635637
 C    3.7524084553   -2.5547669949   -0.4992665376
 O    4.7591798544   -2.9829235966    0.0016027297
 N    2.1828528675   -0.1826022172    1.0678339267
 C    0.7784454487   -0.6588331686    1.1633820249
 H    0.8457821600    2.0339187206    0.3199893342
 H   -0.5493591798    1.9953037358   -0.7768559250
 H   -0.7964540082    1.8746275148    0.9704593855
 H   -0.9939205427   -0.3952413282   -0.0607337532
 H    0.5042048696   -1.2320370022   -1.6868994969
 H    1.6118505471    0.1619090031   -1.5386303997
 H    2.4939144249   -3.0259624233    1.1560256214
 H    1.7667107269   -3.3161715512   -0.4373863856
 H    3.7698339245   -2.0703757778   -1.5021957787
 H    2.6982265010   -0.6224546087    1.8310633686
 H    0.4003275996   -1.0581925076    2.0979690257