22

 C    0.0917571593    1.5225838860   -0.4034420549
 C    0.0081714816    0.0562898130   -0.0384186128
 C    1.2242527734   -0.8337007427   -0.0932989599
 C    0.5761916275   -0.5266751099    1.2406150949
 C    1.2876918636    0.2518100152    2.3005390103
 C    0.7023780850    1.0861606521    3.4721356069
 N    2.2111298329    1.1868928652    3.7475643025
 C    2.2322516348   -0.3094354046    3.3970924326
 C    2.3334387439    1.3981676100    2.2315292563
 H    1.0691036812    1.9485924408   -0.1642533883
 H   -0.0680770989    1.6578044380   -1.4789812727
 H   -0.6681739145    2.1132356506    0.1203990607
 H   -0.9191169711   -0.4136895742   -0.3576014598
 H    1.1364444174   -1.8354611559   -0.4994030487
 H    2.1763826546   -0.3536824990   -0.3003258226
 H   -0.0142390610   -1.3379500155    1.6625917172
 H    0.2357313384    2.0475455964    3.2379045730
 H    0.1510503383    0.5581304735    4.2560420028
 H    1.7971582911   -0.9459324104    4.1736123842
 H    3.2178595829   -0.6730245004    3.0917107503
 H    3.3280825677    1.1663376713    1.8387631078
 H    2.0005733416    2.3882360307    1.9086482203