16

 C    0.1828095959    1.3896382749   -0.4212653735
 C    1.3429706546    2.1353303608    0.2029725736
 O    1.2600259862    2.4442607759    1.5960787588
 C    2.2467289176    1.5002784010    1.1737446795
 C    2.0736795239    0.0609646597    1.6097873248
 C    0.7760115847   -0.5875527331    1.1771369397
 O   -0.4444349781    0.0246073454    1.6000109546
 C   -0.1277475096    0.0474993252    0.2063656515
 H   -0.7142867646    2.0216194460   -0.3935334703
 H    0.4129820475    1.2257743440   -1.4825450818
 H    1.7343588996    2.9525460676   -0.4054156886
 H    3.2699104641    1.8735458120    1.2439939462
 H    2.9041373138   -0.5247057139    1.1932829487
 H    2.1672518456   -0.0031759257    2.7016119511
 H    0.7691623458   -1.6765167461    1.2497617395
 H   -0.7663910969   -0.5975171938   -0.3996464739