18

 N   -0.1350982077    1.3705065281    0.0849143426
 C    0.0441022820   -0.0067435272   -0.0097580511
 O    1.1471780270   -0.5232558245   -0.0310754169
 N   -1.1311782202   -0.7188946011   -0.0535183492
 C   -1.1424499374   -2.1524261551    0.0361156057
 C   -1.5118148861   -2.8438989713    1.4132308277
 C   -2.7201956438   -3.4680168634    0.7165440540
 N   -3.5283176226   -2.3285957741    0.2095283166
 C   -2.3714385369   -2.8274696184   -0.5802027259
 H    0.7105549407    1.8788493318   -0.1254093487
 H   -0.9627257316    1.7633970737   -0.3385716308
 H   -1.9981966182   -0.2686157340    0.1992235795
 H   -0.1931566229   -2.5194978017   -0.3503286771
 H   -0.7550917555   -3.5685124379    1.7202471375
 H   -1.7424953726   -2.1716375790    2.2430058477
 H   -3.1819827737   -4.4286267762    0.9048754274
 H   -4.3688593105   -2.7162635890   -0.2172699182
 H   -2.5048470402   -3.1672905105   -1.6001646106