17

 N   -0.0878160338    1.4599462766    0.1941965012
 C   -0.0326850596    0.0415867783    0.0236801593
 C   -1.3753893597   -0.6797684537   -0.0132618322
 N   -2.0611166605   -0.1970447729   -1.2402347329
 C   -1.0929023305   -1.3122559058   -1.3268059488
 C    0.2842285299   -0.6095568118   -1.4462903559
 N    0.5009761039    0.3676605963   -2.4942399260
 C    1.3903288626   -1.5532266871   -1.3819004704
 N    2.2549593469   -2.3181354817   -1.3103383956
 H    0.8071146913    1.8879659403   -0.0191361769
 H   -0.7757099930    1.8563208421   -0.4383688868
 H    0.6464082854   -0.4029154466    0.7546825155
 H   -1.9446527420   -1.0523170423    0.8281512942
 H   -2.9981839969   -0.5947050691   -1.2545058962
 H   -1.3760622459   -2.2838141683   -1.7123829364
 H    0.7910022472   -0.0847334830   -3.3559550498
 H   -0.3882807153    0.8276373486   -2.6728018621