21

 C    0.5625112146    1.4954467373    0.2186183455
 C    0.0315236293    0.0931638435   -0.0017787466
 C    0.4802024745   -0.6797444614   -1.2604463446
 C    1.0022851368   -1.7408249031   -0.2598290761
 C    0.2096731419   -3.0402952388   -0.2168550155
 C    2.5238459540   -1.9791514843   -0.3231192719
 C    3.0492804899   -2.7772115418    0.7773943221
 C    3.4806197928   -3.4372435428    1.6844949051
 O    0.6605579890   -0.8838862669    0.8633816983
 H    1.6432952742    1.5360633189    0.0509869451
 H    0.0760720244    2.2006597452   -0.4645952565
 H    0.3636569105    1.8209319429    1.2445601060
 H   -1.0580310710    0.0810399828    0.1430232627
 H   -0.3091799942   -1.0120576668   -1.9365790782
 H    1.2621229024   -0.1786871000   -1.8369243413
 H    0.4077285986   -3.6463843101   -1.1080955815
 H    0.4858249499   -3.6230599719    0.6655761020
 H   -0.8626772054   -2.8304409306   -0.1736309569
 H    2.7569974954   -2.4667413477   -1.2797199425
 H    3.0234391186   -1.0036902967   -0.3366423822
 H    3.8637719738   -4.0138138378    2.4894194570