15

 O    0.3488028802    0.4275437761   -1.0271331232
 C    0.1093397542    1.2655091039   -0.1935383327
 O    1.0061121438    1.6785010233    0.7413666460
 C    2.2989441229    1.0723618708    0.6597571237
 C    3.1698802622    1.7855156386   -0.2808362553
 N    3.8685252412    2.3473157087   -1.0083660459
 C   -1.1879453550    1.9708399073   -0.0359760672
 C   -1.8249598568    2.4609984744   -1.3007395087
 N   -2.3762160616    1.3117358792   -0.5976744328
 H    2.7222594979    1.1269386440    1.6647219287
 H    2.2092713694    0.0287668230    0.3477332358
 H   -1.3289614666    2.5129274171    0.8916275989
 H   -2.4208034061    3.3674160643   -1.2565146095
 H   -1.2768051216    2.2980458829   -2.2238835368
 H   -2.0659744141    0.4585835464   -1.0621755311