18

 C    1.0339512020    1.2641256032    0.5801572419
 N    0.6896159264   -0.1333096879    0.4272128173
 C    1.0321644789   -0.7039356505   -0.6513286238
 N    0.7469567385   -2.0410002351   -0.8904900539
 C    0.0315765266   -2.7748320191    0.1542564131
 C    1.1027786773   -2.7116628214   -2.0612846500
 C    1.8453550797   -1.9281810113   -3.1325809279
 O    0.8293186267   -3.8834709352   -2.2217059617
 H    1.5716457549    1.6901876024   -0.2830074194
 H    0.1234054224    1.8525904407    0.7426348248
 H    1.6575214927    1.3947290970    1.4722799994
 H    1.5673420657   -0.1970382522   -1.4585429522
 H   -0.9316422466   -2.2976693213    0.3494851558
 H   -0.1065619547   -3.7948222173   -0.1950647651
 H    0.6088778454   -2.7570484522    1.0816171732
 H    2.8018915843   -1.5423852182   -2.7675317144
 H    2.0306765695   -2.6164780335   -3.9562601621
 H    1.2585805403   -1.0810688781   -3.5001709750