19

 C    0.0817749350    1.6534729121   -0.0037750125
 C   -0.0933384560    0.1298362408    0.0071721007
 C    0.6552657350   -0.5137517001    1.1722900439
 C    0.7395706539   -2.0787406460    1.2979716056
 C    0.0777134497   -2.9445530119    0.2355862344
 N    2.1966845503   -1.9278255942    1.1691199684
 C    2.2003283096   -0.5600695709    1.0576549396
 O    3.0832291208    0.2466598340    0.9174348797
 H    1.1419072502    1.9177609065   -0.0446117795
 H   -0.4221442223    2.1001255629   -0.8661043936
 H   -0.3402802539    2.1041692371    0.9013503345
 H   -1.1587149885   -0.1257917130    0.0722772563
 H    0.2679045248   -0.2838760430   -0.9413786834
 H    0.3481937619   -0.0496999821    2.1157157895
 H    0.4454697823   -2.4286742911    2.2954374480
 H    0.3671176918   -2.6353767468   -0.7721264979
 H    0.3642448375   -3.9941375336    0.3622357032
 H   -1.0126207790   -2.8880159099    0.3181750970
 H    2.9531135470   -2.5944796406    1.2251458261