18

 C    0.0316467173    1.5531532262    0.0231531000
 C    0.0148345553    0.0238164903   -0.0479983721
 C   -1.4040964037   -0.5487277850    0.0329209333
 C   -1.4478514155   -2.1027287342   -0.0185795091
 C   -0.8249541367   -2.6694672467    1.2611054039
 O    0.2581133864   -3.1849058592    1.3184203975
 C   -2.8132503517   -2.5986184234   -0.1414829600
 C   -3.9424343298   -3.0078834168   -0.1949538232
 H    1.0526119900    1.9402201752   -0.0453634892
 H   -0.5486971099    1.9956772473   -0.7939624765
 H   -0.3978576621    1.9113199352    0.9652177863
 H    0.4828144248   -0.3077590086   -0.9836812075
 H    0.6311417799   -0.3904233881    0.7585957299
 H   -1.8996748925   -0.2129919721    0.9531892178
 H   -2.0121319947   -0.1697753656   -0.7955990577
 H   -0.8355647945   -2.4542668683   -0.8570769513
 H   -1.4650881308   -2.5401899827    2.1624630535
 H   -4.9369640018   -3.3740032135   -0.2642396755