17

 C   -0.1113965290    1.5655324512    0.0586652486
 C    0.0329145367    0.0611431905   -0.0290450441
 C    0.6752286538   -0.6770034037   -1.1873423994
 C    1.6301051022    0.1250160652   -2.0547809915
 O    2.6678877785    0.6315392410   -1.1806599661
 C    2.5962033174    0.0473611125    0.0397877999
 O    3.4654094399    0.1145073424    0.8658592673
 C    1.3168693684   -0.7169706799    0.1778862893
 O    1.3679990071   -1.8193828091    1.0114079964
 H    0.7618291320    2.0921355924   -0.3351717183
 H   -0.9882722930    1.9033617852   -0.5045624146
 H   -0.2443546475    1.8781619294    1.0991803504
 H   -0.8016519012   -0.4954627052    0.3918017699
 H    0.1825959329   -1.5415332798   -1.6145211200
 H    2.1093960961   -0.4969732009   -2.8171295028
 H    1.1658715931    0.9868036651   -2.5427780992
 H    2.1012283726   -1.6521529065    1.6207834441