19

 C   -0.0518559474    1.5262126917    0.0825488065
 C   -0.1316025307    0.0034946286    0.2166597437
 C   -1.4829918156   -0.5619094475   -0.2418784746
 C   -1.5389337549   -2.0716533556   -0.1421230107
 C   -1.9181051362   -2.8296504410    1.0780189991
 O   -2.9191376367   -2.0973665185    1.8377086579
 C   -3.8272356685   -2.2451549940    0.7894266762
 O   -4.9744321295   -1.9418078502    0.7869438070
 C   -2.8335310435   -2.9140719786   -0.1222065200
 H    0.9200265625    1.9040155018    0.4141106279
 H   -0.1948772502    1.8402249575   -0.9573670638
 H   -0.8239721276    2.0168231470    0.6849996015
 H    0.6752689090   -0.4597867447   -0.3669012365
 H    0.0408645850   -0.2864604377    1.2605736097
 H   -2.2849405659   -0.1212097084    0.3587197550
 H   -1.6728971976   -0.2693377090   -1.2822735304
 H   -0.7728354196   -2.5864818864   -0.7226020393
 H   -1.3669166989   -3.5931468078    1.6086557570
 H   -3.0383484836   -3.7071800572   -0.8261597962