16

 O   -0.0348887904    1.4175153788   -0.0557819271
 C    0.0480442741    0.0082326294   -0.0326431647
 C    0.1385619495   -0.6231043184    1.3975133948
 C   -1.3843325556   -0.2557110364    1.5236954830
 C   -1.3706878192   -0.6171725699   -0.0069750421
 C   -1.0581831195   -2.1247632196    0.0925586709
 O    0.2771942675   -2.5214107044   -0.2694763713
 C    0.0131528927   -2.1285976559    1.0910149508
 H    0.8561006740    1.7638811756    0.0530644750
 H    0.7453435180   -0.3649972840   -0.7837730899
 H    0.8849454277   -0.3003251785    2.1240663158
 H   -1.9978603379   -0.8769611746    2.1822687189
 H   -1.5565221404    0.8033247829    1.7100683732
 H   -2.1450130324   -0.2862946946   -0.6978583897
 H   -1.8265049131   -2.8830933527   -0.0119493452
 H    0.1693171251   -2.8922065576    1.8455873776