13

 C    0.1274928849    1.4973723500    0.0787393657
 C   -0.0249786096    0.0245404180    0.0525036444
 C   -1.0966366047   -0.8192898758   -0.0337620045
 N   -0.6376176671   -2.1440021567   -0.0146668779
 C    0.6406705768   -2.0286524306    0.0788146505
 O    1.0973251856   -0.7509675472    0.1252734959
 C   -2.4635881915   -0.4722553103   -0.1286848122
 C   -3.6230308728   -0.1586377739   -0.2088983967
 H    0.7374839449    1.8513387342   -0.7597216039
 H   -0.8585657628    1.9611474090    0.0119636968
 H    0.6095516711    1.8331670841    1.0035330852
 H    1.3836757435   -2.8092865001    0.1242631316
 H   -4.6485297382    0.1075350592   -0.2799628450