23

 C   -5.0526270027    0.0358586626   -0.7373989224
 C   -4.1983729479   -1.1960157807   -0.4274136978
 C   -2.7752504609   -1.0979968796   -0.9953023847
 C   -1.9384135665   -2.3111471879   -0.6383482838
 C   -1.8485166024   -3.4921255246   -1.5467012982
 N   -0.6778672360   -2.6575607576   -1.2948213492
 C   -0.1686449483   -1.8431515572   -2.3936652555
 C    0.9166084618   -2.6054057205   -3.1511339783
 H   -6.0589865086   -0.0605405653   -0.3181638950
 H   -4.6034485722    0.9441293069   -0.3205135909
 H   -5.1552159643    0.1851602034   -1.8180899798
 H   -4.1434845930   -1.3405536524    0.6595583840
 H   -4.6835557433   -2.0949238690   -0.8282019724
 H   -2.8294500060   -0.9710244927   -2.0820581890
 H   -2.2922777520   -0.1926652729   -0.6010448303
 H   -1.9088403548   -2.5065422640    0.4346214962
 H   -1.8128916896   -4.5065248768   -1.1570565923
 H   -2.3374140663   -3.3987257711   -2.5175369675
 H   -0.9547852379   -1.5316685468   -3.1016505937
 H    0.2526386628   -0.9266306043   -1.9627143108
 H    1.3335710613   -1.9903197080   -3.9548263982
 H    1.7254840224   -2.8944207442   -2.4744336039
 H    0.5102171545   -3.5182397675   -3.5991200568