21

 C    0.0156381486    1.6129404924    0.3447731452
 C    0.0177654805    0.1025114664    0.1008133791
 C    0.7786562427   -0.7029304382    1.1675297203
 C    0.6341613838   -2.2145325602    0.9523614964
 N    2.1870377852   -0.3203326742    1.2099334764
 C    2.8143296329    0.1212227059    2.3410601904
 C    4.3007852693    0.4107147158    2.1834841278
 O    2.2401536274    0.2735265734    3.4048561670
 H    1.0341727756    2.0117900696    0.3631689480
 H   -0.5374346862    2.1371410725   -0.4404771916
 H   -0.4505402072    1.8561924891    1.3051800010
 H   -1.0134525784   -0.2693682301    0.0682431340
 H    0.4476955140   -0.1175514403   -0.8873589540
 H    0.3936367380   -0.4429439331    2.1579737567
 H    1.1602369650   -2.7688638480    1.7343025272
 H   -0.4195712909   -2.5099996769    0.9708207775
 H    1.0472370911   -2.5172210772   -0.0177044536
 H    2.7362368415   -0.4568424824    0.3761419728
 H    4.6594230537    0.3405556818    1.1529781939
 H    4.5036866810    1.4136699249    2.5662027198
 H    4.8640942723   -0.2940291811    2.8019466457