15

 N   -0.1372091242    1.2747612471   -0.3671117693
 C   -0.0305149553    0.0687784537    0.0226009090
 C   -1.2570965409   -0.8237657022    0.0550219026
 O   -1.1685608719   -1.8197674956    1.0506172054
 C   -0.0500438161   -2.6541715384    0.8414601828
 C    1.2560431522   -1.8821806169    0.8607164775
 N    2.3251948632   -2.4592773449    1.2369197621
 N    1.1426580406   -0.5651903846    0.4232085716
 H    0.7650845749    1.7557305092   -0.3861950207
 H   -2.1282971982   -0.2056744521    0.2709062522
 H   -1.3912752754   -1.2779268526   -0.9419671613
 H   -0.0254895393   -3.3943062263    1.6409806989
 H   -0.1332130783   -3.1858130607   -0.1222267349
 H    3.1412945799   -1.8476091340    1.1616083252
 H    1.9816221787    0.0000452183    0.4511063188