20

 C    0.0909413901    1.2872832255   -0.1525702198
 O   -0.0483761730   -0.0691977277    0.2385758108
 C   -1.3363433261   -0.5335250599    0.1506611062
 C   -2.5129371495   -0.2704133948    1.0932149002
 C   -3.1770050114   -1.4835893314    0.3645064806
 C   -1.7343229843   -1.9745486099   -0.0405984687
 C   -1.9570259649   -1.0400097787   -1.1923193340
 N   -3.4075522068   -1.0984694118   -1.0610846052
 C   -4.1982749142    0.0841129031   -1.3689893720
 H    1.1541337556    1.5292230330   -0.0918025864
 H   -0.2611532372    1.4449261670   -1.1812882248
 H   -0.4662637098    1.9592645728    0.5148343317
 H   -2.2503129558   -0.5448927009    2.1182723652
 H   -3.0310372488    0.6937653630    1.0872278787
 H   -3.9579397952   -2.0667490652    0.8499622812
 H   -1.2088343041   -2.9129481636    0.0509554359
 H   -1.4313664836   -0.9747711121   -2.1377817327
 H   -4.2254716456    0.2163652293   -2.4560220977
 H   -5.2270124977   -0.0725292286   -1.0272824256
 H   -3.8247847177    1.0216002911   -0.9266035335