20

 C   -0.2260098200    1.3844310399   -0.0137297128
 C    0.0448719696   -0.1116179505    0.0895086707
 C    1.2409894258   -0.5695655094   -0.7534813685
 C    2.1818490667   -0.4189187723    0.3790067053
 C    0.9138208445   -0.5327065985    1.3156769109
 C    1.0646824406   -2.0283865784    1.0926258394
 C    1.4559179811   -3.0947113676    2.0541234022
 C    0.1358505740   -3.1772829723    1.2943480437
 N    1.8756188037   -1.7900337775   -0.1275946005
 H    0.6915516608    1.9643272167    0.1354467543
 H   -0.6299361004    1.6465267220   -0.9977944078
 H   -0.9547046345    1.7032007316    0.7391768346
 H   -0.8846249310   -0.6810802247   -0.0316478760
 H    1.4142096782   -0.4344502265   -1.8139378156
 H    3.1823047619   -0.0216236982    0.4839940079
 H    0.7563911185   -0.0880730184    2.2973820030
 H    2.2501054884   -3.7697543837    1.7536630174
 H    1.4222437778   -2.8755983167    3.1165098189
 H   -0.7855897030   -3.0130510384    1.8445023493
 H    0.0632231972   -3.9102046373    0.4979223337