19

 C    0.0718296350    1.5510936202    0.3956942183
 C    1.3322575653    1.9242419646   -0.4209194461
 C    2.0459803086    0.5837920454   -0.7721502557
 O    2.4550574769    0.5695451521   -2.1546144442
 C    3.8436418142    0.2849318058   -2.2760144764
 C    4.3407916056    0.1479846924   -0.8648915972
 C    3.3308499874    0.3192158001   -0.0219059061
 C    0.9658874658   -0.4451191835   -0.4983068547
 C   -0.0855041457    0.0727497418    0.1305340461
 H    0.2101159720    1.7405364321    1.4689100884
 H   -0.8119301329    2.1275482757    0.0985193813
 H    1.0508215180    2.3826921190   -1.3723253772
 H    1.9927509273    2.6214848415    0.1004213075
 H    3.9923537893   -0.6359143785   -2.8628825149
 H    4.3469089685    1.0982227267   -2.8224530899
 H    5.3747066831   -0.0544875018   -0.6148900852
 H    3.3648376000    0.2792253430    1.0595574392
 H    1.1022393151   -1.4829983904   -0.7797159982
 H   -0.9600479236   -0.4848574365    0.4491385850