17

 C   -0.2298095502    1.5587510768   -0.0607455190
 C    0.0705355441    0.0644539532   -0.0698237617
 N    0.9579758308   -0.3261054813   -1.1651131708
 C    1.8174716955   -1.1417430683   -0.6881078259
 N    2.8614917734   -1.7026384074   -1.3875352550
 N    1.6918796881   -1.4892486988    0.6693740628
 C    0.7660340280   -0.4983955107    1.2385264910
 C    1.4814389045    0.5169580382    2.0260158086
 N    2.0622901648    1.2901650730    2.6597317071
 H    0.6872626850    2.1437380552    0.0476589825
 H   -0.7023347785    1.8346433485   -1.0066480104
 H   -0.9092436369    1.8234537641    0.7559641799
 H   -0.8782388007   -0.4803391279   -0.1778066328
 H    2.7684028211   -1.5829778766   -2.3861429470
 H    3.0961746061   -2.6490664251   -1.1244085587
 H    2.5630488869   -1.6104915397    1.1713287688
 H    0.0351517280   -0.9752012132    1.8977393707