14

 C    0.0114650674    1.5544250362    0.0453445143
 C   -0.0281604801    0.0597217617   -0.0414534307
 C   -0.8594004854   -0.8201113859    0.8371519998
 N    0.5887535105   -0.9182417567    0.9801957307
 C    1.0155167030   -1.8287806818   -0.1418889646
 C    0.5161881320   -0.7824453644   -1.1595908057
 O    0.7174139611   -0.5786180679   -2.3224298730
 H    0.9695195681    1.9435321301   -0.3116439071
 H   -0.7805278510    1.9914040213   -0.5718012471
 H   -0.1364803594    1.8855209399    1.0768292363
 H   -1.3526276660   -0.3235698265    1.6681857488
 H   -1.4119217100   -1.6589784374    0.4177407838
 H    2.1033294450   -1.9307634657   -0.1783875016
 H    0.5514559547   -2.8190398328   -0.1229430539