15

 C   -0.0513756744    1.4975015232    0.1681586704
 N   -0.0158364358    0.0548328845    0.0765588013
 C   -1.2453783898   -0.6904083595    0.4577458987
 C   -0.3617175940   -1.6219134202    1.2539866734
 C    0.8074869783   -0.6802612417    1.0716537089
 N   -0.5858995157   -2.7442103250    1.7869410780
 O    0.5713005903   -3.2399715051    2.4163021097
 H    0.9381578894    1.9068072699   -0.0599150916
 H   -0.7559567039    1.8982319587   -0.5679410628
 H   -0.3530583139    1.8665890845    1.1677391183
 H   -1.9366198620   -0.1141901637    1.0951896855
 H   -1.8072707829   -1.1122231921   -0.3822880212
 H    1.7391128885   -1.1043539329    0.6827660880
 H    1.0336431285   -0.1083802473    1.9870412575
 H    0.2697521475   -4.0896435734    2.7551737759