16

 C   -0.0696782570    1.4360433158   -0.0267933477
 C    0.0118135794   -0.0640959162   -0.0050798944
 N   -0.4853489056   -0.7968103339   -1.1535134747
 C   -0.1409250230   -1.9883074869   -0.8508330879
 O   -1.1000278493   -2.8738394707   -0.3301146307
 C   -0.4551252398   -2.4011012557    0.9577848547
 C   -0.4106614930   -0.8512633387    1.2841601576
 C    1.0535599262   -0.8008037944    0.8315727577
 C    0.9031128830   -2.2046944155    0.2849681759
 H    0.6311499392    1.8442171441   -0.7619523192
 H   -1.0774201603    1.7595016692   -0.3005767529
 H    0.1801729970    1.8556312260    0.9522599652
 H   -0.6637907644   -3.1000111183    1.7652650479
 H   -0.8974316556   -0.3617009763    2.1160092367
 H    1.9143117612   -0.3394982417    1.2935403050
 H    1.6572845021   -2.9796093869    0.2041328168