20

 C   -0.1461761425    1.3906181830    0.1189311353
 N   -0.2284022003   -0.0482277468    0.3212825481
 C    0.7126854170   -0.6450675576    0.9116196791
 O    1.8593732452   -0.0769199859    1.3780415061
 C    2.6148305666   -1.0263368746    2.1736684123
 C    2.4021805938   -0.7382105279    3.6548795144
 C    2.1030656806   -2.4069004319    1.7156898760
 C    0.6710019375   -2.1237599281    1.2663150607
 O   -0.2239528810   -2.3332093476    2.3550308248
 H    0.5607101333    1.8931122330    0.7891925609
 H    0.1557884820    1.6001194974   -0.9148872624
 H   -1.1410166878    1.8263769637    0.2546673608
 H    3.6632601926   -0.8704689789    1.9043302869
 H    1.3630822610   -0.9340129206    3.9320097518
 H    3.0489050271   -1.3831876325    4.2587691366
 H    2.6455668842    0.3034111217    3.8816260802
 H    2.6915564165   -2.7676409289    0.8676465332
 H    2.1359023414   -3.1569862532    2.5075820093
 H    0.3680697856   -2.7198055978    0.3978763230
 H   -1.0444537829   -1.8830289063    2.1181768430