17

 C    0.0242838064    1.5135739943    0.0467434861
 C    0.0164344877    0.0223539774   -0.0254843292
 C    0.1042658274   -0.8320231386   -1.1008764068
 C    0.0508119657   -2.1692929174   -0.6069959440
 C    0.0973937820   -3.4396029881   -1.4147180802
 C    1.3634203434   -3.6262307116   -2.1333881077
 N    2.3575422642   -3.7681003288   -2.7051737966
 C   -0.0679149287   -2.0904967577    0.7602112996
 N   -0.0894417066   -0.7611776614    1.1005215859
 H    0.8571978708    1.8927561992    0.6515982188
 H    0.1282759445    1.9325115085   -0.9563546044
 H   -0.9022106731    1.9124873739    0.4783103095
 H    0.2068939359   -0.5323535362   -2.1332424512
 H   -0.0539348748   -4.3069280438   -0.7629606647
 H   -0.7109551260   -3.4663628013   -2.1566945301
 H   -0.1367351492   -2.8639417598    1.5085738722
 H   -0.1692925796   -0.4088567485    2.0386994427