16

 N   -0.1406430921    1.2822968593    0.0104564898
 C   -0.0085497181    0.0273073698    0.0028891859
 N    1.1338765620   -0.7795342612   -0.0069379614
 C    0.8351265254   -2.1328385408   -0.0131744384
 N    1.5737880546   -3.1648924507   -0.0224270460
 C   -0.6551864043   -2.1495595543   -0.0064259516
 C   -1.4601284251   -3.1628778477   -0.7640678270
 C   -1.4531849382   -3.1713754122    0.7471377905
 O   -1.0860548339   -0.7973453754    0.0031671025
 H    0.7596624591    1.7542882335    0.0089011406
 H    2.0648821180   -0.3987792938   -0.0092116774
 H    2.5670502637   -2.9356371685   -0.0257273543
 H   -2.3491434371   -2.7932712280   -1.2617582548
 H   -0.8996199461   -3.9289336497   -1.2874369615
 H   -0.8879271607   -3.9432351296    1.2566889155
 H   -2.3375695571   -2.8074338306    1.2571017178