19

 C   -0.0325572821    1.4182576570    0.2550640632
 N    0.0601840347   -0.0006937103   -0.0396783196
 C   -1.0827610896   -0.7839878429    0.0471971230
 C   -1.2123943453   -2.1655420076    0.0312228648
 C   -0.1292270674   -3.1925875601   -0.0721902541
 C   -2.6169462442   -2.3674161121    0.0759864166
 N   -3.2692501562   -3.6040573537    0.0033861304
 N   -3.3070209798   -1.2354794540    0.1180371931
 N   -2.3346309976   -0.2675855020    0.0983228556
 H    0.9634570926    1.8607160906    0.1884179609
 H   -0.6586501668    1.9160541858   -0.4945616267
 H   -0.4469064301    1.6407091382    1.2517914843
 H    0.8609314347   -0.4478717509    0.3812969193
 H    0.2361560231   -3.5469257659    0.9024405285
 H   -0.4863014279   -4.0715455164   -0.6198466413
 H    0.7377146570   -2.8049941220   -0.6200651890
 H   -2.8865575878   -4.2882316270    0.6437816203
 H   -4.2615468232   -3.4937125108    0.1745957735
 H   -2.6102378142    0.6965815641    0.0967526972