18

 C   -0.0365003227    1.5392289913   -0.1099900980
 O    1.3296472553    1.9746138854    0.0094590226
 C    2.1684941281    0.8322640359    0.0688599125
 C    1.3698313377   -0.2619260204   -0.6430289773
 C    0.0121709275    0.0087365783    0.0295296685
 C    0.1303585268   -0.4229398507    1.5061617155
 C    1.2690912603    0.3461295807    2.2009514621
 O    2.4460701705    0.4484958803    1.4014656142
 H   -0.6357874873    2.0285924086    0.6663096932
 H   -0.4272586474    1.8409145203   -1.0908629548
 H    3.1325363972    1.0900634110   -0.3733679170
 H    1.3367746508   -0.0793487499   -1.7219170355
 H    1.7729224702   -1.2583056630   -0.4543837027
 H   -0.8340668821   -0.4769532511   -0.4618922795
 H   -0.8045295163   -0.2391473125    2.0484133665
 H    0.3215600904   -1.5014140845    1.5457179882
 H    0.9254789184    1.3553157765    2.4656277952
 H    1.5755694125   -0.1532990062    3.1237961562