19

 C    0.0374537402    1.3938969938    0.0372288485
 O    0.0474990920   -0.0129284399    0.0563926727
 C    0.6356186608   -0.5586206801   -1.0857314036
 C    0.5959197179   -2.0909859320   -0.9675947237
 O    0.1099385471   -2.6316996692    0.0049096265
 N    1.1384081812   -2.7959551824   -2.0159903075
 C    1.1217415109   -4.2478846089   -1.9668557774
 C    1.7222476732   -2.2204712791   -3.2101129832
 H    1.0560175715    1.8125110972   -0.0095045914
 H   -0.5336378747    1.7901143737   -0.8182001752
 H   -0.4381881982    1.7250053263    0.9630502817
 H    0.1011844224   -0.2387478114   -1.9981451549
 H    1.6808784818   -0.2178068360   -1.1944777971
 H    0.5479425356   -4.6578582359   -2.8081227803
 H    2.1422012855   -4.6480974200   -2.0224193776
 H    0.6606966571   -4.5525331770   -1.0290044995
 H    1.7291502130   -1.1329690033   -3.1730267824
 H    2.7594307838   -2.5596176375   -3.3348686892
 H    1.1633718391   -2.5256120984   -4.1056167663