15

 O    0.0198088107    0.0758893025    0.3071652313
 C    0.0230013718    1.2478105131    0.0725378575
 O   -1.1628275692    1.9544692075   -0.1591863153
 C   -0.7942454921    3.2695436850   -0.5334008137
 C   -1.0606392876    4.6124281655    0.1871508300
 C   -0.3217998797    4.7634194709    1.4806854570
 C    0.4803139597    4.8452413562    0.1925883619
 C    0.6537705996    3.4097979330   -0.2206604139
 C    1.1692982359    2.2168241964    0.0728337022
 H   -1.0189937802    3.4109016877   -1.5980346443
 H   -1.8412623021    5.3021849598   -0.1076901412
 H   -0.4805901431    5.7130327489    1.9828487855
 H   -0.1767786825    3.9208018765    2.1485129385
 H    1.0521853935    5.7171431537   -0.0918589279
 H    2.1474059154    1.9213538833    0.4225410524