18

 N    0.2398178298   -0.1406897038    1.4149073367
 C    0.1216669237    0.5691464107    0.5109257340
 C   -0.0329288852    1.4750386780   -0.6477069425
 O    1.1127198772    2.2259566907   -0.9408536334
 C    1.3883828353    3.2835746081   -0.0310624547
 C    2.1968809625    2.9802207029    1.2806331418
 C    3.2531857738    3.9849098012    0.8071514412
 C    3.8216167147    3.5274117601   -0.5006641082
 C    2.4842302493    4.2199688666   -0.5027692958
 H   -0.2520316182    0.8652027101   -1.5298497756
 H   -0.9074024639    2.1181350438   -0.4595601143
 H    0.4553511462    3.8180962919    0.1940540320
 H    1.6555943503    3.2777539843    2.1806059661
 H    2.5427118948    1.9502084938    1.3981431744
 H    3.7439081208    4.7208101811    1.4305807655
 H    4.6348008832    4.1260586454   -0.8977391454
 H    3.8905952337    2.4677275846   -0.7297449515
 H    2.3179632620    5.1377351808   -1.0529456302