13

 O    0.0466625401    0.0055307605    0.0359228338
 C   -0.0246618983    1.1947195029   -0.0280163328
 N   -1.1455409477    1.9954054317   -0.0856493049
 C   -0.8396506685    3.3831085123    0.0078659623
 C   -0.0588967852    3.8530957572    1.2142214428
 C    0.6782760825    3.3706432036   -0.0213072257
 O    1.0890704261    2.0235431915   -0.0427961252
 C    1.4752598216    4.2565194056   -0.8209714494
 N    2.1014711431    4.9984040764   -1.4479831786
 H   -2.0437616165    1.5977437333    0.1324949275
 H   -1.4241394358    4.0721835341   -0.5891147016
 H   -0.0314404656    4.9210956623    1.3968950571
 H   -0.0116277557    3.2165472286    2.0908594847