17

 C    0.1744043310    1.4942785733    0.0467342960
 C    0.0412894315   -0.0112071260    0.2631065634
 O    0.1621133881   -0.3520666414    1.6436141955
 C   -1.2716359297   -0.5609023722   -0.3282054001
 C   -1.3702866354   -2.0529951071   -0.2747865290
 N   -1.6964532084   -2.7635355550   -1.3234610452
 O   -1.6935739506   -4.0681197788   -0.9156037404
 N   -1.3581464562   -4.1741689800    0.4052383509
 C   -1.1571922514   -2.9531633776    0.8127479859
 H    1.0966531574    1.8594637180    0.5057929902
 H    0.1937956045    1.7422033302   -1.0188139554
 H   -0.6710410093    2.0293939911    0.4979547656
 H    0.8826841942   -0.5221881491   -0.2187879982
 H   -0.4433294659    0.2113157251    2.1393453986
 H   -2.1110385140   -0.1155292669    0.2243103949
 H   -1.3771783815   -0.2471915349   -1.3708703758
 H   -0.8570819943   -2.7325421586    1.8232499929