16

 N   -0.0542178990   -1.1055047514   -0.2089216449
 C   -0.0369846419    0.0473059775   -0.1058321751
 C   -0.0220216777    1.4746512805    0.0346442236
 C    0.4575048940    2.3043824898   -1.1453539698
 C    1.3097844748    2.2454183557    0.0876727296
 C    1.1176316971    3.3505968253    1.1003432819
 O    0.1168340806    4.3126038438    0.7403440612
 C   -0.2400514169    3.2784469406    1.6663473794
 C   -0.9896065404    2.1028568833    1.0563698248
 H    0.7946958010    1.7520173401   -2.0143276071
 H   -0.0688578357    3.2293863194   -1.3438654743
 H    2.2532584675    1.7149536640    0.0694641010
 H    1.9744704284    3.7424168668    1.6397592671
 H   -0.4966541638    3.6229841687    2.6651023322
 H   -1.9358080490    2.4100360029    0.6006444330
 H   -1.2192032691    1.3736556029    1.8393523475