20

 C    0.1511618105    1.0212712572   -1.3636148060
 C    0.1175584923    0.1398406680   -0.1126135802
 O    0.4962555082    0.9009601605    1.0374579123
 C   -1.2520539360   -0.5277260923    0.0327005725
 C   -1.5987591758   -1.9880693842    0.0642036187
 C   -0.8197866814   -2.8093236665    1.1122276314
 C    0.0861612956   -2.0672947330    2.0236961244
 N   -1.3685608734   -1.9971448060    2.2545397703
 C   -2.0227478559   -1.1071658784    1.2203306669
 H    1.1331091430    1.4899763056   -1.4656633059
 H   -0.0514300173    0.4313302492   -2.2640061408
 H   -0.6019648446    1.8153046497   -1.2983386170
 H    0.8898405765   -0.6295943873   -0.2133254167
 H   -0.3062140736    1.2738388830    1.4171507431
 H   -1.9980949429   -0.0082381750   -0.5721828725
 H   -2.2099788975   -2.4673238113   -0.6898865896
 H   -0.8894678427   -3.8922248406    1.1374095971
 H    0.5739148540   -2.6773559431    2.7807352746
 H    0.6250582676   -1.1690646378    1.7601721877
 H   -3.0004136268   -0.7201370278    1.4806134298