19

 C   -0.0002380712    1.6090915182    0.0051027782
 C    1.5045748914    1.2916902302    0.0182705736
 C    1.1520198638    0.0798750049    0.9508751221
 C   -0.0742974108    0.0444510402   -0.0084445736
 C   -1.4151896010   -0.6647133232   -0.1468275567
 C   -1.6172536840   -0.5453929858   -1.6594390608
 C   -0.4885751700   -0.2497153676   -2.3151394318
 C    0.6563089646   -0.2484372161   -1.3298553647
 O    1.7086081076    0.7337615762   -1.2992750940
 H   -0.3755440325    2.0211032267    0.9445407772
 H   -0.3823056875    2.1624434081   -0.8538630427
 H    2.2889306112    2.0134700343    0.2396290268
 H    1.8279273905   -0.7789297970    0.9543916599
 H    0.9254095194    0.4022776586    1.9688004870
 H   -1.3629335116   -1.7205181442    0.1554278015
 H   -2.2227724149   -0.2053463953    0.4327036504
 H   -2.5828449343   -0.7127230999   -2.1250124420
 H   -0.3816419397   -0.1512283898   -3.3885180624
 H    1.1341632990   -1.2412297587   -1.3387579881