19

 C   -0.1502878235    1.6632477199   -0.1105618661
 C    0.0491257140    0.1398033335   -0.0439103782
 O    0.7925772823   -0.2292090516    1.1070901455
 C   -1.3043050506   -0.5985158443   -0.0226597032
 O   -1.9010513208   -0.2863063764    1.2311697693
 C    0.8186455228   -0.3343859246   -1.2747253145
 O    0.3917903640   -0.1375882313   -2.3950089537
 C    2.1302455352   -1.0730450761   -1.0877571945
 O    2.6827697560   -1.4347955180   -2.3188162267
 H    0.8130833135    2.1680852725   -0.0020617464
 H   -0.5953068575    1.9481906410   -1.0670010202
 H   -0.8070453200    1.9836382019    0.7018186534
 H    0.1553351391   -0.2475307799    1.8330519947
 H   -1.9217805474   -0.2701976933   -0.8673199998
 H   -1.1299142456   -1.6798749412   -0.1140804433
 H   -2.6198760340   -0.9027921908    1.3948020759
 H    2.8065656902   -0.4272293616   -0.5060915422
 H    1.9421330697   -1.9487146664   -0.4476821552
 H    2.0630233527   -1.0981715234   -2.9854757648