15

 O   -0.0313463949   -0.0130902837   -0.1950322204
 C   -0.0040415243    1.1738277011   -0.0142586898
 O   -1.1895056423    1.8530533192    0.1258800278
 C   -1.2079636179    3.2064976999    0.6275202934
 C   -0.1944288943    4.0003760230   -0.1793964917
 O    0.4241711438    5.1748130910    0.4151729600
 C    1.7578620161    4.6156156469    0.2147839556
 C    1.1187351338    3.2894804618   -0.0983491225
 C    1.2430721129    1.9804238323    0.0710006313
 H   -2.2399097784    3.5436924382    0.5143626135
 H   -0.9334659275    3.2249652180    1.6888608697
 H   -0.5644387594    4.2183321115   -1.1899902960
 H    2.2777966953    5.1058420284   -0.6185672662
 H    2.3787529881    4.6669631046    1.1152743296
 H    2.1627344290    1.4481469275    0.2800447156