15

 C    0.0705538888   -1.1814060625   -0.3563771429
 C    0.0285178369   -0.0205552162   -0.0484924077
 C    0.0107197344    1.3868607604    0.3341839259
 C    1.3804632249    2.0327291435    0.2083232284
 N    1.7178009116    2.6056806120   -1.0914151532
 C    1.5410969114    3.5156387622    0.0680096555
 C    0.4216944825    4.4170168012    0.0467846059
 C   -0.5061857310    5.1814568683    0.0660261184
 H    0.0920358309   -2.2052878574   -0.6362607517
 H   -0.6958424708    1.9431725245   -0.2901182412
 H   -0.3379691860    1.4848730738    1.3705460348
 H    2.1688184944    1.5244392051    0.7604204492
 H    2.7082338524    2.4967083368   -1.2928152045
 H    2.4421361184    3.9331374660    0.5129177331
 H   -1.3265109488    5.8558565525    0.0693908400