20

 C   -0.2399416841    1.5258246433    0.0013632784
 C    0.0783630206    0.0302835057    0.0188331171
 C    0.7449607823   -0.4446191621   -1.2751358583
 C    2.1533313737   -0.0731791571   -1.5718158053
 N    1.8005982176   -1.4656730251   -1.3003267263
 C    2.2871585948   -2.0490297730   -0.0395001441
 C    1.3472705137   -1.8408078439    1.1671403903
 C    0.8946085532   -0.3959737755    1.2361912416
 O    1.1530759046    0.3466290212    2.1547765046
 H    0.6776472415    2.1176140377   -0.0543230045
 H   -0.8651277840    1.7784848269   -0.8604867559
 H   -0.7667986806    1.8183186462    0.9125443311
 H   -0.8645381835   -0.5324169126    0.1094725980
 H    0.0537578798   -0.5246093319   -2.1128392734
 H    2.4763535134    0.1479734954   -2.5859971688
 H    2.6941201667    0.4735056480   -0.7984035697
 H    2.4274554952   -3.1239886116   -0.1959239054
 H    3.2740937365   -1.6324399457    0.1930569446
 H    0.4612028001   -2.4750905445    1.0384353760
 H    1.8447847187   -2.1205422314    2.0983493501