20

 C   -0.0656372584    1.6100158203   -0.0398407506
 C    0.0987785541    0.0947564535   -0.0147065925
 C    0.8627328545   -0.4862285646   -1.2371173016
 O    1.8864127994    0.3763661717   -1.7051817128
 C    1.4217829298   -1.8041837259   -0.6900145209
 C    1.6151240930   -1.5384810673    0.8035594887
 O    2.2555736050   -2.2027463462    1.5916253353
 N    0.9039803054   -0.3989518407    1.1050261944
 C    0.6765851417   -0.0021806823    2.4779053377
 H    0.9030997763    2.1128751808   -0.0790982652
 H   -0.6307534738    1.9022274277   -0.9297784310
 H   -0.6141435536    1.9652199667    0.8370196160
 H   -0.9038507430   -0.3655013721    0.0208473594
 H    0.1903242658   -0.6197980859   -2.0872247246
 H    2.5487885219    0.4602763995   -1.0094945286
 H    0.7021399461   -2.6245454566   -0.7950745935
 H    2.3499474093   -2.1091414202   -1.1762148298
 H    1.3294224882   -0.6123321171    3.1043930009
 H    0.9102049579    1.0555656893    2.6335624510
 H   -0.3668463394   -0.1733625807    2.7763198376