16

 C    0.0651809035    1.4775333322   -0.0037957567
 N    0.0104881745    0.0253506571    0.0067054935
 C   -0.0488392706   -0.6701280220    1.2003006760
 N   -0.0579371929   -0.0735567250    2.3270179878
 C    0.0195962421   -0.6400682038   -1.2080397281
 C    0.0754816180   -0.1056761582   -2.4802748775
 N    0.0562744130   -1.2081533242   -3.2772018763
 N   -0.0061264264   -2.3374613097   -2.5697342355
 N   -0.0288670464   -2.0002358180   -1.3083923351
 H    0.9840508677    1.8270778770   -0.4897772595
 H   -0.7965024538    1.8937796724   -0.5394612793
 H    0.0490056589    1.8165693853    1.0304900343
 H   -0.0847365170   -1.7483472766    1.0393113460
 H   -0.1044944834   -0.7565411640    3.0790134060
 H    0.1239633878    0.8966270219   -2.8647643932
 H    0.0827311449   -1.2575410845   -4.2829120623