15

 O   -0.1584544745    0.0936540416   -0.5646192314
 C   -0.0784536690    1.2046089776   -0.1137727011
 C   -1.2767542843    2.1428096742   -0.0268044611
 C   -1.1907086748    3.1114502713    1.1272179473
 O   -0.5954441425    2.5980629305    2.3279406584
 C    0.1105401064    3.6064838471    1.5903538506
 C    1.3857259678    3.1551927625    0.9210352801
 C    1.3085424423    1.7317639031    0.3810417959
 O    2.2710645296    1.0166024034    0.3033843212
 H   -1.3368806608    2.7018170303   -0.9725060896
 H   -2.1798842167    1.5278832855    0.0292325890
 H   -2.0714561207    3.7308018755    1.2942080222
 H    0.1513364579    4.5765305427    2.0848849122
 H    1.6159021765    3.8242053101    0.0785405029
 H    2.2395437925    3.2082702346    1.6030453936