20

 C   -0.0279449512    1.3779103488   -0.0106290979
 O    0.0102166022   -0.0297840485    0.0120339629
 C    0.6807804797   -0.5453583042    1.1363644826
 C    0.6463793441   -2.0715178476    1.0294202797
 N    1.3116174122   -2.7192535009    2.1412279838
 C    2.6534890910   -3.0121716768    2.2083279794
 C    2.9215799699   -3.5353278411    3.4516110758
 C    1.6955159915   -3.5578313484    4.1721070564
 C    0.7257341457   -3.0475151699    3.3411922713
 H    0.9834759533    1.8128581201   -0.0375197586
 H   -0.5652028886    1.6756597308   -0.9141272181
 H   -0.5531368317    1.7857901179    0.8672556169
 H    1.7258036724   -0.1952422153    1.1734539518
 H    0.1955719354   -0.2238310347    2.0729689374
 H   -0.3937146137   -2.4070863278    0.9885137415
 H    1.1258734660   -2.3788418661    0.0957723935
 H    3.2948811102   -2.8280022353    1.3605817320
 H    3.8845960704   -3.8769425086    3.7989366274
 H    1.5399195750   -3.9199783254    5.1767837718
 H   -0.3315775539   -2.8944985272    3.4917033104