21

 C    0.0437018062    1.5551621084   -0.0195087082
 C    0.0129831987    0.0216396068    0.0556839899
 C    0.8100609108   -0.4697262392    1.2705915519
 O    2.1432660693    0.0001556618    1.1119369368
 C   -1.4379888701   -0.5529264549    0.0364383103
 C   -1.4628219628   -2.0946094412    0.0140424857
 N   -2.1749845619   -0.0997041136    1.2252700445
 C   -2.0989075633   -0.0879960706   -1.2139518021
 N   -2.6507443563    0.2790083913   -2.1620433742
 H    1.0792756313    1.8940072551   -0.0691724360
 H   -0.4883497315    1.9257437383   -0.8997032509
 H   -0.4023494206    2.0086345354    0.8733427219
 H    0.5128640224   -0.3711567742   -0.8384941115
 H    0.3503721694   -0.0845101241    2.1908644519
 H    0.7968037933   -1.5668813983    1.3252424516
 H    2.6367381657   -0.2299942421    1.9040373961
 H   -1.1318897592   -2.4862551347    0.9772149307
 H   -2.4791655703   -2.4548427597   -0.1705384380
 H   -0.8181760041   -2.4838109375   -0.7776512819
 H   -2.3062408145    0.9068548791    1.1965687445
 H   -3.1050503925   -0.5089993462    1.2291719869