20

 C   -0.2322544808    1.5612944984   -0.0769445986
 C    0.0901304434    0.0683713745    0.0689352424
 C    0.7269951967   -0.5170068993   -1.1761466456
 O    1.9468914263    0.0807737116   -1.5509183347
 C    0.6983235296   -1.9972013128   -1.4746708302
 C    0.0414436116   -3.0159378454   -0.5694162874
 C   -0.1282898604   -1.0249270873   -2.3105909367
 O   -1.5168585331   -0.9611801531   -2.1412428944
 H    0.6717530331    2.1507616647   -0.2662823552
 H   -0.9342688035    1.7295509433   -0.9000235586
 H   -0.6857479578    1.9540051557    0.8378333445
 H    0.7742913571   -0.0837877412    0.9127749863
 H   -0.8307707576   -0.4743624392    0.2926326113
 H    1.7531908909    0.9676257040   -1.8742973239
 H    1.6039108491   -2.3388219206   -1.9684825820
 H   -0.9538575431   -2.6949817706   -0.2528385234
 H   -0.0703102423   -3.9747868781   -1.0880248254
 H    0.6398678603   -3.1973921627    0.3295022999
 H    0.2256941694   -0.8104472217   -3.3191633221
 H   -1.9036126089   -1.7517792504   -2.5327336361