22

 C   -0.3217860853    1.0648723846   -1.8157445842
 C   -0.0863327321   -0.1408105272   -0.9293949213
 C    1.2871312688   -0.5491680243   -0.4306711239
 C    2.5466685443    0.2445727179   -0.7530957045
 C    3.0955817256   -0.1039234663   -2.0658344412
 N    3.5181364070   -0.3914531766   -3.1023499133
 C    0.2366970480   -0.0604410380    0.5527657820
 C    0.3834538422    1.2843320873    1.2431040629
 C   -0.3835958063   -1.1162226902    1.4525584892
 H    0.3106937193    1.9186650828   -1.5607717904
 H   -0.1252011341    0.8161789257   -2.8639320214
 H   -1.3618624855    1.4007728235   -1.7433829296
 H   -0.7201969644   -0.9824245111   -1.2002750250
 H    1.4769381277   -1.6191393577   -0.4123868049
 H    2.3655891965    1.3224492042   -0.7384770972
 H    3.3192710059    0.0526765299    0.0014028378
 H    0.7910366781    2.0661916218    0.5992682076
 H   -0.5919104897    1.6365240234    1.5980186513
 H    1.0372660197    1.2013405278    2.1193392628
 H    0.2209383981   -1.2744920030    2.3537476643
 H   -1.3868015890   -0.8143205616    1.7761954685
 H   -0.4750037649   -2.0781552726    0.9388813703