21

 C   -0.2904509368    1.1013014193   -0.3810171132
 C    0.9761055373    1.2254332416    0.4256234778
 C    0.4454478757   -0.1396875090    0.0534040502
 C   -0.0974455488   -1.0267955707    1.1322003943
 O   -1.2240810714   -0.5505821822    1.8776326894
 C   -1.3917027267   -1.7297116481    1.0718907092
 C   -2.3358591885   -1.6746487669   -0.0788473552
 C   -2.7701568913   -2.9740061489   -0.7195617909
 C   -3.7485091600   -2.1803770893    0.1026738697
 H   -1.2205316981    1.3196470786    0.1298131723
 H   -0.2665715388    1.3706362146   -1.4311752884
 H    1.8756891547    1.5791163134   -0.0655326570
 H    0.8757134515    1.5324950105    1.4612091806
 H    1.0022929992   -0.6770164083   -0.7102331838
 H    0.6743269042   -1.4827831344    1.7583673114
 H   -1.4800600227   -2.6423948773    1.6680263670
 H   -2.2041530802   -0.8276259212   -0.7406692410
 H   -2.8887791235   -2.9935048959   -1.7968747379
 H   -2.3869436757   -3.8986298205   -0.2998682766
 H   -4.0238763470   -2.5670958700    1.0783297476
 H   -4.5458687831   -1.6513401953   -0.4067860654