17

 O   -0.0663772389    1.3968147166   -0.0053359278
 C    0.0087063983   -0.0136589355    0.0211643444
 C    0.6426503196   -0.5995122846    1.3188204713
 C   -0.0218228728   -1.9787028803    1.5179006950
 C   -1.4009347987   -1.8046917551    0.9017578548
 N   -2.0475528947   -0.5451021905    1.3232720055
 C   -1.3909935520   -0.6226796224    0.0074102026
 C    0.7421857144   -0.5017062935   -1.1725977683
 N    1.3363268119   -0.8666127718   -2.0946683453
 H    0.8288979734    1.7523315218    0.0315141691
 H    1.7319913521   -0.6500721905    1.2624437593
 H    0.3601918965    0.0808479470    2.1238690805
 H    0.5209527739   -2.7603367207    0.9751413850
 H   -0.0600180799   -2.2676029240    2.5723059837
 H   -2.0168106227   -2.6708402537    0.6846044045
 H   -3.0531999576   -0.6096827712    1.1892854521
 H   -1.9776899426   -0.5568782319   -0.9014012965