19

 C    0.0942041681    1.5219311043    0.1106447773
 C   -0.0305493253   -0.0013589304    0.1931902555
 C   -1.3681844519   -0.5211992203   -0.3490359152
 C   -1.4829620152   -2.0231172854   -0.2490461854
 N   -1.8447544304   -2.5720216517    1.0619998730
 C   -2.7920070539   -2.7318390083   -0.0705268712
 C   -4.0496234593   -2.0400868574    0.0049085976
 C   -5.1131479658   -1.4797145117    0.0332548029
 H    1.0546550720    1.8659539936    0.5069588294
 H    0.0167610551    1.8716095229   -0.9251111460
 H   -0.6989325225    2.0136876631    0.6844517822
 H    0.7949994688   -0.4678879946   -0.3614260531
 H    0.0742389996   -0.3282271391    1.2346613860
 H   -2.1966471039   -0.0670055705    0.2042792943
 H   -1.4874641754   -0.2238513628   -1.3996803232
 H   -0.7438259203   -2.5772182247   -0.8288519943
 H   -1.3728096768   -3.4569290045    1.2292392423
 H   -2.8573767616   -3.7206762377   -0.5204614167
 H   -6.0499884112   -0.9814329849    0.0707166745