17

 C   -0.0181698801    1.5402622771   -0.0068053680
 C    0.0598662004    0.0328303540    0.0354059580
 C   -0.8287565105   -0.7487823371    0.9934528577
 C    0.6616487785   -0.7789525434    1.1756793888
 C    1.3701989169   -1.9785389447    0.5586538034
 O    0.4951512761   -2.8775144192   -0.1258396996
 C    1.2463470690   -1.9298070951   -0.9077404603
 C    0.4893076916   -0.6515811083   -1.2459798517
 O    0.4028072414   -0.1779228344   -2.3520954829
 H    0.9340467555    1.9815693731   -0.3180792486
 H   -0.7791032487    1.8621508698   -0.7240350144
 H   -0.2787864009    1.9440693612    0.9758813496
 H   -1.4017182409   -0.1373764736    1.6828327326
 H   -1.3185131369   -1.6524056304    0.6571923435
 H    1.1217559504   -0.2931134162    2.0278666435
 H    2.2148237166   -2.4380487155    1.0629184195
 H    1.9446752616   -2.3439233676   -1.6287085810