18

 C    0.0214698451    1.5233463178   -0.1203789161
 C   -0.0072948806    0.0189144340    0.0074781918
 O    0.3571680703   -0.5420088992   -1.2412770010
 C   -0.1241826446   -1.8477023254   -1.4096876245
 O    0.1203406325   -2.6512376922   -0.2791966895
 C   -0.2034430151   -1.9351057802    0.8836131970
 C    0.6360329248   -0.6758498020    1.2512971274
 N   -0.5321474874   -0.1529300791    2.0571748102
 C   -1.1646442471   -0.6998863931    0.7993984170
 H    1.0073939691    1.8439806336   -0.4705071476
 H   -0.7169638875    1.8530087473   -0.8576201180
 H   -0.1910783714    1.9902510482    0.8410798401
 H   -1.2101333850   -1.8202249804   -1.6064078750
 H    0.4005054416   -2.2914306552   -2.2581868502
 H   -0.3899091997   -2.6428182615    1.6960639220
 H    1.6666452956   -0.6155178131    1.6028653987
 H   -0.7213366819   -0.7987574933    2.8306644227
 H   -2.2437530887   -0.6584201964    0.6424684852