15

 C   -0.0145053471    1.4468319174   -0.0187118282
 N    0.0158348839   -0.0101423965   -0.0078807257
 N   -0.0133419660   -0.6188259466   -1.2079815741
 C    0.0329777840   -1.9213986801   -1.2040229502
 N    0.1052900474   -2.6038173761   -2.4130628904
 C    0.0825400542   -2.6358379011    0.0430093251
 N    0.0829154588   -2.0521959075    1.1939832891
 C    0.0515608664   -0.6534837500    1.2351008818
 O    0.0549919070   -0.0067229338    2.2625594638
 H    0.8693866888    1.8412526261    0.4890281179
 H   -0.0377487032    1.7681871796   -1.0585119098
 H   -0.8961110387    1.8066418934    0.5181558161
 H   -0.1091856930   -2.0169064936   -3.2083374968
 H   -0.4046986972   -3.4757235464   -2.4389765405
 H    0.1212978147   -3.7271282748    0.0255845319