16

 C   -0.2043161181    1.3893525302   -0.0205405672
 C    0.0856260089   -0.0799510002    0.0205935450
 O   -0.9700598983   -0.8901958149   -0.4709822598
 C   -1.0453999667   -2.0473837247    0.2508665477
 N   -1.8811058541   -2.9436874886   -0.0166479848
 O   -0.1050655525   -2.0506768100    1.2420325352
 C    0.6859556934   -0.8915090340    1.1353779571
 C    1.4457259594   -0.7220683086   -0.1754761996
 O    1.6048383723   -1.8105482652   -1.0176915120
 H    0.6431851605    1.9507814576    0.3817447528
 H   -0.3762389775    1.7223668350   -1.0488559007
 H   -1.0924277050    1.6261762017    0.5730336793
 H   -1.7764733724   -3.7265182463    0.6237529651
 H    1.0389169752   -0.5165315525    2.0874855860
 H    2.2997344551   -0.0472917863   -0.1317883173
 H    0.9461478901   -1.7550451131   -1.7201339066