13

 O    0.1043549158    1.3225730865    0.0745445780
 C    0.0688323988   -0.0206969918    0.0473899449
 N    0.0744770782   -0.6110152820   -1.1380455610
 C    0.0388997224   -1.9546406617   -1.1611298386
 C   -0.0029824666   -2.7455141145   -0.0174842201
 C   -0.0079469862   -2.0954938546    1.2193048331
 C    0.0281641696   -0.7149445212    1.2671689194
 C    0.0458333068   -2.5742691362   -2.4607428337
 N    0.0503749504   -3.1007776354   -3.4905858578
 H    0.1289187186    1.6167255761   -0.8471937354
 H   -0.0304224770   -3.8241382416   -0.0974540401
 H   -0.0400149580   -2.6724566542    2.1369489464
 H    0.0260656371   -0.1639469294    2.1990320550