17

 N   -0.1667335951    1.2755530854   -0.1087749931
 C    0.0695046022   -0.0474878337    0.0656806912
 O    1.1219331324   -0.5516909527    0.3673771075
 O   -1.0989268698   -0.7372807642   -0.1795274360
 C   -1.0465533779   -2.1046202044   -0.0804293972
 N   -2.0987759886   -2.7575544118   -0.2894329380
 C   -2.0327760653   -4.1740540039   -0.1854615839
 C   -3.2616698587   -4.8808395377    0.3401698121
 C   -2.9139533321   -4.9717422414   -1.1199097133
 H    0.5616953311    1.9188448662    0.1441272420
 H   -1.1043630659    1.6092639681   -0.2464000187
 H   -0.0575882714   -2.4858707222    0.1788282974
 H   -1.0655417982   -4.6093400836    0.0719277474
 H   -3.1115174817   -5.7509449511    0.9692497114
 H   -4.0958713310   -4.2492484808    0.6208053972
 H   -3.5151677043   -4.4010086015   -1.8172952365
 H   -2.5216395957   -5.9051324208   -1.5075074697