10

 O    0.0005389127    0.0066547452   -0.0974304919
 C   -0.0137198975    1.1921388135    0.0313993622
 C   -1.1066868148    2.2661228441    0.1724791349
 N   -0.0354344507    3.2512347509    0.4853369318
 C    1.0532861538    2.2952150584    0.1438390396
 H   -1.6504797040    2.4279617488   -0.7688605373
 H   -1.8360678578    2.1137052993    0.9756741047
 H   -0.0543460021    4.0719360889   -0.1072705077
 H    1.8075420625    2.1627796843    0.9273624966
 H    1.5673793733    2.4713027667   -0.8115268831