16

 O   -0.8689600302    1.2631222901    0.0358417484
 C    0.2549847015    0.9027904530   -0.1951327063
 C    1.4616643846    1.7824668247   -0.1089586647
 N    2.6091117636    1.2903649071   -0.3757067119
 C    3.6992979308    2.2595535064   -0.2508159178
 C    3.5156862827    3.0396993693    1.0889098339
 C    2.4386353864    3.8391077810    0.3164954590
 C    3.2699057594    3.5806214761   -0.9634632133
 O    1.2237539024    3.0598305866    0.2563130133
 H    0.5204401747   -0.1287248493   -0.4993580721
 H    4.6546436234    1.7943880370   -0.4877797852
 H    3.2043021005    2.4751613374    1.9694184662
 H    4.3789989590    3.6669741404    1.3172976279
 H    2.1409917167    4.8419528422    0.6165625714
 H    4.0964087333    4.2887990847   -1.0426529058
 H    2.7389363412    3.4983623133   -1.9133308129