21

 C    0.2250041817    1.5805565082    0.3911679466
 C    1.6560562325    1.5640311560   -0.2359290208
 C    1.4446956036    0.0986386960   -0.6064117830
 O    1.9642608108   -0.3633646226   -1.8167547745
 C    1.9030285689   -1.7878516143   -1.7846887004
 C    2.2133751179   -2.1830373313   -0.3269572220
 C    1.6324885073   -1.0125021021    0.4798678750
 C    0.0947209222   -1.0152218796    0.7478429410
 C   -0.0861583306    0.1780513951   -0.2183488282
 H    0.2136010579    1.5942946899    1.4847151490
 H   -0.4170129065    2.3879801432    0.0344333120
 H    1.7129717196    2.1853553668   -1.1339355392
 H    2.5061965907    1.8015083241    0.4106457245
 H    0.8991405291   -2.1315668842   -2.0789091456
 H    2.6219952162   -2.1731747225   -2.5118645030
 H    1.7843017364   -3.1524801430   -0.0572520862
 H    3.2964440773   -2.2402295221   -0.1815889347
 H    2.2517091137   -0.7513510956    1.3408672354
 H   -0.3929373088   -1.9319590370    0.4003295205
 H   -0.2075923606   -0.8426739056    1.7852038094
 H   -0.8965638094    0.1428953205   -0.9476332359