19

 C   -0.0447953840    1.4663841813   -0.2433911309
 C    0.1623307580   -0.0098839279   -0.0024560655
 N    1.5515005831   -0.5167882996    0.0143082017
 C    0.7498917167   -0.5861124538    1.2413638437
 C    1.2071440627    0.2647343081    2.4069965606
 C    0.2268346210   -1.9650894938    1.6693027199
 O   -0.1327674721   -2.7094741942    0.5186783065
 C    1.2428318097   -2.7068926479    2.4508626570
 N    2.0089161058   -3.3238853253    3.0574000724
 H    0.7457927515    2.0679782070    0.2088746054
 H   -0.0416792983    1.6726202262   -1.3189621219
 H   -1.0092948799    1.7972610892    0.1572313417
 H   -0.5638430011   -0.6484698117   -0.4988480428
 H    1.5790829068   -1.4336005582   -0.4271231413
 H    1.5874960919    1.2235505369    2.0551232249
 H    0.3843393145    0.4545027483    3.1060522033
 H    2.0141781003   -0.2294849323    2.9572134947
 H   -0.6411564809   -1.8147871180    2.3304394114
 H   -0.3700521958   -3.6030299443    0.7870464889