19

 C   -0.0444805042    1.6462825424   -0.0671116621
 C    1.5029640616    1.4782000569    0.0719943370
 C    1.1224947752    0.2362331218    0.9807194795
 C   -0.0581766915    0.0712530525   -0.0362257989
 C    0.6984932124   -0.1677195978   -1.3426790722
 C    1.4150578304   -1.0291492251   -2.4207048250
 C    1.7199326559    0.5030901669   -2.6566589720
 O    0.3050536450    0.7642371018   -2.4663987490
 C    2.0026245991    0.6303826617   -1.1229667558
 H   -0.4689806166    2.0441720171    0.8582967063
 H   -0.4531438748    2.1543146128   -0.9338102958
 H    2.1265948939    2.2832416050    0.4593076643
 H    1.8481587479   -0.5765169876    1.0775572339
 H    0.7656474541    0.5381500577    1.9675885073
 H   -0.9601656281   -0.4922615018    0.1955612481
 H    2.2196242378   -1.6921607626   -2.0932983900
 H    0.7741700979   -1.4720984198   -3.1841261702
 H    2.2081387875    0.9629833046   -3.5185405541
 H    2.8746664464    0.0431845935   -0.8202213414