21

 C   -0.2953975804    1.5076202902    0.1839728472
 C    0.0036001493    0.0265761795    0.0055893564
 C   -1.1605005395   -0.7266798423   -0.6266903393
 O    1.2149077605   -0.1586695965   -0.7993701136
 C    1.8831477891   -0.8848931544    0.2484616525
 C    0.7058205848   -0.6737576386    1.1869972119
 C    0.7513478549   -0.2649810139    2.6356129765
 C    0.1562327976   -1.5924175266    2.2233860932
 O   -1.2333293533   -1.7561869965    2.2545365348
 H    0.5622103306    2.0303473938    0.6152156909
 H   -0.5234556318    1.9606744573   -0.7863000780
 H   -1.1611221122    1.6534298152    0.8387750002
 H   -1.3786527737   -0.3003806796   -1.6114082049
 H   -0.9136933854   -1.7834241814   -0.7554947832
 H   -2.0539283599   -0.6608811181   -0.0016690721
 H    2.0871585268   -1.9276371712   -0.0334824923
 H    2.8260614658   -0.4073947699    0.5468016318
 H    1.7114762256   -0.2518165515    3.1433635511
 H    0.0518481407    0.4999800685    2.9588436629
 H    0.7285148432   -2.4957178319    2.4429172000
 H   -1.5009060426   -1.8371614621    3.1761333841