19

 C    0.0163929372    1.5245198364    0.0312004785
 C    1.3067866670    0.7176235360    0.0257562024
 C   -0.0161082600    0.0229026705   -0.0215506052
 O   -0.4189650137   -0.6817123888    1.1448220204
 C   -1.4206028284   -1.5961034641    0.7232872690
 C   -2.6524322427   -0.8641044660    0.0925524418
 C   -2.0058781359   -1.0837013051   -1.2765741315
 C   -1.0233725354   -2.0897811996   -0.6937809938
 C   -0.5144351419   -0.7741526669   -1.2000954485
 H   -0.2716735309    1.9911232247    0.9664920255
 H   -0.2533832563    2.0805305943   -0.8610280709
 H    1.9256110886    0.7257401556   -0.8656154696
 H    1.8551911884    0.6515269670    0.9588881521
 H   -1.6002520436   -2.3077429599    1.5271947003
 H   -3.5664206806   -1.4547121487    0.2027167654
 H   -2.8323760090    0.1595329542    0.4349951676
 H   -2.5165800370   -1.1197313601   -2.2317133331
 H   -0.7089280430   -3.0722050644   -1.0178239515
 H    0.0292888071   -0.7330659354   -2.1361400089