16

 C    0.2274989745    1.6243095969   -0.0640327557
 C    0.1135806182    0.1084634752   -0.0105719348
 C    0.6703862706   -0.7701592848   -1.1656944758
 O    1.8997515311   -0.2575627424   -1.7194540766
 C    2.7000017823   -1.1483174265   -0.9102186906
 C    1.4534523452   -1.6705804426   -0.1597028830
 C    1.0174860000   -0.6961487951    0.9510428179
 O    1.2896618451   -0.5937066827    2.1115397284
 H    1.2155395240    1.9149458138   -0.4293066563
 H   -0.5236669406    2.0564646870   -0.7320944187
 H    0.0841367381    2.0498975581    0.9333221489
 H   -0.9208111548   -0.2051137656    0.1969260302
 H   -0.0198711830   -1.1285566839   -1.9315705824
 H    3.1896546843   -1.9115238489   -1.5267125503
 H    3.4551307472   -0.6220826089   -0.3163007649
 H    1.3375222178   -2.7418222896   -0.0054056063