19

 C    0.0086456121    1.5216832246   -0.0112228018
 C    0.0449989484   -0.0001587449    0.0156480163
 O    0.6586858705   -0.4252373641   -1.1927036327
 C    0.8422099661   -1.8270252012   -1.2564610176
 C    1.9232880637   -2.3001324558   -0.2787107990
 C    1.6986927500   -1.6935173831    1.0991494698
 N    2.2188101737   -0.3244938167    1.2907314414
 C    0.7666559326   -0.5406265725    1.2408892454
 H    1.0292285204    1.9122491809    0.0043770601
 H   -0.4907312855    1.8719493614   -0.9183901981
 H   -0.5321877894    1.9101895696    0.8575841278
 H   -0.9871047431   -0.3975222515    0.0480229487
 H   -0.1102489860   -2.3411839736   -1.0398647174
 H    1.1178582816   -2.0560868503   -2.2900509361
 H    1.9058265762   -3.3942664500   -0.2200526394
 H    2.9107982839   -2.0018844117   -0.6446099597
 H    1.7795582239   -2.3732437541    1.9440767026
 H    2.5192168421   -0.1951328189    2.2530301612
 H    0.2015097588   -0.4512520580    2.1673947283