14

 O    0.0253638455   -0.0235624574   -0.2233340359
 C   -0.0074987404    1.1759607541   -0.0955907516
 C   -1.2962956279    1.9851344488    0.0486771599
 O   -1.2796099821    3.0672673896   -0.8710803589
 C   -0.2989828302    4.0491190129   -0.5919340972
 C    1.0797997310    3.4772993216   -0.3056154343
 O    1.2769728895    2.9575267306    1.0040239803
 C    1.2356121830    2.0212191830   -0.0901185597
 H   -2.1446921570    1.3500989692   -0.2110045272
 H   -1.4061162469    2.3357502033    1.0868182120
 H   -0.2583847475    4.6896184585   -1.4777925587
 H   -0.5989810695    4.6689166128    0.2689324517
 H    1.9313211440    4.0328507497   -0.6984495280
 H    2.1686648384    1.5101416133   -0.3154765924