18

 C   -0.1807648485    1.5321197904    0.0712087832
 C    0.0687726696    0.0443073803   -0.0043333591
 O   -0.7241259164   -0.7460491059    0.9134262648
 C    0.6963279907   -0.6853953820    1.1095025475
 C    1.4672841190   -1.9730507322    0.8444849573
 C    2.0610697916   -2.0465532185   -0.5766863147
 C    1.1480066965   -1.4703640184   -1.6299270771
 C    0.2390270298   -0.5318335197   -1.3688530170
 H    0.6436454230    2.0904141689   -0.3851083633
 H   -1.0994683281    1.7939572623   -0.4658774040
 H   -0.2910614685    1.8510501176    1.1106675668
 H    0.9881011481   -0.1174058584    1.9935485293
 H    2.2641843094   -2.0896885056    1.5859227942
 H    0.7695489133   -2.8041486652    0.9915335040
 H    3.0225424649   -1.5128801808   -0.6132946583
 H    2.2994985001   -3.0876873827   -0.8201717889
 H    1.2646434456   -1.8415826355   -2.6452258791
 H   -0.3958132501   -0.1360167849   -2.1577401856