20

 C   -0.1485252412    1.4415724155    0.0029148061
 O   -0.1062745928    0.0343328818   -0.0094396561
 C    0.6652719565   -0.4836666784   -1.0627475318
 C    0.6910809634   -2.0071538256   -0.9938877740
 C   -0.7007828986   -2.6137309385   -0.8660632700
 C    1.5391491395   -2.6104204665   -2.1548492955
 N    2.6567148963   -3.3149043762   -1.5086041836
 C    2.5051438377   -3.1201449514   -0.2653946352
 O    1.4623016227   -2.3944819231    0.1913688169
 H    0.8552803135    1.8784429565    0.1219787943
 H   -0.5909322923    1.8451607695   -0.9218800992
 H   -0.7675429961    1.7417049348    0.8514502582
 H    0.2472934000   -0.1827566132   -2.0405003739
 H    1.7002123269   -0.1054512086   -1.0177355411
 H   -1.3027307332   -2.3606168964   -1.7452091120
 H   -0.6312552088   -3.7029890706   -0.7988490056
 H   -1.2059427387   -2.2293979310    0.0211416479
 H    0.9565317924   -3.3074378990   -2.7666476368
 H    1.9295269283   -1.8372358018   -2.8282602235
 H    3.1625363346   -3.4973268678    0.5108955352