19

 O    0.0218137149    1.0950134236    0.7670209043
 C   -0.0374089186   -0.2918839806    0.5308724665
 C   -1.3642860265   -0.6869887142   -0.1225747674
 C   -1.6457676600   -2.1931349499   -0.0846790433
 O   -2.3310245640   -2.3574137638    1.1525839373
 C   -3.1086264228   -1.1911930323    1.3304975200
 C   -3.2151578471   -0.9055759365    2.8243509794
 O   -1.9489985597   -0.8497763662    3.4409447794
 O   -2.4459563058   -0.1401458732    0.6453247581
 H   -0.7629047516    1.3004127837    1.2904689481
 H    0.7926477102   -0.5432019522   -0.1394089926
 H    0.0896417010   -0.8662546153    1.4618005795
 H   -1.4249262897   -0.2673722331   -1.1319954661
 H   -2.2778165792   -2.5107823702   -0.9255409079
 H   -0.7436733169   -2.8098298214   -0.0606342017
 H   -4.1122152867   -1.3224197912    0.8885450756
 H   -3.6925436589    0.0688107828    2.9622947074
 H   -3.8647952023   -1.6713632938    3.2765931671
 H   -1.5078284763   -1.6774795362    3.2153837362