20

 C   -0.0956517876    1.4905860106    0.1272191726
 C    0.0242563688   -0.0176324791   -0.0121872158
 C    0.7550643679   -0.4538638996   -1.2885682267
 N    1.0350743006   -1.8858714989   -1.3468855313
 C    1.6007436146   -2.4084964742   -0.1172937204
 C    0.8509490516   -1.8998383325    1.1456298120
 O    0.7444115002   -0.4938798156    1.1277967707
 C    1.5720272026   -3.9181463354   -0.1083169958
 O    0.8771040945   -4.5790590848   -0.8390407777
 H    0.8953083504    1.9551871210    0.1228595206
 H   -0.6783250220    1.9072648002   -0.6999990467
 H   -0.5903132350    1.7498463330    1.0668228087
 H   -0.9809440187   -0.4770492314   -0.0068436538
 H    0.1758202512   -0.1744114031   -2.1746571784
 H    1.7098562677    0.0887479302   -1.3365658981
 H    0.2170844307   -2.4320826962   -1.5964787601
 H    2.6471871618   -2.0794417905   -0.0253995171
 H   -0.1514127926   -2.3610529187    1.1764530702
 H    1.3852787558   -2.1642413293    2.0638846413
 H    2.2097625674   -4.3945438457    0.6687705359