19

 N    0.0834978686    1.5068266584   -0.0120031643
 C   -0.0836910897    0.0512429916   -0.0248012137
 C   -1.5771579811   -0.3257948625    0.0491786300
 C   -2.1729567616    0.0616230113    1.3930304989
 C   -3.5479185791   -0.5364988922    1.7657890367
 C   -2.7885042564   -1.1840109374    2.9411318875
 O   -1.5282730172   -0.6486208243    2.4817567385
 C    0.5558969050   -0.5931819424   -1.1915778112
 N    1.0592230391   -1.0537968381   -2.1254527602
 H    1.0645501405    1.7464783860    0.0918656492
 H   -0.2169650650    1.8971885520   -0.9011033906
 H    0.3932674543   -0.3486680818    0.8772321551
 H   -2.1242628616    0.1734592015   -0.7607468408
 H   -1.6812074068   -1.4056330603   -0.0996004940
 H   -2.0893065276    1.1442354462    1.5395905682
 H   -4.3224928488    0.1827674777    2.0341878172
 H   -3.9490265690   -1.2401133750    1.0331807346
 H   -3.0524409052   -0.8019603684    3.9348216861
 H   -2.7812501782   -2.2795781022    2.9741237228