14

 C    0.0227958264    1.5780129829    0.0155891886
 C    0.0141602916    0.0385466518   -0.0228457314
 C   -1.4318464580   -0.5361359784    0.0298658092
 C   -2.1351112082   -0.1684038275    1.2564183033
 N   -2.6741302448    0.1296517868    2.2342744051
 C    0.6902927874   -0.4746945150   -1.2115064763
 C    1.2258288882   -0.8918486934   -2.2031896385
 H    1.0489415644    1.9521629209    0.0060577415
 H   -0.4966019224    1.9888358412   -0.8553912121
 H   -0.4725519756    1.9385145992    0.9211283572
 H    0.5435042646   -0.3319360960    0.8641864735
 H   -2.0020915992   -0.1727552775   -0.8318687876
 H   -1.3990172179   -1.6273103909   -0.0451249286
 H    1.7137180135   -1.2606895641   -3.0715704240