16

 C   -0.0042028600    1.3436456828   -0.2225849587
 O   -0.0651442344   -0.0748681651   -0.2159414784
 C   -1.3079067018   -0.5821337757    0.1620224639
 O   -2.3137220016   -0.3872944315   -0.8172028142
 C   -2.5570210291   -1.5976156413   -1.5246444878
 C   -1.8686014997   -2.6611644154   -0.7254889022
 C   -1.1802790763   -2.0930609005    0.2666536369
 C   -0.3784248913   -2.7264817456    1.2484229895
 N    0.2698347471   -3.2218616563    2.0701807659
 H    1.0239393169    1.6144366682   -0.4688392572
 H   -0.6833896195    1.7680304424   -0.9711021500
 H   -0.2579748566    1.7566346157    0.7644942446
 H   -1.6492490164   -0.0888962788    1.0848087679
 H   -3.6414424043   -1.7554764468   -1.5904572921
 H   -2.1662571038   -1.5500897112   -2.5529359859
 H   -1.9235141792   -3.7179133309   -0.9498366322