17

 C   -0.0096842931    1.5265362807    0.1182482836
 C    0.1038702600    0.0095112634   -0.0066439323
 C    0.7293692495   -0.4647039609   -1.2891265216
 N    1.1237243644    0.3755429803   -2.1854060162
 C    1.6936081106   -0.1212022194   -3.3490696051
 C    1.8410594682   -1.4356205737   -3.5587063748
 O    1.4403328942   -2.3523466746   -2.6429133854
 C    0.8627108883   -1.9297245514   -1.4576820411
 N    0.4769089474   -2.7605496971   -0.5806219263
 H    0.9723309749    2.0038086139    0.0658910758
 H   -0.6163795523    1.9469747959   -0.6879930315
 H   -0.4724053163    1.7902623561    1.0735106070
 H    0.6816488936   -0.4164884220    0.8239185558
 H   -0.8784476654   -0.4722367448    0.0836048070
 H    2.0169983966    0.6018935917   -4.0868296223
 H    2.2743609219   -1.8963232380   -4.4369187486
 H    0.6544798175   -3.7198295801   -0.8813465539