21

 C   -0.1116351881    1.4214739607   -0.1869902093
 C    0.2041547005   -0.0756539569   -0.1510471548
 C    1.1792579847   -0.4907306537   -1.2607878699
 N    1.5061938576   -1.9065382384   -1.2540531006
 C    0.7361270203   -2.8230796014   -1.9078054429
 O   -0.2010835361   -2.5420514749   -2.6300168971
 N    1.1476895269   -4.1553439020   -1.6188813769
 C    0.8010238436   -5.1756989336   -2.5926759224
 C    2.2176257148   -4.7440047888   -2.4374376350
 H    0.7946961622    2.0244104467   -0.0590089223
 H   -0.5660851353    1.7059824580   -1.1422435790
 H   -0.8094206475    1.6986630868    0.6085153759
 H    0.6298984882   -0.3455682367    0.8242253787
 H   -0.7156734291   -0.6594436885   -0.2661968711
 H    0.7411112135   -0.2710840526   -2.2379377525
 H    2.1121846690    0.0797107018   -1.1781641788
 H    2.1188507360   -2.2613622084   -0.5372752014
 H    0.4727504384   -6.1212903480   -2.1719950577
 H    0.2609541078   -4.8367977688   -3.4713452694
 H    2.6417786897   -4.1264824553   -3.2252805434
 H    2.9328083530   -5.3610149760   -1.9006907101