21

 C   -0.0818959570    1.5177796988    0.0031334894
 C    0.0031738844   -0.0036836221    0.0058981029
 C    1.1264043050   -0.5832565814   -0.9227434180
 C    2.0483460488   -0.5962600109    0.3361587565
 C    0.7732685691   -0.5990792665    1.2356863489
 C    0.3152004587   -1.9833107166    1.6052813836
 C    0.1537145069   -3.0068832281    0.7499536881
 C    0.3899833135   -2.9962945544   -0.6942014268
 C    0.8132241383   -1.9609927959   -1.4387693392
 H    0.8956091643    1.9845638761    0.1664512645
 H   -0.4675189273    1.8857220388   -0.9542658063
 H   -0.7533195857    1.8729176516    0.7929229871
 H   -0.9872305287   -0.4350865895   -0.1593028660
 H    1.4423358089    0.0706582404   -1.7391835380
 H    2.7371862931   -1.4356065489    0.4427052538
 H    2.5986928270    0.3413343705    0.4330722999
 H    0.8110266950    0.0423698958    2.1194901798
 H    0.0980038931   -2.1588615123    2.6557398980
 H   -0.1859456604   -3.9557551441    1.1576966786
 H    0.2001736344   -3.9384487188   -1.2024327022
 H    0.9424976985   -2.1210143224   -2.5060729448