21

 C   -0.2071286387    1.4664882251   -0.0916817694
 O   -0.4266056837    0.1043209651   -0.3855790035
 C    0.5587062794   -0.5179134078   -1.1734783268
 C    0.5761066821    0.0164063446   -2.6056211595
 C    1.9802660153   -0.6613668884   -0.5480431717
 C    1.9772551492   -2.1576649806   -0.9495990557
 C    0.4236333579   -2.0878549960   -1.1504622933
 C   -0.3384232906   -2.6360103730   -0.0466983118
 C   -0.9474202235   -3.1271064583    0.8663989432
 H    0.7843223014    1.6382389453    0.3527470220
 H   -0.3064985771    2.1125854003   -0.9755288837
 H   -0.9691481533    1.7570096103    0.6355003004
 H    0.8966569462    1.0622291659   -2.6380849480
 H    1.2692897364   -0.5571453129   -3.2285002148
 H   -0.4239230498   -0.0548702739   -3.0447484187
 H    2.7765016520   -0.0289808167   -0.9479728397
 H    1.9314845012   -0.5416217112    0.5368807534
 H    2.4977670881   -2.3492488899   -1.8905442233
 H    2.3227796802   -2.8710604073   -0.2017253271
 H    0.0590731853   -2.5070221906   -2.0937031404
 H   -1.4995046278   -3.5443047900    1.6713491184