20

 C   -0.2526936271    1.2988866306    0.0385237233
 O   -0.0753892261   -0.1060518416    0.0226481015
 C    0.7003850839   -0.5833381033    1.0670037507
 O    0.0435260643   -0.3761281864    2.3166422135
 C    0.2594365823   -1.4802832627    3.1857143972
 C    0.6590940438   -2.6554014007    2.3045173396
 C    1.3956505916   -3.8248044178    2.8993874030
 N   -0.3276950092   -2.8371562089    1.2203129099
 C    0.9155037872   -2.0769446709    0.9663240066
 H    0.7153343721    1.8240854063    0.0410066246
 H   -0.7960171652    1.5607312383   -0.8719359988
 H   -0.8301256034    1.6203426340    0.9125338485
 H    1.6735270028   -0.0529081558    1.0795671694
 H    1.0656945225   -1.2624084885    3.9043481560
 H   -0.6664727207   -1.6603545135    3.7429152320
 H    0.7587183328   -4.3756501868    3.6011144144
 H    1.7170280075   -4.5241908165    2.1208441749
 H    2.2862454821   -3.4968658137    3.4463465702
 H   -0.2182382295   -3.7699687868    0.8263621908
 H    1.6670978084   -2.4646820155    0.2877209826