15

 O    0.0144736898    0.0231840020   -0.2113146050
 C    0.0291843316    1.2013578667   -0.0065321314
 O   -1.1210083986    1.9272545637    0.1205572497
 C   -0.9160057302    3.2287668804    0.6850970971
 C   -0.1524213654    3.0804646388    2.0242224525
 C    1.1432794368    3.1811431937    1.1994954559
 C    0.3858930891    3.9095377577    0.0657583985
 O    0.9704214058    3.1234230514   -0.9670995020
 C    1.2491774830    2.1103983113    0.0506594476
 H   -1.8739917821    3.7437007545    0.6466664900
 H   -0.2702851290    3.9628056597    2.6594856556
 H   -0.3628929487    2.1783621111    2.6037554238
 H    2.0894826146    3.5086816056    1.6276676818
 H    0.3548999094    4.9810367302   -0.1339554980
 H    2.1796568738    1.5717220333   -0.1210311862