17

 C   -0.0616456333    1.5388558418   -0.0645550052
 C    0.0313130958    0.0174351264    0.0481787026
 C    0.7605796122   -0.4477662213    1.2727269105
 N    1.2759215006    0.3029138369    2.1700929200
 C    1.8781560322   -0.5906636303    3.1661988453
 C    1.6214304264   -2.0172764684    2.6872133348
 N    1.9834115481   -3.0865670742    3.2689563692
 N    0.9181889926   -1.8187805176    1.5002034673
 H    0.9336685395    1.9876662474   -0.0958364972
 H   -0.6020642741    1.8199061188   -0.9725789306
 H   -0.5818060364    1.9612683912    0.7980260116
 H   -0.9720559009   -0.4308247707    0.0546666720
 H    0.5349485824   -0.4044630088   -0.8327863732
 H    2.9519449025   -0.3968687783    3.2624658251
 H    1.4363614361   -0.4237368165    4.1545436609
 H    1.6939385659   -3.9189868438    2.7526735508
 H    0.5799749003   -2.5535435425    0.9017275760