23

 C    0.6427328303    1.5527910778   -0.0334800655
 C    0.1035378415    0.1311733253    0.0077487265
 C   -1.0241120979   -0.1227238964    0.9748389863
 C    0.3835727792   -0.6340124884    1.2858968236
 C    0.6805531602   -2.0786644209    1.4398517866
 C    0.7641579459   -3.0671116518    0.5461239020
 C    0.5788931377   -3.0267805998   -0.9477136644
 C   -0.3783202581   -1.9631621982   -1.5012625299
 C    0.1133804857   -0.5195979540   -1.3699224410
 H    1.6820451036    1.5718732875   -0.3822759102
 H    0.0519869387    2.1765024281   -0.7151894365
 H    0.6132568510    2.0218068336    0.9548301455
 H   -1.4105455876    0.7117184858    1.5518710453
 H   -1.7643258834   -0.8760051671    0.7306617339
 H    0.8955602703   -0.0409923123    2.0410098249
 H    0.8635259904   -2.3560284111    2.4778315309
 H    1.0135491543   -4.0513985475    0.9392016541
 H    1.5610970832   -2.9043875172   -1.4321617159
 H    0.2262899383   -4.0143623719   -1.2712917738
 H   -0.5262380859   -2.1666200742   -2.5687934751
 H   -1.3639552083   -2.0775089642   -1.0349501692
 H   -0.4949737486    0.1149857549   -2.0295102163
 H    1.1368781494   -0.4641156680   -1.7694066219