14

 O    0.1011551559    1.3744431427    0.2111323889
 C    0.0529780551   -0.0122306741    0.0589690706
 C   -1.3317862758   -0.6619198392    0.0142270903
 N   -1.9694347269   -0.0500948830   -1.1837691191
 C   -1.0815252551   -1.2351399350   -1.3368324078
 C    0.3228238634   -0.6302856079   -1.3971485470
 O    0.5946956246    0.2447804767   -2.4500658691
 H   -0.6113625278    1.7296431284   -0.3353224056
 H    0.7169582619   -0.4499017319    0.8077284933
 H   -1.9389166310   -1.0414956453    0.8266981784
 H   -2.9350266573   -0.3683465902   -1.2275786105
 H   -1.4556395812   -2.1485035044   -1.7824808537
 H    1.1209017471   -1.3756377764   -1.3727645499
 H   -0.1978667330    0.7849151297   -2.5620864688