19

 C    0.1775947433    1.4256212918   -0.3027584270
 C   -0.1673179478    0.0197655483    0.1846632707
 O   -0.1049557195   -0.9474263374   -0.8890283619
 C    1.1260951599   -1.6854102554   -0.8663586156
 C    1.6063755739   -1.5678260883    0.5527530691
 C    2.8888432613   -1.1237289436    1.2857278457
 C    2.0372658238   -0.0037886479    1.9890828281
 C    0.8124299872   -0.5164753566    1.1999860885
 O    0.6174557049   -1.8921224829    1.5317179190
 H    1.2088433978    1.4814556452   -0.6667495326
 H   -0.4875290186    1.7027157509   -1.1241561775
 H    0.0571069538    2.1576646698    0.5028061471
 H   -1.2034662401   -0.0077330474    0.5404886887
 H    0.8939909987   -2.7031653696   -1.1952946715
 H    1.8744222738   -1.2584088732   -1.5520351602
 H    3.3457204872   -1.8818546543    1.9246212342
 H    3.6436104986   -0.7122727083    0.6118800570
 H    1.9391342078   -0.0605224270    3.0748398821
 H    2.3500811239    1.0023289958    1.7040735060