15

 C    0.0401936579    1.5028365367    0.0135786556
 C    0.0355239828    0.0122968551    0.0917184541
 O    0.7805014411   -0.7079599623   -0.9654202041
 C    0.8283425016   -1.8098844475   -0.0443216516
 C   -0.6485434943   -2.1403146345    0.4150037900
 O   -0.3331503907   -1.7262373943    1.7874709773
 C    0.6996342260   -0.9155850224    1.1923934420
 C   -1.2714548073   -0.8076760063   -0.0497281089
 O   -2.3686416310   -0.4970393767   -0.4024391169
 H    1.0607764166    1.8943055246   -0.0023544442
 H   -0.4809467397    1.8358224524   -0.8888356812
 H   -0.4845755699    1.9187945094    0.8791913783
 H    1.5551662293   -2.5877191936   -0.2672920166
 H   -1.1764344351   -3.0850256786    0.3252508369
 H    1.4678541227   -0.5482234520    1.8704674093