17

 C   -0.0274880287    1.5661721394    0.0025584965
 C    0.0941380867    0.0448500374    0.0119927506
 C    0.8870913064   -0.5617682147   -1.1760909118
 C    1.5630190522   -1.7646692097   -0.5638026899
 C    1.4634131225   -1.7801643489    0.7660388881
 C    0.7718226303   -0.5433430360    1.2895494120
 O    1.6989148075    0.3348860910    1.9344361736
 H    0.9554083310    2.0403143784    0.0768705188
 H   -0.5060993916    1.9135492056   -0.9191033750
 H   -0.6239159240    1.9221725344    0.8483059410
 H   -0.9123191612   -0.3900635784   -0.0216822077
 H    0.2333819103   -0.8267442101   -2.0150881775
 H    1.6291761030    0.1406026119   -1.5834077632
 H    2.0779375169   -2.5110976004   -1.1601727596
 H    1.8929124260   -2.5240230776    1.4278892326
 H    0.0273494326   -0.7543315637    2.0642357309
 H    2.4933555002    0.3613089914    1.3897026908