19

 C   -0.2310918519    1.5527107482    0.2620628340
 N   -0.0420610518    0.1245419486    0.0357312601
 C    0.7866510878   -0.4791429488    1.0676521225
 C   -1.2878649991   -0.5912155759   -0.1570240695
 C   -1.9396341650   -0.2750107360   -1.4923792961
 C   -3.4010945484   -0.3983346365   -1.6696654981
 O   -2.7880292405    0.8803005017   -1.5504299548
 C   -1.0952700156   -0.4594822636   -2.6631049100
 N   -0.4384355438   -0.6341022462   -3.5973283154
 H    0.7455815422    2.0431482901    0.3032878614
 H   -0.8022280936    1.9976210019   -0.5545066816
 H   -0.7645710128    1.7674209476    1.2074555367
 H    0.3330011048   -0.4334876238    2.0760985104
 H    0.9795829636   -1.5289135623    0.8266649488
 H    1.7486636183    0.0399542751    1.1104109694
 H   -1.0738191136   -1.6659687765   -0.1372782704
 H   -2.0382246509   -0.3893482852    0.6320663891
 H   -3.7994642167   -0.6404255366   -2.6522180824
 H   -4.0016612130   -0.7146767219   -0.8183695341