18

 C   -0.1010828338    1.5388765799   -0.0857740546
 C    0.0375359704    0.0523134928    0.0372519529
 O    0.4004184375   -0.6016714547   -1.1839636158
 C    1.1557587394   -1.6649694228   -0.8054104208
 N    1.4057613633   -1.8419941498    0.4279326747
 C    0.7215189528   -0.7718213148    1.1358971195
 C    1.3779097408   -0.2532379081    2.3862831506
 C   -0.7876318516   -0.8085799073    0.9718083811
 O   -1.5175996373   -0.1662260676    1.9738183001
 H    0.8508877947    2.0036512753   -0.3591947105
 H   -0.8384304608    1.8000440663   -0.8529572553
 H   -0.4316784402    1.9591990977    0.8664077361
 H    1.5054894424   -2.2856622264   -1.6214435801
 H    2.3485460475    0.1985875097    2.1598257128
 H    0.7447100488    0.4867892778    2.8786103711
 H    1.5453503550   -1.0793042790    3.0840678392
 H   -1.2224432426   -1.7287714417    0.5785177469
 H   -2.2911550262    0.2413327928    1.5689332121