17

 C   -0.0377007961    1.5773960684   -0.0370724920
 C    0.1567458491    0.0643631436    0.0025715537
 C    1.3047767934   -0.8466821192   -0.3449429844
 N    2.7228710201   -0.5508498591    0.0653362310
 C    2.8167893408    0.7605285540    0.7411861855
 C    2.2302288905   -0.3801504585    1.4740688723
 C    0.7812142660   -0.7786316053    1.1011481116
 C    0.0525609510   -1.7467183156    1.8463893408
 N   -0.5388985533   -2.5286898698    2.4635175627
 H    0.4624237614    2.0312432967   -0.8982364898
 H   -1.1050280929    1.7970664017   -0.1271745784
 H    0.3153023111    2.0707014203    0.8702431647
 H   -0.7399455411   -0.4551353274   -0.3337950714
 H    1.1832275861   -1.6544370109   -1.0555858383
 H    3.8476348262    0.9970227735    0.9914663894
 H    2.2399030439    1.6042775177    0.3987249643
 H    2.7346264039   -0.8770461601    2.2953467583