21

 C   -0.0909852994    1.5941124325    0.4565769438
 C    0.0238142082    0.0648110188    0.4510584542
 C   -1.3207711375   -0.6035411489    0.1765903196
 C   -1.9995396789   -0.6828445062   -1.2409824335
 C   -1.0768810106   -1.8735460872   -1.5952897848
 O    0.2492546267   -1.5763319897   -1.9525695501
 C   -1.4998370986   -2.1341797025   -0.1107400397
 C   -2.9351518002   -1.7847015561   -0.6314925905
 O   -3.9895518012   -1.4775534512    0.2287553083
 H    0.8671953128    2.0606172868    0.7052911157
 H   -0.3989136111    1.9708513063   -0.5246810439
 H   -0.8285744472    1.9404543739    1.1903360628
 H    0.7714321003   -0.2497193751   -0.2748585562
 H    0.3697331294   -0.2726648711    1.4381423922
 H   -2.0082351240   -0.2332639839    0.9513889151
 H   -2.2873303905    0.1397322185   -1.8972264784
 H   -1.5083318212   -2.5846889594   -2.3145004799
 H    0.7377632420   -2.4046438832   -1.9886781901
 H   -1.2133937274   -2.9725620614    0.5278443235
 H   -3.3495460369   -2.4897458974   -1.3564813268
 H   -3.6913999847   -0.8491127633    0.8940908587