14

 O    0.0911882642    1.3884642446    0.0087152418
 C   -0.0088816032   -0.0066004614    0.0018744658
 C   -1.4776385225   -0.4101347100    0.0141419554
 O   -2.3921117292    0.3756358078    0.0275511444
 C   -1.6908652174   -1.8520107522    0.0082502080
 C   -1.8801680873   -3.0418657845    0.0035756903
 C   -2.0987137482   -4.4847197482   -0.0017833390
 C   -3.5172576879   -4.8642939916    0.0094407268
 N   -4.6257846503   -5.1852368783    0.0180671444
 H    1.0236303233    1.6232351661    0.0004291308
 H    0.4482032857   -0.4726488576   -0.8889661632
 H    0.4656918659   -0.4825632814    0.8782145079
 H   -1.6261052598   -4.9320592824   -0.8858387274
 H   -1.6098205834   -4.9410574609    0.8687163740