16

 C   -0.0006774239    1.5594503929   -0.1155874904
 C    0.0024392363    0.0545580628    0.0699475415
 O    0.0077752279   -0.4652500675    1.1710621019
 C   -0.0008854218   -0.7678737648   -1.1434345912
 C    0.0009976631   -2.1185806969   -1.3776970211
 C    0.0068442380   -3.2468200076   -0.4072005046
 N   -0.0037113298   -2.3306106251   -2.7491039601
 C   -0.0081906522   -1.1409309144   -3.2624182665
 O   -0.0068736443   -0.1367238096   -2.3736789210
 H    0.8773173826    1.8789124064   -0.6866180208
 H   -0.8803026095    1.8759923727   -0.6856295770
 H   -0.0006462132    2.0353087698    0.8651691671
 H   -0.8749228816   -3.8789586134   -0.5571988488
 H    0.8853683961   -3.8803358648   -0.5695371621
 H    0.0138787524   -2.8680853631    0.6141991896
 H   -0.0126957001   -0.8683123072   -4.3069086567