20

 O    0.1008079525    1.4049781874   -0.1015115281
 C    0.0143625234   -0.0001084552   -0.0210434835
 C   -1.3927694412   -0.4405767725   -0.4341631736
 C   -1.7668207980   -1.6404005499    0.4753479582
 C   -0.8427308506   -1.5624695205    1.7279464905
 C    0.3403258041   -0.6657688245    1.3447106926
 N    1.6309258359   -1.2733935038    0.8081966657
 C    1.2922125372   -2.1703092642   -0.3094592448
 C    1.2654412039   -0.7179063436   -0.5642100812
 H    0.9865283369    1.6682771914    0.1725417616
 H   -2.0578376945    0.4089276804   -0.2495043217
 H   -1.4632309591   -0.6843823281   -1.4979438848
 H   -2.8234171569   -1.6122672845    0.7563222154
 H   -1.6242359984   -2.5861203486   -0.0557552614
 H   -1.3795311619   -1.0980198249    2.5613095041
 H   -0.5230275736   -2.5507446337    2.0728722235
 H    0.6137692724    0.0408002154    2.1311638681
 H    2.1601793322   -2.7141281650   -0.6728116923
 H    0.3850052579   -2.7624191176   -0.2897753419
 H    2.0017732579   -0.2252499178   -1.1948656963