17

 O   -0.0517665201    1.3962811633    0.0020074439
 C    0.0747198269   -0.0070045641    0.0012969066
 C   -1.3749974869   -0.6215046476    0.0085385204
 O   -1.2958494627   -2.0327103537    0.0080195293
 C    0.0934039775   -2.5086663567    0.0010028615
 C    0.7411896131   -1.9297332486   -1.2420604794
 C    0.7144252895   -0.5987178797   -1.2435409108
 C    0.7536497571   -1.9299212991    1.2375817181
 C    0.7268783449   -0.5989052596    1.2395562307
 H    0.8326871591    1.7764478038   -0.0015958645
 H   -1.9021975445   -0.2741394559    0.9050173739
 H   -1.9112019867   -0.2739923453   -0.8825271184
 H    0.0254004115   -3.5951529230    0.0012651024
 H    1.0930528187   -2.5570579258   -2.0515190233
 H    1.0102854170    0.0520001680   -2.0585805403
 H    1.1136385569   -2.5573649295    2.0433664922
 H    1.0308905487    0.0516475934    2.0517276477