16

 C    0.3297068492    1.3583848380   -0.1604979375
 C   -0.0108172928   -0.0973890326   -0.0581555853
 N   -0.0048175390   -0.7147996900    1.1102441990
 H   -0.2193041473   -1.7293653828    1.0889265104
 H    0.2077942090   -0.2140672734    1.9560902080
 N   -0.2942256690   -0.7814685833   -1.1466749077
 C   -0.5927623859   -2.1517153954   -1.2381994650
 N   -0.6289987353   -2.9151791508   -0.2227472922
 C   -0.8494962552   -2.4973651113   -2.7400167751
 O   -1.1227297021   -3.6722406333   -2.9626521687
 O   -0.7235375633   -1.4722537162   -3.4635619953
 H    1.4152637102    1.4746626942   -0.2471852354
 H   -0.1323912342    1.7982338311   -1.0451418427
 H   -0.0037106824    1.9000568870    0.7275795421
 H   -0.3480481697   -0.4556387440   -2.1516416512
 H   -0.8674996923   -3.8511997971   -0.5665788633