15

 O    0.0033897184    0.0645117894    0.2994973362
 C    0.0402454812    1.2229944090    0.0217037175
 O   -1.0979853644    1.9898012924   -0.1223074447
 C   -0.7723780189    3.2457155938   -0.6632291302
 C    0.0717909026    4.2603838689    0.1318445605
 C    0.6453694442    3.8402292216    1.4357845477
 C    1.3566536439    2.7153076952    1.3152932502
 C    1.2524548195    2.1701755164   -0.1081676896
 C    0.6897442765    3.3454792830   -0.9214249158
 H   -1.5298228701    3.6047977136   -1.3485923480
 H   -0.1301467638    5.3048315018   -0.0779341461
 H    0.4656063610    4.3779920637    2.3582320615
 H    1.8078941518    2.1459054331    2.1177532610
 H    2.1334784137    1.6619762755   -0.4960855098
 H    1.1273867043    3.6788715226   -1.8531043402