18

 C    0.2230506014    1.6386383022    0.0695552977
 C    0.0438880885    0.1160513292    0.0155372600
 C    0.7290858879   -0.5073713704   -1.2149580365
 C    2.1608082402   -0.8275798992   -0.7677086233
 O    3.0779255479   -1.1183530647   -1.4899706970
 C    2.2143945786   -0.7241582215    0.7605857971
 C    0.7427342527   -0.6115201395    1.1924041294
 O    0.5228421219    0.0933657164    2.3994616182
 H    1.2773932605    1.9298941833    0.0056017120
 H   -0.2980995822    2.1089841232   -0.7701718144
 H   -0.1775559509    2.0441963204    1.0003773179
 H   -1.0269229362   -0.1077833277    0.0324532052
 H    0.2621966256   -1.4612297403   -1.4955159936
 H    0.7249440177    0.1223857867   -2.1083082189
 H    2.7652571367   -1.5626887959    1.1946057757
 H    2.7505988736    0.1956226280    1.0261922081
 H    0.3165915977   -1.6256724178    1.2632370390
 H    0.9426881084   -0.3935951225    3.1150114633