16

 C    0.1130955438    1.6051646969   -0.0283548015
 C    0.0336250376    0.0644145092   -0.0123920954
 C    0.6675589607   -0.5549088655   -1.2709283745
 O   -0.0696860132   -0.0831299314   -2.3846518322
 C    0.6459409294   -0.4895266283    1.1885121571
 C    1.1808689871   -0.9510867069    2.1692344592
 C    1.7855807223   -1.4788158909    3.3637815172
 O    2.7028090576   -2.2681651209    3.3795478008
 H    1.1555236884    1.9361930835    0.0057371242
 H   -0.3426371535    1.9785051830   -0.9468948204
 H   -0.4094766764    2.0309096495    0.8314370521
 H   -1.0267072383   -0.2243505409   -0.0178788485
 H    1.7261588328   -0.2581524233   -1.3248806700
 H    0.6299527409   -1.6509353844   -1.1941546947
 H    0.3396855936   -0.4217988526   -3.1858439100
 H    1.3369656473   -1.0981262769    4.3042757966