16

 C    0.0653830044    1.4945811340    0.1010334104
 C    1.2955817778    0.6182145771   -0.1000836464
 O    2.2122217638    0.3960230331    0.9533777676
 C    1.9719694568   -0.6627772470    1.7746111530
 N    0.9244933879   -1.3582574319    1.9244141186
 C   -0.2454338971   -0.9850968425    1.1653552163
 C   -0.7178369324   -1.9104403226    0.0099135524
 O   -0.7102641683   -0.7922661788   -0.9237385057
 C   -0.0547178662    0.0127854545    0.0403812026
 H   -0.0948122543    1.9830500175    1.0577313563
 H   -0.2303451571    2.0732594993   -0.7680718172
 H    1.7974287549    0.6647488089   -1.0600329999
 H    2.8604635273   -0.8647364603    2.3689023097
 H   -1.0582061350   -0.7450390302    1.8582502723
 H    0.0166208501   -2.6754306488   -0.2637295604
 H   -1.7135080626   -2.3518932725    0.0995079803