19

 C   -0.2127247359    1.5603431707   -0.1706242870
 C    0.0348617797    0.0815128832    0.0296436692
 O    0.9950401393   -0.5026518657   -0.9611901370
 C    1.8551446861   -0.7877399173    0.1344504568
 C    2.6357673749   -1.8128957601    1.0052403325
 C    2.2200913952   -0.5517288404    1.9299289941
 C    2.7017533967    0.3491251620    0.7875127819
 C    0.8146061591   -0.6408321105    1.2257632669
 O    0.0351624068   -1.7583035811    1.6113487467
 H    0.7014960543    2.1545384801   -0.1640997905
 H   -0.7070535603    1.7194695637   -1.1348495335
 H   -0.8794069727    1.9309360191    0.6152976594
 H   -0.9032901364   -0.4730931322   -0.0478071537
 H    2.1301247843   -2.7509332051    1.2212187854
 H    3.7084877480   -1.9347612376    0.8335122035
 H    2.4544239493   -0.4509989637    2.9932268220
 H    3.7715663201    0.3302076971    0.5726925429
 H    2.3052008749    1.3616612481    0.7627646692
 H    0.0555689867   -1.8067103502    2.5706030211