19

 N    0.1525965198    1.3939673300    0.0906729681
 C   -0.0210293746   -0.0074592887    0.0331829659
 C   -1.1411102831   -0.8174302379    0.0215609685
 C   -0.6675548061   -2.1612523864    0.0593589744
 C    0.6996462574   -2.1251380296    0.0820211597
 C    1.3621746431   -3.4624428714    0.0128373596
 C    0.1387240694   -4.3950771154    0.2982355559
 C   -1.1598155430   -3.5796251851   -0.0136756202
 N    1.1025274944   -0.8138096367    0.0576206197
 H    0.3010332866    1.8014221986   -0.8289380729
 H   -0.6674434276    1.8368873998    0.4872492856
 H   -2.1618890488   -0.4666786343   -0.0181655984
 H    1.7983538529   -3.6604382151   -0.9775196326
 H    2.1657255934   -3.6162286804    0.7434023901
 H    0.1927883360   -5.3277924564   -0.2695691827
 H    0.1430304720   -4.6632852742    1.3590400809
 H   -1.9590400573   -3.8163970112    0.6979961085
 H   -1.5524126101   -3.8242975365   -1.0107439753
 H    2.0328175055   -0.4541424489    0.1848237952