17

 O    0.3026570103   -0.1947253242   -0.4585674820
 C    0.1358949551    0.9433594213   -0.0918716196
 C    1.2470511650    1.9635731231   -0.0363468051
 C    1.1419824079    3.2850626495   -0.8894044414
 C    1.4606866608    4.1000456208    0.3704511572
 C    0.3757908329    3.9102833330    1.4065649719
 C   -1.0222181880    3.8098662978    1.0909707701
 C   -2.1992183837    3.7797214768    0.8413372058
 C    1.4345319029    2.8336951152    1.2203073339
 H   -0.8632342188    1.3043856134    0.2241360302
 H    2.1772254955    1.4431115206   -0.2759850858
 H    1.9135079242    3.3296114754   -1.6583933852
 H    0.1699368417    3.4952272189   -1.3437231811
 H    2.1325613921    4.9478516815    0.4205801175
 H    0.5694070164    4.4831713612    2.3112923185
 H   -3.2374512928    3.7360730331    0.6221482312
 H    2.0608691384    2.5569056628    2.0601934138