21

 O    0.0743347954   -0.0179981201    0.2432685235
 C    0.0821730426    1.1824601544    0.1536948079
 C    1.3201590096    2.0345593391   -0.0745572466
 C    1.1754166142    2.7884276088   -1.3890490674
 C    2.3880352340    3.1146304511   -2.2235656170
 C    1.4002101716    2.0804004039   -2.7025376368
 C    1.5100741867    2.9713894922    1.1101445567
 C    2.0837920540    2.4542345533    2.4064765270
 C    2.8923889082    3.3898717557    1.5430034233
 H   -0.8640678303    1.7696651618    0.2369930154
 H    2.1692451334    1.3437702277   -0.1376571683
 H    0.3886461274    3.5393751394   -1.3815963785
 H    2.4195889270    4.0731941006   -2.7295238030
 H    3.3535159378    2.7682161166   -1.8708739016
 H    1.6992362446    1.0380429584   -2.6667184401
 H    0.7559522589    2.3281790536   -3.5385988452
 H    0.7347808870    3.7287532910    1.2012522913
 H    1.6760568707    2.8315396693    3.3375267426
 H    2.3825311965    1.4118279229    2.4432610666
 H    3.7383720570    2.9778287732    1.0034831106
 H    3.0371413338    4.4101427070    1.8805365197