14

 O    0.2049609929    1.3580503866    0.0744027083
 C   -0.0062386046   -0.0090664868   -0.1288397757
 C   -1.4545667040   -0.3538400178    0.1964656854
 O   -2.2983375101    0.4635468366    0.4289534812
 C   -1.7323008554   -1.8777587169    0.2157025804
 C   -3.1339492295   -2.2170825255    0.0912698814
 C   -4.3022912209   -2.4980633155   -0.0194563526
 C   -5.6216929625   -2.8251024864   -0.1466799006
 N   -6.7424098559   -3.1100356636   -0.2563171218
 H    1.1069352633    1.5677485707   -0.1851769562
 H    0.1670587211   -0.3218910745   -1.1747327960
 H    0.6449875903   -0.6467452239    0.4957675708
 H   -1.1467808018   -2.3726254654   -0.5699942911
 H   -1.3377427827   -2.2614465776    1.1678171865