17

 N   -0.0056845714    1.3613924242    0.3558512027
 C   -0.0064188723   -0.0605885003    0.0078159580
 C   -1.4703589596   -0.6003370255   -0.0174732967
 C   -2.2471077146   -0.1233886696    1.2763020256
 O   -1.4419457355   -0.1365130039    2.4194463805
 C   -2.1797666961   -0.1078606662   -1.2009540899
 C   -2.7609869287    0.3575545923   -2.1438735656
 C   -1.4058166705   -2.0709762091   -0.0527044311
 N   -1.3411600962   -3.2242908512   -0.0644362765
 H    0.9496461489    1.7001998742    0.4064843247
 H   -0.4665747988    1.8968917239   -0.3752499887
 H    0.4639583518   -0.2998777162   -0.9553597130
 H    0.5280699338   -0.6043128712    0.7901291888
 H   -2.6417238309    0.8751591630    1.0582466945
 H   -3.0896674422   -0.7974475681    1.4466475928
 H   -0.8414981569    0.6158784090    2.3119636478
 H   -3.2823932009    0.7421893646   -2.9860445240