23

 C    0.5302144461    1.2163166181    0.2152349551
 C    0.0108351584   -0.2274692191    0.0961158502
 C   -1.4812515158   -0.3119900601   -0.1300583601
 C   -1.9838149750   -0.7206172807   -1.2966362079
 C   -3.4457325804   -0.8292895651   -1.6628781987
 C   -4.3939079590   -1.4610451612   -0.6691224096
 C   -4.2936458586   -1.5865048527    0.6541983829
 C   -3.2185215324   -1.0776381976    1.5782763641
 C   -2.3733308760    0.0844810066    1.0292215269
 H    1.6080102770    1.2286553340    0.4061560659
 H    0.3410028322    1.7728918709   -0.7081358138
 H    0.0428767690    1.7556892060    1.0338859047
 H    0.5349944479   -0.7316287077   -0.7231004056
 H    0.2701846680   -0.7723954128    1.0154870634
 H   -1.2872034368   -0.9887240725   -2.0890552118
 H   -3.8336264520    0.1678828810   -1.9363290317
 H   -3.5219059065   -1.4057254667   -2.5928035354
 H   -5.2902864859   -1.8703267408   -1.1331058556
 H   -5.1027784214   -2.1133120964    1.1583946698
 H   -3.7006102372   -0.7516075280    2.5097887198
 H   -2.5557474896   -1.9054285364    1.8708289206
 H   -1.7625020552    0.4851328664    1.8451779133
 H   -3.0511492967    0.8940664148    0.7280842935