19

 O    0.3490657588    0.5373082329   -1.1361967223
 C    0.0598508050    1.3630047911   -0.3322736615
 C   -1.2035387912    1.9080520588    0.3351954626
 C   -0.2201021795    2.8415931933    1.0652378313
 C   -0.0648618310    2.6971138430    2.5672910042
 C    1.1466338895    3.4302513594    3.1024600631
 C    1.0592266996    4.8974214360    3.4481397347
 C    1.1998554223    3.8673893128    4.5426024524
 O    0.9024311105    2.2122303363    0.3381354142
 H   -1.9084145993    2.3770132114   -0.3529195256
 H   -1.7276393122    1.1831832673    0.9614905990
 H   -0.2829629989    3.8921825756    0.7688937670
 H   -0.9764785894    3.0832414802    3.0428408255
 H   -0.0051360399    1.6289151635    2.8146405700
 H    2.0839086199    3.0987421854    2.6656851185
 H    1.9086193753    5.5327265833    3.2240313861
 H    0.0979536907    5.3905320188    3.3405646245
 H    0.3330091598    3.6695956113    5.1650646234
 H    2.1460461701    3.7977973696    5.0672613428