19

 C    0.2216458582    1.5700039403   -0.1639862647
 C   -0.0484439665    0.0865339188    0.0885104672
 O    0.4646733687   -0.6918669676   -0.9998378582
 C    1.2970162139   -1.7398606358   -0.5201024140
 C    1.3971246940   -1.5186384034    0.9704928153
 C    0.6329418331   -0.4805423663    1.3041541607
 C    2.2234855889   -2.3443766045    1.8657854630
 C    2.4401425997   -3.7890053955    1.6504700268
 O    3.4596172577   -2.8503257631    1.3286239115
 H    1.2976813279    1.7622078874   -0.2033248231
 H   -0.2221949940    1.8731029986   -1.1163371341
 H   -0.2176992381    2.1824018949    0.6305811065
 H   -1.1409322672   -0.0638686170    0.1492551096
 H    0.8521305618   -2.7190325920   -0.7639679318
 H    2.2784170147   -1.6980965879   -1.0113260699
 H    0.4965442430   -0.0760036122    2.2998639347
 H    2.3044407941   -1.9786248703    2.8892400682
 H    2.6391589235   -4.4265568572    2.5111782480
 H    1.9737812668   -4.2868942872    0.8022598344