16

 C    0.2321298298    1.4984942704    0.0929110419
 C    0.0733160066    0.0113650444    0.0572543411
 N    0.2799001281   -0.6650468631   -1.0698463764
 N    0.0704067675   -1.9626188212   -0.7451519930
 C    0.1577134177   -2.9684099262   -1.7780647129
 C   -1.1540510287   -3.3836548358   -2.3005342011
 N   -2.1794393415   -3.7290345090   -2.7036514991
 C   -0.2780646869   -2.1198933062    0.5590894558
 C   -0.2827017327   -0.8633632980    1.1157379547
 H    1.0125601975    1.7999698706    0.7999395730
 H    0.5023927867    1.8687806637   -0.8979208751
 H   -0.6959676432    1.9893624250    0.4046395248
 H    0.7529349245   -2.5437041634   -2.5896194104
 H    0.6800821538   -3.8524598313   -1.3978874805
 H   -0.4908758085   -3.0934238956    0.9726507508
 H   -0.5024989107   -0.6078533242    2.1399373965