12

 O    0.1043727433    0.2798909234   -0.5245658342
 C    0.1392847619    1.4206682713   -0.1406098671
 N    1.2103049322    1.9858325507    0.5448988134
 C    2.5846593537    1.7909484230    0.1681721289
 C    1.9525144339    3.1655296945    0.0983566045
 C    1.6657045874    3.7639571060   -1.1767460966
 C    1.4139085898    4.2846816990   -2.2305228632
 H   -0.7080167928    2.1248338948   -0.2249781175
 H    3.2798512470    1.5767807610    0.9747661922
 H    2.7729475234    1.2778150076   -0.7703704956
 H    2.1858716139    3.8676268322    0.8956128171
 H    1.1966780263    4.7365411364   -3.1671463719