17

 C   -0.0068334468    1.5166647732    0.0348921385
 C   -0.0396481236    0.0184651438   -0.0270659391
 C   -0.1315615608   -0.6666079169   -1.1800804396
 C   -0.0449939441   -2.1373490666   -1.2348730285
 O   -0.1068715204   -2.7580919818   -2.2785932351
 C    0.1856835029   -2.8315399049    0.1098030672
 N   -0.3676146502   -2.1168082537    1.2598332721
 C    0.0582019735   -0.7216727585    1.2927751546
 H    0.8993317807    1.8630685609    0.5482884827
 H   -0.0314258142    1.9664447952   -0.9602254910
 H   -0.8553596715    1.9024188337    0.6142338071
 H   -0.2241469498   -0.1608685502   -2.1377114360
 H   -0.2254176168   -3.8428840999    0.0594845364
 H    1.2723024506   -2.9348958343    0.2494784996
 H   -1.3811831123   -2.1414609809    1.1965586898
 H    1.1038223031   -0.6778839065    1.6399095237
 H   -0.5267761704   -0.1940491626    2.0555382678