20

 O   -0.0323708783    1.3922401536   -0.2297675098
 C    0.0481195525   -0.0211850565   -0.0535236477
 C    0.7667960778   -0.4841045641    1.2459089338
 C   -0.3173326393   -1.0574413268    2.1928240313
 C   -0.9589321642    0.0340707550    3.0738324340
 C   -1.9034125478    0.7654779782    2.0957486164
 N   -2.3050685142   -0.2447114724    1.0844415528
 C   -1.3494790773   -0.6177443469    0.0248217760
 C   -1.4806863175   -1.4446491547    1.2558554119
 H    0.8622579145    1.7265284396   -0.3470943681
 H    0.5509025447   -0.4596173350   -0.9285481908
 H    1.4857633057   -1.2705802795    0.9943397127
 H    1.3313811649    0.3382728096    1.6994215484
 H    0.0635765359   -1.8937195743    2.7830048087
 H   -1.5390603476   -0.4323715844    3.8776080582
 H   -0.2221763360    0.6961379800    3.5392422964
 H   -2.8098774217    1.1214317187    2.5940658728
 H   -1.4207584727    1.6159560015    1.6127784527
 H   -1.8314547371   -0.8762816200   -0.9144328422
 H   -1.9702074022   -2.4126550414    1.3077926524