19

 C    0.0580317955    1.5423576363   -0.0530130099
 C    0.0462928352    0.0873596652    0.0013791959
 C    0.0375630372   -1.1173846191    0.0446941378
 C    0.0562831653   -2.5654018787    0.0710766437
 C   -0.0791622811   -3.3256595078    1.4414227213
 C   -1.5775594846   -2.9167921897    1.4574510377
 C   -1.2966581171   -3.3696965600   -0.0036855841
 C   -0.5386131268   -4.5680169695    0.6116346626
 O    0.3621336905   -5.2249992548   -0.2425590791
 H    0.8110532735    1.9089262292   -0.7596968883
 H   -0.9130409859    1.9382156880   -0.3713587104
 H    0.2858249398    1.9774612655    0.9267248712
 H    0.8361781477   -2.9673855120   -0.5769804805
 H    0.6279064307   -3.2964813000    2.2722897333
 H   -2.2541416717   -3.5444758394    2.0442888264
 H   -1.7820461237   -1.8561193969    1.5973537859
 H   -1.9925202645   -3.3904578502   -0.8428026638
 H   -1.1658820423   -5.2816897529    1.1616279128
 H    0.9127582823   -5.8068721732    0.2902993474