12

 N    0.0062580946    1.3280874722    0.0088272033
 N    1.2762265196    1.8578780609    0.0008908681
 C    2.1066802403    0.8274917675   -0.0136070997
 C    1.4027642359   -0.4091661562   -0.0133691610
 C    0.0636238186   -0.0218876976    0.0018664546
 N   -0.7055042612   -1.1328378922    0.0029571795
 N    0.0855806805   -2.2586871651   -0.0113690818
 C    1.3378720297   -1.8306270589   -0.0209469440
 H   -0.7799773795    1.9516785933    0.0229059659
 H    3.1703437015    1.0132502857   -0.0230030047
 H   -1.7032781866   -1.2405050003    0.0121633082
 H    2.1381694766   -2.5554398393   -0.0329805685