18

 N    1.0680358157   -0.1346644614    0.7013837431
 C   -0.0492522720   -0.0022692565   -0.0566864254
 O   -0.2245046973    0.8745704081   -0.8811749237
 C   -1.1010826479   -1.0669450603    0.1611236541
 N   -0.9622336141   -2.0027242558    1.2892759679
 C   -2.0662325233   -1.0317014852    1.2998554610
 C   -2.0561253530    0.0164567070    2.3767745728
 C   -2.3244793148   -0.3882044212    3.7802478001
 N   -0.9804601118    0.0554960271    3.3742833473
 H    1.7570709857    0.5983081480    0.6816499822
 H    1.1161089780   -0.8542863365    1.4020611661
 H   -1.4958747956   -1.4400132662   -0.7803243266
 H   -1.2802692300   -2.9338955013    1.0389459708
 H   -3.0592825437   -1.4107041531    1.0605738999
 H   -2.3907780717    0.9971671948    2.0452898703
 H   -2.8523817207    0.2829090381    4.4515984987
 H   -2.4798903154   -1.4464425196    3.9777334155
 H   -0.4031086180   -0.7718808960    3.2334718960