13

 N    0.0155874486    1.3628484312    0.1513839701
 C   -0.0520801956   -0.0075925802    0.0521927889
 C   -1.1666313547   -0.7592642280    0.0194727951
 O   -1.1016026246   -2.1409450261   -0.0194867861
 C    0.1074288531   -2.6840079397   -0.0157486294
 O    0.0086535493   -4.0099305683   -0.0333245236
 N    1.2460130909   -2.0873606230   -0.0032122890
 C    1.2688958549   -0.6987233584    0.0126199611
 O    2.2987060236   -0.0518487725   -0.0154730468
 H    0.9414694256    1.7035647798   -0.0766384561
 H   -0.7447572377    1.9027037270   -0.2304814253
 H   -2.1912710052   -0.4185835154    0.0243572402
 H    0.9169815520   -4.3438521565   -0.0338961991