19

 C    0.1491506751    1.5385659774    0.0433442768
 C    0.0482221824    0.0555680989    0.0013407619
 C    0.0075081413   -0.8359058661   -0.9923062131
 C   -0.0707322542   -2.1727761866   -0.2385053581
 C   -0.9732776177   -3.2531961915   -0.8842301430
 C   -2.1660803442   -2.3760729327   -0.2589979837
 C   -1.1078703796   -1.9468084078    0.8189055661
 C   -0.0008573646   -0.8865456556    1.2118799801
 O    0.9894063555   -1.9429082880    0.8157891357
 H    1.0580619879    1.8598299519    0.5679126217
 H    0.1678396325    1.9666207856   -0.9625939322
 H   -0.6966325979    1.9811023529    0.5846888346
 H    0.0327197206   -0.7018793698   -2.0649256142
 H   -0.9365777158   -3.3747781183   -1.9705241133
 H   -0.9123990493   -4.2272095671   -0.3954297399
 H   -2.4635328436   -1.5807052375   -0.9441682712
 H   -3.0447801850   -2.9169990523    0.0979307993
 H   -1.0520198687   -2.7486221392    1.5606933318
 H    0.1621102154   -0.5076184742    2.2222086408