23

 C   -0.7024021891    1.2495650080    0.3292945896
 C    0.1866544737    0.0768696458   -0.0912122462
 C    0.7817735805   -0.6755236590    1.0985692484
 O   -0.2988939538   -1.1848553692    1.8674615930
 C    1.7096577192   -1.8207989512    0.6472446822
 C    2.4320898063   -2.5115006199    1.7963960391
 O    1.7744307262   -2.5732196607    3.0864820843
 C    2.0206683681   -3.8014708643    2.3820974811
 C    0.8111864185   -4.5751456804    1.9260441379
 H   -0.1290988129    1.9992898394    0.8864749980
 H   -1.1401291787    1.7451939641   -0.5426248192
 H   -1.5126936265    0.9017085401    0.9739817249
 H   -0.3951678318   -0.6363162951   -0.6891957242
 H    1.0062971233    0.4325329302   -0.7276660371
 H    1.3721462155    0.0361573395    1.7025457483
 H    0.1037620948   -1.6447219664    2.6177802254
 H    1.1069615893   -2.5354482542    0.0770194489
 H    2.4695876961   -1.4261797801   -0.0366345050
 H    3.4845100956   -2.2462252782    1.8995529879
 H    2.8055565977   -4.4023099214    2.8445562931
 H    0.0337133102   -3.9021954868    1.5580582745
 H    1.0818881308   -5.2793831691    1.1316158664
 H    0.3970010770   -5.1534999010    2.7582372687