19

 C   -0.1032141374    1.4690058937    0.0711136109
 C    0.0920487285   -0.0098862309    0.0893683959
 O   -1.0889381852   -0.8351179448   -0.0672692277
 C   -0.6012277797   -1.7310073947    0.9545625226
 C   -1.5024700427   -2.2275007305    2.0324756168
 C   -0.9588625207   -3.1772272970    0.9686719784
 C    0.7145272764   -1.0144215498    1.0682566999
 C    1.2687331056   -0.8218945896   -0.3404284574
 O    1.1861070171   -1.7792051052   -1.3441352321
 H    0.8490281948    1.9796965483    0.2415698371
 H   -0.4910734541    1.7928619939   -0.9014108889
 H   -0.8122914914    1.7833845311    0.8434029532
 H   -1.1105733928   -2.2954582903    3.0422008840
 H   -2.5494867823   -1.9526672534    1.9662239216
 H   -1.6594379077   -3.5221635375    0.2153891270
 H   -0.1971289782   -3.8979490224    1.2450903136
 H    1.2851035537   -0.8663720871    1.9762797755
 H    2.2168639514   -0.2915358761   -0.3686227171
 H    0.2420944546   -1.9019056477   -1.5137836332