21

 C   -0.0630899938    1.5382816545   -0.0104986346
 C   -0.0116044771    0.0233041884    0.0094708625
 C   -1.2831297456   -0.7717894153    0.4180433056
 C   -0.3334741064   -1.8444019520    0.9875809567
 O    0.1761933046   -2.6848031947   -0.0594045482
 C    1.2179512946   -1.9186521239   -0.6851345276
 C    2.0106029296   -1.3762615523    0.5167557897
 C    0.7740068603   -0.7525978002    1.1523245395
 C    0.5911234577   -0.6358037558   -1.2658850443
 H    0.9343251257    1.9712399742   -0.1504538534
 H   -0.6963747554    1.8993984168   -0.8297674757
 H   -0.4743441058    1.9340449612    0.9247181816
 H   -1.8349718944   -0.2639278389    1.2167087300
 H   -1.9762203547   -1.0867469285   -0.3673616193
 H   -0.6541458841   -2.4766830102    1.8177697912
 H    1.7388662434   -2.5645211310   -1.3926003688
 H    2.4573447487   -2.1742993371    1.1157383435
 H    2.7791966988   -0.6494985324    0.2388777875
 H    0.8508881422   -0.2612255320    2.1209310696
 H   -0.1661300271   -0.8439659810   -2.0271000980
 H    1.3639838786   -0.0020082700   -1.7163822577