18

 C   -0.1143074434    1.5981745445   -0.1781068101
 C    0.0071804609    0.0804329813   -0.0438282428
 C    1.1695440078   -0.5423267630   -0.8672987691
 C    1.9503385617   -0.6387027733    0.4655980779
 N    0.6760947206   -0.4402424033    1.1803849100
 C    0.6460989967    0.3048216716    2.4181165504
 C    1.2748326753   -0.4581435419    3.5049612784
 N    1.7880860315   -1.0459705098    4.3565311965
 H    0.8546261051    2.0983035839   -0.0736825248
 H   -0.5126786534    1.8475127833   -1.1670738198
 H   -0.7988369706    2.0192500447    0.5660733595
 H   -0.9783144435   -0.3763217337   -0.1953744357
 H    0.9223379712   -1.5172727092   -1.2890952286
 H    1.6005262751    0.0919846460   -1.6431534389
 H    2.4577964796   -1.5794868555    0.6979552201
 H    2.6674815191    0.1870358053    0.6010412082
 H    1.1516568089    1.2878404463    2.3701896610
 H   -0.3970439130    0.4968023330    2.6969217378