18

 O   -0.0555259692    1.3942232013   -0.0426619896
 C   -0.0250658259   -0.0214159462    0.0260890100
 C    0.4818778449   -0.5966256737    1.3909901182
 C   -0.8096521545   -1.3178278646    1.8342333921
 O   -0.7860640207   -2.0616958395    3.0124974787
 C   -1.2371203764   -2.0296334952    0.5283309555
 C   -1.4627650500   -0.5652870022    0.0504085858
 C   -1.9068068684   -0.2530717662    1.5065372842
 H    0.8513320281    1.7145007722   -0.0165859629
 H    0.5418281488   -0.4331339522   -0.8209899477
 H    1.3237630408   -1.2880569289    1.2910704840
 H    0.7650651098    0.2126879779    2.0732150098
 H   -0.4628612048   -1.4966060553    3.7224918188
 H   -0.4949762150   -2.6444258663    0.0095900078
 H   -2.1733588579   -2.5784353251    0.6462898841
 H   -2.0877339217   -0.3269088640   -0.8080058757
 H   -2.9084487828   -0.6260661220    1.7289377034
 H   -1.7760506651    0.7687346199    1.8691533233