15

 C   -0.0307604092    1.5503920155   -0.0093761459
 C    0.0354689538    0.0275777698    0.0246970366
 O    0.7708295198   -0.4685152704   -1.1035022602
 C    1.8299015120   -1.2402505773   -0.6929390644
 N    2.6629257135   -1.8192784344   -1.4482106424
 C    1.8222294718   -1.2743868540    0.7737305771
 C    0.7861810576   -0.5484417705    1.2133343689
 C    0.3897764923   -0.3094515866    2.5518913896
 N    0.0325143712   -0.0895143614    3.6315795468
 H    0.9741981670    1.9790846587    0.0293996379
 H   -0.5202988634    1.8793491177   -0.9290316917
 H   -0.6059764341    1.9206222535    0.8442156530
 H   -0.9787075364   -0.3911668688   -0.0239569225
 H    2.4503369457   -1.6406992275   -2.4307415682
 H    2.5561623983   -1.8122323144    1.3542052056