22

 C   -0.1480300009    1.6841923724    0.3123105117
 C   -0.0133369401    0.1668822523    0.1379768435
 C    0.7811451812   -0.5032771868    1.2770133795
 C    0.7395916418   -2.0190284739    1.2383300356
 C    1.4096861611   -2.7208006456    2.4081707670
 N   -0.7499557121   -2.5006721209    1.2164191364
 H   -0.8309338116   -3.5041792236    1.0438155949
 H   -1.1880187561   -2.2897679523    2.1149657331
 H   -1.2536234027   -1.9830971715    0.4913152294
 C    2.3421150676   -0.0843693266    1.1190763892
 O    3.0369149242   -0.9757994950    0.5884278997
 O    2.6040171109    1.0525636113    1.5175915298
 H    0.8394892842    2.1177133549    0.4779758219
 H   -0.6148315596    2.1383645518   -0.5672663670
 H   -0.7676896553    1.9215508709    1.1846946733
 H   -1.0425344878   -0.2386093506    0.0313651333
 H    0.4920628251   -0.0584224622   -0.8103390398
 H    0.4253285522   -0.1391192780    2.2506812824
 H    1.1617026426   -2.3629792307    0.2928156032
 H    1.0200860016   -2.3642659299    3.3692258813
 H    1.2961460859   -3.8107444197    2.3605248880
 H    2.4705552981   -2.4783523764    2.3414124837