19

 N    0.0853442626    1.3568967109    0.2877625501
 C    0.0331144164   -0.0792003670   -0.0228388737
 C   -1.3923330444   -0.6456358904    0.1714838320
 C   -2.0297879725   -0.1342501116    1.4586110031
 O   -1.1462376985   -0.0400292237    2.5414696375
 C   -3.1561403428    0.8709600067    1.3946037915
 C   -3.4199593221   -0.5644110305    1.8073778242
 C    0.5331788436   -0.3987485180   -1.3742801001
 N    0.9281660093   -0.6084384192   -2.4406360132
 H    1.0196034592    1.7175762441    0.1179059930
 H   -0.5428373956    1.8710216559   -0.3238402510
 H    0.6880269737   -0.5812940934    0.6971120837
 H   -2.0184918907   -0.3824726075   -0.6877415369
 H   -1.3120181599   -1.7382386137    0.1844565460
 H   -0.5781005981    0.7175472134    2.3340031115
 H   -3.1800380555    1.6237160532    2.1743361241
 H   -3.5150663975    1.2036976531    0.4258051199
 H   -3.9506194630   -1.2130669666    1.1184184873
 H   -3.6141333942   -0.7547501759    2.8562871110