16

 C   -0.0445107676    1.4493721015    0.0011070601
 C    0.0086929634   -0.0034705835   -0.0084411076
 C    0.0425191957   -1.2092075095   -0.0161288571
 C    0.1182038105   -2.6201530139   -0.0249711527
 C    1.1060866590   -3.6367731155    0.6230757300
 C    0.7059994607   -4.6768091475   -0.4306450690
 C   -0.0666352173   -4.5464775983    0.8560032590
 N   -1.0595013780   -3.5597287800    0.2401858489
 C   -0.2791503371   -3.6514102605   -1.0379851441
 H    0.3521131737    1.8554628509    0.9383149313
 H    0.5375389620    1.8784991405   -0.8221435344
 H   -1.0764842076    1.8030395219   -0.1016569740
 H    2.0379870232   -3.5166090482    1.1556038530
 H    1.2841394939   -5.4912854150   -0.8415758213
 H   -0.3059473352   -5.2431029083    1.6487590251
 H   -0.7424528294   -3.5348669544   -2.0105673772