15

 C   -0.0023934636    1.5570630612    0.2062938240
 C   -0.0390871420    0.0493065967   -0.0979059881
 C   -1.4190165560   -0.5083915736   -0.1711728949
 C   -2.1521033621   -1.0807910515   -1.1651675499
 C   -3.4313617253   -1.4031671433   -0.6016048181
 C   -3.3797970320   -1.0012373809    0.6929159829
 O   -2.1647022027   -0.4549975134    0.9730028507
 H    1.0298750456    1.9141602761    0.2704450448
 H   -0.5145348693    2.1256483180   -0.5758196014
 H   -0.4977636731    1.7715451827    1.1571241119
 H    0.4549507932   -0.1545588495   -1.0532691430
 H    0.5323474151   -0.4873492910    0.6708342933
 H   -1.8214189533   -1.2546061409   -2.1774565518
 H   -4.2682716929   -1.8700627207   -1.0968004674
 H   -4.0798631115   -1.0280463499    1.5114930170