16

 O   -0.1122995623    1.3940270705    0.0472864108
 C    0.0144807431    0.0166414276   -0.0018598077
 C   -0.2161218938   -0.8706639293    1.2091961504
 C   -1.1368996848   -1.0054583082    0.0256718559
 O   -2.4919833283   -0.8168156321    0.2145528238
 C   -0.4921472774   -1.7684602428   -1.1024796738
 C   -0.2637925432   -0.8755111882   -2.2998080620
 C    0.6668006894   -0.7540001953   -1.1234417270
 H    0.5983167097    1.7494067646    0.5915486719
 H    0.4806362819   -1.6594932664    1.4825512516
 H   -0.6768910031   -0.3513573280    2.0446201911
 H   -2.8590148722   -0.4471446197   -0.5965638001
 H   -0.3951717151   -2.8466327153   -1.1645769705
 H    0.1458896151   -1.3687182270   -3.1762080145
 H   -0.9522943358   -0.0660341125   -2.5278573118
 H    1.7190698569   -1.0069163978   -1.1942332882