20

 C    0.0802044029    1.6273177890    0.0145850387
 C   -0.0332521587    0.1147671311    0.0178127306
 O    0.8042979031   -0.3863423332   -1.0333719304
 C    0.8451704627   -1.7291926079   -1.1927783064
 C    1.7784029389   -2.0241000554   -2.3462244612
 O    2.1971894672   -3.1177441818   -2.6274744637
 N    0.1736542305   -2.5164245670   -0.4651752867
 C    0.2069097674   -3.9645625925   -0.6259249551
 C    1.2844869969   -4.5949532232    0.2634002895
 H    1.1126772630    1.9424081222    0.1902842933
 H   -0.2476650149    2.0419875014   -0.9429040712
 H   -0.5478298286    2.0480777269    0.8053335986
 H    0.2896913370   -0.3227101770    0.9689275415
 H   -1.0605979714   -0.2239645148   -0.1558271360
 H    2.0555200175   -1.1179054478   -2.9235046620
 H   -0.7759759949   -4.3345375411   -0.3130976150
 H    0.3693948258   -4.2700271619   -1.6642308186
 H    2.2809204266   -4.3046731251   -0.0798158949
 H    1.1648467418   -4.2762889532    1.3030697685
 H    1.2133122174   -5.6862412986    0.2248529805