16

 C   -0.1912595430    1.4885516720    0.1177084917
 C    0.1448776759    0.0407773693   -0.0183220482
 O   -0.6942028807   -0.9113928307    0.6760087343
 C    0.7220264216   -0.9413366860    0.9271580222
 C    1.2706413025   -1.8146124730   -0.2113758748
 O    0.6122016893   -3.0489577608   -0.3784261865
 C    0.7759395509   -0.7001910461   -1.2168814681
 O   -0.0412709434   -1.1345582192   -2.2590483585
 H    0.6557448043    2.1095554737   -0.1906044457
 H   -1.0444950136    1.7427651617   -0.5199423278
 H   -0.4502443003    1.7315151844    1.1516073576
 H    1.0490097425   -0.8382254733    1.9557903790
 H    2.3464220178   -1.9940441626   -0.2168926396
 H   -0.2792782232   -2.9071137401   -0.0258235890
 H    1.6189099813   -0.1179691436   -1.6118220836
 H   -0.1743991218   -2.0814131055   -2.1051139531