16

 C    0.0356830014    1.5431480574   -0.0164180987
 C    0.0083363576    0.0390078051   -0.0096228794
 C   -1.1581270937   -0.6668883333   -0.0436227547
 N   -2.4232813755   -0.1452148193   -0.1320722254
 O   -1.1768138574   -2.0181749555   -0.0429741378
 C    0.0168203378   -2.7503131411   -0.0257854002
 N    0.0041698886   -4.0186069366   -0.0387518114
 C    1.2157526329   -1.9303399852    0.0136026531
 N    1.2057938696   -0.6386230476    0.0221116987
 H    1.0753330991    1.8719176821    0.0292988130
 H   -0.4147256492    1.9667765741   -0.9231198727
 H   -0.4890301823    1.9796175950    0.8450656201
 H   -2.5305317371    0.8076892416    0.1784952923
 H   -3.1642067258   -0.7660018298    0.1588110003
 H   -0.9491125320   -4.3803781045   -0.0671403559
 H    2.1617175359   -2.4620429923    0.0388987887