19

 C    0.1943135568    1.4880458823   -0.1025340334
 C    0.0445722562   -0.0213370013    0.0215041920
 C    1.2784321538   -0.9116182250   -0.0542450324
 C    0.5661708859   -0.7590823545    1.2585058327
 C    1.1323618713   -0.0127152853    2.4313746975
 C    2.2900628717   -0.5639640768    3.1822573990
 N    2.4315225852    0.6773711918    2.4023082929
 C   -1.1627570066   -0.5514927377   -0.5644808738
 N   -2.1360818218   -0.9681624747   -1.0315691460
 H    1.0999983764    1.8293138553    0.4025161671
 H    0.2464749616    1.7853219794   -1.1538998199
 H   -0.6583198656    2.0007784629    0.3520232612
 H    1.1995276525   -1.8575200279   -0.5763113425
 H    2.2191937781   -0.3934880481   -0.2112580146
 H   -0.0434430782   -1.6099512000    1.5508911501
 H    0.3850542536    0.5339714237    3.0037419298
 H    2.3500408537   -0.4428240639    4.2597556916
 H    2.7522668928   -1.4694272594    2.7974974427
 H    2.9242400827    0.4713775395    1.5368596461