15

 N   -0.1563577897    0.3403197909    1.5100396001
 C    0.0149125864   -0.1491639976    0.2936400392
 N    1.1920082766   -0.7391313559   -0.0830745202
 H    1.3532269593   -0.8685936254   -1.0697611519
 H    2.0160244540   -0.4544155119    0.4231143773
 N   -0.9998394427   -0.1042325143   -0.5715628135
 C   -2.2906941809    0.3870249437   -0.2598714250
 C   -3.4369150434    0.4634374980   -1.0261413361
 N   -4.3839250976    1.0164176999   -0.2342107497
 N   -3.8460305538    1.2653185670    0.9514913121
 N   -2.5594193874    0.8890253678    0.9618353401
 H    0.5572518645    0.2175777088    2.2081107202
 H   -1.1624802826    0.7012927808    1.6906913267
 H   -0.8568887568   -0.4629034204   -1.5016617432
 H   -3.6286147560    0.1679108785   -2.0463820062