15

 N    0.0172269888    1.3818599955    0.1192190375
 C   -0.0320010527   -0.0319399620   -0.0817863148
 C    0.8360970185   -0.7795902417   -1.1318092598
 N    0.4862726613   -2.1906263322   -0.8538857283
 C   -0.6158540697   -2.1221537186   -0.2192373538
 N   -0.5543114932   -2.3858303569    1.2314663761
 C   -0.6448041493   -0.8281328835    1.1866924117
 C   -1.3434615139   -0.7398867140   -0.1101416374
 H    0.9546517714    1.6793182977    0.3724244128
 H   -0.2405951149    1.8786502083   -0.7288102120
 H    0.6128668404   -0.4074886515   -2.1448009093
 H    1.9173174317   -0.6886975256   -0.9744584008
 H   -1.4855239059   -2.6353189957    1.5846303845
 H   -0.8108896151   -0.2908839686    2.1140393863
 H   -2.3320026375   -0.4203512713   -0.4142868226