20

 C    0.1154697147    1.3136905659    0.1129275986
 O   -0.1005626560   -0.0589050903   -0.1646053686
 C   -1.4321541406   -0.5773519222   -0.0186108590
 C   -2.1575174956   -0.0731392415    1.2289812758
 C   -2.2148837899   -0.2318424899   -1.3016888582
 O   -1.5177035148   -0.6414695840   -2.4577979010
 C   -1.2183983880   -2.1090673823    0.0362659169
 C   -0.4132515014   -2.5303632828    1.1784813810
 N    0.2060261286   -2.8658882058    2.0944800708
 H    1.1535522814    1.5168904530   -0.1595759433
 H   -0.5351100466    1.9747266705   -0.4763820872
 H   -0.0171813006    1.5451460700    1.1762313713
 H   -2.3591299459    0.9997373026    1.1738967261
 H   -3.1198164122   -0.5843772056    1.3292630908
 H   -1.5711337748   -0.2743745469    2.1294034712
 H   -3.1836486385   -0.7424011337   -1.3063261632
 H   -2.4171665210    0.8511980139   -1.3138977745
 H   -0.6055564515   -0.3499387758   -2.3279304863
 H   -2.1886350166   -2.6150716960    0.0805205943
 H   -0.7320679906   -2.4225853293   -0.8912961954