17

 N   -0.0517009771    1.2228055055   -0.1900423164
 C    0.0155050857   -0.0104386639    0.0098902175
 O    1.0976406906   -0.8147331954    0.3191300973
 C    0.2625929004   -1.9983614586    0.4491816695
 C   -0.9954562702   -1.1721716166    0.0072025993
 N   -2.1540650681   -1.0716459904    0.8673435787
 C   -3.3312948186   -1.6643396532    0.2234876359
 C   -2.8835443010   -1.8209323994   -1.2025651650
 C   -1.5911216516   -1.5380949647   -1.3258946811
 H    0.8622751010    1.6689853507   -0.0908994392
 H    0.5935791851   -2.7972881762   -0.2192910731
 H    0.2377116794   -2.3531105237    1.4848485427
 H   -1.9962745960   -1.3708648721    1.8181362999
 H   -3.6254124105   -2.6366329386    0.6546824307
 H   -4.2064426663   -1.0045082030    0.3122455447
 H   -3.5516749584   -2.1241276769   -1.9986438911
 H   -1.0000271842   -1.5613720134   -2.2322341603