17

 O    0.0552611459    1.4317376698    0.1358096917
 C   -0.0117694543    0.0356688002    0.0401867660
 C   -1.4211935670   -0.5505231972   -0.0518094520
 C   -2.1217715965   -0.1155950460   -1.3778007081
 C   -1.6212690239   -1.4150229809   -2.0080368318
 C   -1.2093280012   -1.9693858131   -0.6727166930
 C   -0.1291651393   -1.6661666295   -1.6933438532
 C    0.6500702872   -0.4835067257   -1.2439142712
 O    1.6054091802    0.0511619086   -1.7578682602
 H    0.8302023110    1.6905993835   -0.3852566134
 H    0.5135475685   -0.4522636739    0.8837838993
 H   -2.0047469296   -0.4717875204    0.8630686461
 H   -3.2092941463   -0.1268639236   -1.2769463724
 H   -1.8069489597    0.8381876874   -1.8101751791
 H   -2.0480991024   -1.9338784008   -2.8578611297
 H   -1.3690509975   -2.9383727279   -0.2201218900
 H    0.3427867648   -2.4504017304   -2.2713379988