19

 C   -0.0306626755    1.5515154244    0.0859376100
 C   -0.0419134989    0.0437658348    0.0633262459
 C    1.2349749544   -0.7348512934   -0.2934830891
 C    0.6861361898   -0.8256740573    1.0893263212
 O    1.4458279109   -0.3050537286    2.1272061130
 C   -0.2382328969   -1.9986403959    1.4464397407
 O   -0.6500418550   -1.8976094354    2.8201801420
 C   -1.3854266000   -1.8527243061    0.4762563190
 C   -1.2876865735   -0.7224266401   -0.2348473328
 H    0.8896755141    1.9134756037    0.5532503686
 H   -0.0916860130    1.9772275103   -0.9222058845
 H   -0.8724208428    1.9461111313    0.6662836682
 H    1.1592111769   -1.5803473069   -0.9704759389
 H    2.1441674851   -0.1482444777   -0.3885487625
 H    0.9480546208   -0.5208598222    2.9295597257
 H    0.2753656677   -2.9631853029    1.3730905686
 H   -1.4046065484   -1.2971339288    2.8390773001
 H   -2.1750039592   -2.5908653788    0.3997322508
 H   -2.0045078366   -0.3977917404   -0.9833942460