21

 C   -0.0022542748    1.5870707658   -0.0584326408
 C    0.0168855779    0.0590056794    0.0208753392
 C    0.8065038463   -0.5942866856   -1.1678155100
 O    1.3559250409   -1.8408027925   -0.7141766635
 C    1.4698798800   -1.7439926769    0.6720975086
 C    2.2091661442   -0.6011152038    1.2988682116
 C    0.6905461817   -0.5759418181    1.2223551748
 C    0.0775325825   -1.5024896095    2.2980703012
 C    0.8496741511   -2.7208597569    1.6744097574
 H    1.0113694026    1.9952100020    0.0159547880
 H   -0.4356331239    1.9337121540   -1.0034180553
 H   -0.5945840508    2.0144720582    0.7560348585
 H   -1.0165952275   -0.3096384933   -0.0075455948
 H    0.1789362073   -0.8008807744   -2.0399207768
 H    1.6160166982    0.0775638616   -1.4897538477
 H    2.6912330023   -0.7165805421    2.2660885334
 H    2.7398346813    0.0510539870    0.6145834543
 H    0.3188876202   -1.2485016450    3.3348636907
 H   -1.0067752973   -1.6011900458    2.2098960524
 H    0.1764788050   -3.4258315734    1.1832292479
 H    1.5400139727   -3.2758190506    2.3166209208