15

 O   -0.0301545442    1.3072067350    0.1188886807
 C   -0.0071276665   -0.0758506474    0.0151286806
 C   -1.3608687493   -0.7220322355    0.0113732077
 C   -0.5402423741   -0.6983558139   -1.2701374756
 C   -0.1059417043   -2.1119696408   -1.5148488417
 O    0.5017250430   -2.5673031403   -2.4518532135
 N   -0.5472131493   -2.8458180752   -0.4099990908
 C   -1.3963123725   -2.1488506506    0.4595839547
 N   -2.0881322633   -2.5809139954    1.4308518101
 H    0.7601818552    1.6569564597   -0.3071433263
 H    0.8103021663   -0.5793081745    0.5308651163
 H   -2.2270554712   -0.0970575087    0.1763158666
 H   -0.7517451046   -0.0542055861   -2.1120069030
 H   -0.3720198545   -3.8374755820   -0.3453801644
 H   -1.9710575807   -3.5866832243    1.5653464487