21

 C    0.0349988164    1.5147671751    0.0083410833
 C   -0.0276263073    0.0004612770    0.0244169028
 C   -0.8677461789   -0.6561000554    1.0883534727
 C    0.6424192505   -0.7227207300    1.1834660668
 C    1.3555051161   -2.0179303467    0.9193371640
 O    0.5918597948   -3.2301660899    0.8833217715
 C    1.1410592034   -2.7390639655   -0.3477116182
 C    0.1539872892   -2.1783002270   -1.3610273254
 C    0.0964244208   -0.6372128181   -1.3520236702
 H    0.9665249743    1.8690904222   -0.4491415723
 H   -0.7978372438    1.9393333489   -0.5652112453
 H   -0.0170345832    1.9261800630    1.0213805935
 H   -1.3854684273   -0.0147266003    1.7935414804
 H   -1.3787086538   -1.5865737265    0.8726719546
 H    1.1126142149   -0.1010274864    1.9390057663
 H    2.3180032786   -2.1236828613    1.4192936247
 H    1.9485519150   -3.3561633024   -0.7409647739
 H    0.4238378480   -2.5161580548   -2.3664320994
 H   -0.8339846124   -2.5993725773   -1.1474810399
 H   -0.7346796478   -0.3060641801   -1.9874585270
 H    1.0107950425   -0.2463955145   -1.8207588391