14

 O    0.5229117024   -0.2929442280    0.0613479281
 C    0.2353694976    0.8138664197   -0.3080587478
 C    1.0262475384    2.0583185079    0.0688204819
 C    1.2013208708    3.0106924614   -1.0923084460
 C    2.5186172388    3.6068839091   -1.4163547003
 O    1.9927207378    2.5558301172   -2.2055962031
 C    0.0023315298    3.8005134025   -1.5279269828
 O   -1.0183793644    3.8785569126   -0.8934704865
 H   -0.6571576636    0.9999421392   -0.9440348422
 H    0.4546430777    2.5811713999    0.8471850465
 H    1.9850065049    1.7457092592    0.4871547952
 H    2.5752551809    4.5798346957   -1.9034600458
 H    3.3610593538    3.3508943009   -0.7761817706
 H    0.1424631851    4.3105764327   -2.5055638666