19

 C   -0.0295431778    1.5701129798    0.0745509359
 C    0.0614096061    0.0371207197    0.0209406867
 C    0.9735540100   -0.4925969233    1.1347986431
 C   -1.3469271352   -0.5738243015    0.0304868842
 C   -1.5215300780   -2.1228929583    0.0772390515
 C   -2.3207330092   -1.8854770178    1.3812727021
 O   -2.9431704335   -2.5613459199    2.1546876942
 N   -2.0708499300   -0.5334523763    1.3152589563
 H    0.9614933757    2.0263489393   -0.0097588471
 H   -0.6516551991    1.9658354719   -0.7354048463
 H   -0.4628746958    1.9038858215    1.0251385035
 H    0.5001433051   -0.2402254102   -0.9483825406
 H    0.5555276490   -0.2731446380    2.1220551492
 H    1.1248404795   -1.5738309967    1.0691883363
 H    1.9588729790   -0.0204552356    1.0743549423
 H   -1.9310636920   -0.1237247689   -0.7826895441
 H   -2.1187743555   -2.5478107824   -0.7314275796
 H   -0.6088659049   -2.7065538995    0.2015397809
 H   -2.4854802332    0.2304929862    1.8289958817