18

 N    0.1232721348    0.8999794518    0.0143032542
 H    0.6040623721   -0.0016582386    0.0116217401
 H    0.8302961591    1.6359479177    0.0847504725
 H   -0.3747782997    1.0075266414   -0.8700840221
 C   -0.8692452722    1.0048196047    1.2428127694
 C   -0.0222129335    0.8647039437    2.4929268445
 C    1.0106295001    1.9855319114    2.7598191942
 O    0.2636052040    2.5133668139    3.8437560177
 C   -0.6954423813    1.4018703101    3.7859629467
 C   -2.1945503343    1.8289639791    3.6956170116
 O   -2.5646997791    2.6276681750    4.5523859525
 O   -2.8089797066    1.2665774004    2.7455306038
 H   -1.3521097790    1.9713429765    1.1345184255
 H   -1.6024167940    0.2183899600    1.1017081696
 H    0.3748809359   -0.1549646022    2.5582173356
 H    2.0039471763    1.6194368703    3.0601156285
 H    1.1601191315    2.7330484205    1.9548413690
 H   -0.5462358243    0.7387377942    4.6472038267