18

 C   -0.3005214862    1.4970248928    0.0138353414
 C   -0.0406682216    0.0028166393    0.0032245756
 O   -1.3204659619   -0.6526049893    0.0117163489
 C   -1.3010602106   -1.9860972874    0.0040449643
 N   -0.2306762491   -2.6678777932   -0.0095673829
 O   -2.5964393817   -2.3852072651    0.0136463459
 C   -2.8261686069   -3.7929795371    0.0090792400
 C   -4.2589070450   -4.0397298486    0.0222777024
 C   -5.4340423380   -4.2825929375    0.0327954702
 H    0.6509062159    2.0370617396    0.0077746131
 H   -0.8756904291    1.7994072725   -0.8656897166
 H   -0.8589070611    1.7897416290    0.9073347984
 H    0.5149351156   -0.3129054441   -0.8854688414
 H    0.5315676101   -0.3225295002    0.8777774896
 H   -0.3902301503   -3.6689492659   -0.0139409534
 H   -2.3722960268   -4.2437895303   -0.8847755652
 H   -2.3544548294   -4.2524318763    0.8891778583
 H   -6.4758261538   -4.4896398181    0.0415763214