15

 O    0.1853988401    1.3213042077   -0.0249003788
 C   -0.0159078400   -0.0506193790   -0.0244854485
 C   -0.4663261561   -0.8151206766    1.1816988654
 O   -1.3616862790    0.0177841534    1.9373247046
 C   -2.3616576360   -0.0278632471    0.8639484371
 C   -2.9083184336    1.2626814916    0.4898956532
 C   -3.3886039479    2.3198863654    0.1782773293
 C   -1.3618950097   -0.7534628568   -0.0524320885
 O   -1.7265216512   -1.7405357337   -0.9369474743
 H   -0.2533035737    1.6683632462    0.7637331843
 H    0.7228168700   -0.5705257504   -0.6300826790
 H    0.0493268635   -1.6111568918    1.7053568213
 H   -3.1634794263   -0.7145829551    1.1610884215
 H   -3.8016398581    3.2574936182   -0.1026913577
 H   -1.7071867820   -1.3744644919   -1.8285684399