23

 C   -0.4086371266    1.4892896062   -0.2166018094
 C    0.0784143578    0.0698350091    0.1093107893
 C    0.9271275212   -0.5090877022   -0.9807216369
 C    2.3647730535   -0.1356824862   -1.3812615810
 C    2.5384815544   -1.5856259336   -1.9621650889
 C    3.6119903335   -2.4187453374   -1.2723778166
 C    1.0815363357   -1.8745367603   -1.5294625557
 C    0.4516677590   -3.1885697634   -1.1963940888
 O    0.2710785666   -0.8960270772   -2.2061677741
 H    0.4329267561    2.1760041294   -0.3551784634
 H   -0.9977234357    1.4898378009   -1.1382281646
 H   -1.0332087922    1.8838523521    0.5902172395
 H    0.6567344740    0.0779785103    1.0419894065
 H   -0.7825108528   -0.5882590141    0.2721613102
 H    2.4511863162    0.6944661762   -2.0866627405
 H    3.0210637453    0.0432816342   -0.5238953087
 H    2.6625888820   -1.6197633579   -3.0492675014
 H    3.4787830411   -2.4187597500   -0.1839807543
 H    3.5924549607   -3.4603918569   -1.6110348978
 H    4.6095835445   -2.0193537762   -1.4831496559
 H    1.0709666449   -3.7560695979   -0.4946449416
 H   -0.5354413966   -3.0403204103   -0.7504830044
 H    0.3246099973   -3.7962828149   -2.1000373516