17

 O   -0.0495870761   -0.0230360865   -0.0063676510
 C    0.0407822439    1.1718683824   -0.0131149547
 O   -1.0756375076    1.9935556544    0.0247994081
 C   -0.6854702948    3.3731079731    0.0184467190
 C    0.8063666113    3.3321038591   -0.0428948995
 C    1.2123582096    2.0626063891   -0.0610287947
 C    2.7035674942    1.9119743378   -0.0799963574
 C    3.1663772819    3.3835139902   -0.3446860475
 C    1.9411384342    4.3109870005   -0.0438392701
 H   -1.1444157247    3.8682185373   -0.8467769092
 H   -1.0712175721    3.8569155423    0.9250856156
 H    3.0724370335    1.5292319243    0.8794968107
 H    3.0594676826    1.2185609293   -0.8476260823
 H    4.0426649560    3.6561769327    0.2474691247
 H    3.4455313824    3.4907221911   -1.3966098382
 H    1.8296762303    5.1102149843   -0.7847311796
 H    2.0272859852    4.8072145985    0.9323682059