14

 O   -0.0495208438    0.0178021379    0.0053214938
 C   -0.0403523732    1.2207087595    0.0106422649
 C   -1.2682467882    2.1704964191    0.0322890593
 N   -0.6283217763    3.4620941679    0.0297491373
 N   -1.0884427091    4.7338696502    0.0423058186
 C    0.0294186418    5.4560047705    0.0304274523
 C    1.2155879479    4.6684409561    0.0103444942
 C    0.7205470333    3.3851238409    0.0108502242
 N    1.0803239615    2.0413757644   -0.0006365828
 H   -1.8931292458    2.0008201803   -0.8497127322
 H   -1.8685377542    1.9921352599    0.9295276247
 H   -0.0369862223    6.5341711391    0.0366002776
 H    2.2396562176    4.9987585175   -0.0020701675
 H    2.0182929607    1.6779398567   -0.0150020943