16

 N    0.1351249899    1.3624212278    0.1762257445
 C   -0.0605688494   -0.0041423597    0.0498022280
 C   -1.2305971644   -0.6794777391    0.0318100332
 C   -1.1982368035   -2.1107470954   -0.0193344257
 C   -0.0196121488   -2.7884158762   -0.0550710516
 N    0.1272699878   -4.1675621140   -0.1718336497
 C    1.2282355097   -2.0376451072   -0.0198156582
 N    2.3687758653   -2.6078933179   -0.0174594407
 O    1.1295680815   -0.6567775690    0.0147188204
 H    0.9883012970    1.6841572788   -0.2614631493
 H   -0.6632708317    1.9143178296   -0.1022527137
 H   -2.1686633447   -0.1417346146    0.0596789353
 H   -2.1355888789   -2.6574724211   -0.0407357063
 H   -0.6005199486   -4.7134381315    0.2652599951
 H    1.0597648867   -4.4674724889    0.0836776934
 H    3.1250906821   -1.9268351415    0.0220398053