18

 N    0.0877727023    1.1558787390   -0.5106532136
 C   -0.0234844273   -0.0128233795    0.2035007623
 O    0.8984708124   -0.4573531438    0.8667745834
 C   -1.3244190221   -0.7137207541    0.0740800512
 C   -1.7728168001   -1.6327408842    1.1937346017
 C   -1.4725282842   -2.2313664897   -0.1340945889
 C   -2.5443424514   -1.9730722755   -1.2243229539
 C   -3.7209564453   -1.1545541994   -0.7631244148
 C   -2.4054088031   -0.4736957605   -1.0235270962
 H    0.9044218771    1.7139466740   -0.3151910003
 H   -0.7380724001    1.6450560638   -0.8130492039
 H   -0.9890108120   -1.7766223847    1.9295239374
 H   -2.7752616510   -1.5758540766    1.6009941703
 H   -0.6459966975   -2.9147148325   -0.2770126158
 H   -2.5565317247   -2.5172603351   -2.1592232477
 H   -4.4639396673   -0.9836759673   -1.5368151028
 H   -4.1508302168   -1.2448042630    0.2278503990
 H   -2.2930003588    0.2771321292   -1.7955849176