23

 C    0.5712024940    0.2526207734    1.1856092302
 O   -0.0577636914    0.0582161717   -0.0659069952
 C   -1.2214821338   -0.7270072894   -0.0206232552
 C   -2.4328571418   -0.0570432181    0.6033884140
 C   -2.8279173733    1.2399534832   -0.1120457090
 C   -4.0159156041    1.9345546540    0.5383397770
 O   -4.2935478813    3.1147345291   -0.2007570907
 C   -1.3962218440   -1.6030864885   -1.2235778059
 C   -1.0256290944   -2.2178844164    0.1135623178
 H    1.5076363218    0.7805229666    0.9894862625
 H   -0.0347855912    0.8628447489    1.8700702628
 H    0.7956029177   -0.7032529043    1.6799367783
 H   -3.2679273423   -0.7680719567    0.5853944755
 H   -2.2365222119    0.1479299075    1.6647392948
 H   -1.9772111556    1.9288999016   -0.1266338660
 H   -3.0743269516    1.0288885520   -1.1591366976
 H   -4.8864519991    1.2569792328    0.5473870726
 H   -3.7802334864    2.1698219648    1.5900237652
 H   -5.0464931803    3.5536366844    0.2053185609
 H   -2.3985192617   -1.7580722911   -1.6082154863
 H   -0.6192979923   -1.5519271644   -1.9771838078
 H   -0.0079725522   -2.5755854799    0.2232641605
 H   -1.7710549651   -2.7991423212    0.6459773915