21

 C   -0.0324002558    1.5100842253    0.0463310876
 C    0.0033238944    0.0012908262    0.0020432989
 C    0.3352990870   -0.8024547654   -1.2925859151
 C   -0.3742743966   -1.9598040791   -0.5393754161
 C    0.5860629709   -2.2159303781    0.6365181654
 C    0.8717215143   -0.7352820386    1.0457849600
 C   -1.3254311997   -0.8524979219    0.0330727313
 C   -2.0429250768   -1.0529043051    1.2735946507
 C   -2.6315524876   -1.2132203295    2.3113149877
 H    0.9724464704    1.9304100403   -0.0771349652
 H   -0.6664499661    1.9206675668   -0.7466443589
 H   -0.4239684585    1.8631867010    1.0070277564
 H   -0.2259880306   -0.4493479616   -2.1617234809
 H    1.3896617679   -0.9348512028   -1.5520068390
 H   -0.7823351911   -2.8259673504   -1.0600925898
 H    0.1150543754   -2.7880300750    1.4393919562
 H    1.4855440708   -2.7501145928    0.3177212063
 H    1.9272176188   -0.4622993734    0.9504861030
 H    0.5546769462   -0.5143959045    2.0684641234
 H   -2.0083466842   -0.4997416247   -0.7467275765
 H   -3.1579592091   -1.3568605766    3.2220369746