23

 C   -0.1848675055    1.5448618073    0.1455477493
 C    0.0226479810    0.0333776831    0.0159130851
 C    0.8801461074   -0.4876965963    1.1775364488
 O   -1.2947099295   -0.5309741239    0.0996861150
 C    0.6763414543   -0.3537037930   -1.3293311838
 C   -0.1241675412    0.0474462964   -2.5753557909
 C    0.4682499783   -0.5276722335   -3.8373915157
 C    0.4693367942    0.1959377115   -5.1138451108
 O    1.6599912989    0.0974238551   -4.3301917679
 H    0.7634053216    2.0789722696    0.0348974563
 H   -0.8816164579    1.9093504356   -0.6128371532
 H   -0.6055811461    1.7815014413    1.1267663761
 H    0.3963193598   -0.2670790183    2.1333783770
 H    1.0168817794   -1.5737119014    1.1053094195
 H    1.8744197192   -0.0297068712    1.1769620652
 H   -1.2005738870   -1.4892985821    0.1318690982
 H    1.6821305149    0.0788947184   -1.3862569474
 H    0.8152861869   -1.4452208898   -1.3321823566
 H   -1.1577361418   -0.3013787935   -2.4651813590
 H   -0.1580603051    1.1375055705   -2.6734774014
 H    0.5034048087   -1.6190710551   -3.8812451263
 H    0.4794596076   -0.3547784035   -6.0537704739
 H    0.0248766919    1.1893789230   -5.1655798036