15

 C    0.0490610509    1.5321176487   -0.0125979943
 C    0.0421568179    0.0370966505   -0.0241905224
 C    0.0018961216   -0.8107775534   -1.1238103056
 O   -0.0528387436   -0.6148374080   -2.4562302540
 N    0.0215533118   -2.0779239176   -0.6430620788
 C    0.0739620124   -1.9831325313    0.7383458195
 C    0.1031379610   -3.1782128478    1.5686162238
 O    0.1475863959   -3.2031671755    2.7764527657
 N    0.0867662872   -0.7143769427    1.1112130224
 H    1.0533524507    1.9364967325    0.1586854767
 H   -0.3194305195    1.9491316750   -0.9573866553
 H   -0.5957165954    1.9060342566    0.7870437785
 H   -0.0382342415    0.3320737345   -2.6311374387
 H   -0.0039270210   -2.9159549284   -1.2020336303
 H    0.0803354516   -4.1215006232    0.9694829427