18

 C   -0.1181014264    1.5243957514    0.0215310907
 C    0.0371969282    0.0281313004   -0.0022446340
 C    0.7892651477   -0.6882170419   -1.1540409175
 C   -0.3356417561   -1.7173033019   -0.9551146502
 C   -0.0060804148   -2.6758283083    0.1740046971
 O    0.5224499115   -1.9622653081    1.3081340372
 C    0.4870281138   -0.5954320162    1.3069048809
 N    0.8331971941    0.0899978276    2.3102184322
 O   -1.1888881458   -0.6873250400   -0.3908359002
 H    0.8389924977    1.9998737357    0.2480413899
 H   -0.4783736796    1.8721386124   -0.9501651223
 H   -0.8286173902    1.8212462413    0.7964300130
 H    0.6869273224   -0.1412126943   -2.0922304733
 H    1.8240580808   -0.9973313655   -0.9936758977
 H   -0.7808948652   -2.2238851346   -1.8155668487
 H   -0.9118489770   -3.1995657422    0.4994654406
 H    0.7456078023   -3.4150378093   -0.1251631181
 H    1.1054095465   -0.5223239864    3.0825356703