20

 C   -0.0668139797    1.5848969975    0.1436489632
 C    0.0150703238    0.0710454595    0.0821210307
 C   -1.2427920151   -0.5688383386   -0.4703670406
 O   -1.4061527556   -0.1563940427   -1.8236491085
 C    1.2658793496   -0.6903315072   -0.2892004849
 C    2.5363483740   -0.0243717221    0.2534930551
 C    1.9465123008   -0.1081737528    1.6992036106
 C    0.6891869880   -0.7806038271    1.1318179985
 H    0.8641728783    2.0478463315    0.4763177806
 H   -0.3096400819    1.9837101825   -0.8452097489
 H   -0.8577969724    1.9001986048    0.8351811461
 H   -1.1629176220   -1.6654614285   -0.4017159990
 H   -2.1088867568   -0.2614393224    0.1380077775
 H   -2.2731059869   -0.4466692633   -2.1214651620
 H    1.2439307798   -1.4266932709   -1.0843153974
 H    3.4193566288   -0.6568403494    0.1382483288
 H    2.7744072838    0.9699924420   -0.1371970792
 H    2.5250601982   -0.7791065402    2.3378770707
 H    1.7983041654    0.8336016719    2.2369730304
 H    0.1671473297   -1.6056409145    1.6051023782