25

 C   -0.0981733280    1.5650703754   -0.0680687368
 C    0.0610779091    0.0432344098   -0.0038146088
 C    0.6858646412   -0.5295501613   -1.2871333381
 C    0.8249025161   -2.0494564587   -1.1860980463
 O    1.5217765844   -2.4429823092   -0.0171916702
 C    0.8773673862   -2.0065358986    1.1764348623
 C    1.5884042162   -2.6868854868    2.3384268100
 C    0.8376156831   -0.4612004286    1.2427557112
 C    2.2401829762    0.1474693062    1.3961557295
 H    0.8555159961    2.0688472875   -0.2555144656
 H   -0.7792193641    1.8472184804   -0.8782812177
 H   -0.5086744494    1.9628246403    0.8668570757
 H   -0.9496340526   -0.3855164478    0.0786852150
 H    0.0687173563   -0.2752437386   -2.1577885192
 H    1.6733809009   -0.0834437061   -1.4561563641
 H   -0.1774440032   -2.5139184494   -1.1967854390
 H    1.3890239676   -2.4562605383   -2.0310145126
 H   -0.1707751857   -2.3585334839    1.1553108047
 H    2.6548546626   -2.4479643167    2.3410027311
 H    1.1570298085   -2.3711356310    3.2935900584
 H    1.4879061669   -3.7722635816    2.2538656736
 H    0.2473216215   -0.1895649112    2.1294149080
 H    2.9155854619   -0.2063591220    0.6123959982
 H    2.2099270393    1.2393484442    1.3554602609
 H    2.6813558189   -0.1256521339    2.3586997597