20

 C   -0.0616175088    1.5770687387   -0.0130317480
 C   -0.0116228873    0.0433161168   -0.0102481500
 C    0.8130657976   -0.4617547099    1.2032814120
 O    0.1176684421   -0.3359294007    2.4281661795
 C   -1.4457507474   -0.4991533780    0.0829894251
 O   -1.3817238951   -1.8871764537    0.4152575418
 C    0.6820861010   -0.5111743253   -1.2841297832
 C    0.1017005921   -0.0147294592   -2.5292109083
 N   -0.3800912491    0.3818178207   -3.5024425953
 H    0.9304031673    1.9994320483   -0.2045325939
 H   -0.7403154146    1.9600231740   -0.7813579556
 H   -0.3993268242    1.9354718336    0.9633221491
 H    1.1206560708   -1.5020154473    1.0338518491
 H    1.7224557789    0.1430346849    1.2943629210
 H   -0.5343637244   -1.0467110340    2.4338597785
 H   -1.9883711512    0.0583194517    0.8577115325
 H   -1.9654537426   -0.3433719185   -0.8721202553
 H   -2.2618880295   -2.2637995399    0.3256648281
 H    1.7479256489   -0.2539928562   -1.2717055612
 H    0.6112896353   -1.6042718761   -1.2823104659