16

 O   -0.1086855515    1.2817839539    0.2283757682
 N   -0.0271050448   -0.1172738159    0.3324568792
 C   -1.1163445551   -0.6703822612   -0.0037090340
 C   -2.5083343507   -0.2402803752   -0.4331801011
 C   -2.9537978195   -1.7388060447   -0.3085658041
 C   -1.4931279600   -2.1147767341    0.0045622600
 C   -0.6587118778   -3.2530257370   -0.4597563491
 N   -1.0501671188   -3.1355949916    0.9517504133
 H    0.7656278623    1.5601362194    0.5213280364
 H   -2.9952550291    0.4675332064    0.2421059040
 H   -2.5470646765    0.1694286041   -1.4463160092
 H   -3.6286792173   -1.9292551069    0.5282465905
 H   -3.3711604383   -2.1818707224   -1.2147710628
 H   -1.1283441605   -4.0735897975   -0.9964167917
 H    0.3674960224   -3.0368102707   -0.7450054964
 H   -0.2763902148   -2.7635262565    1.4995459370