17

 O    0.4033918844    0.8977184400   -0.7737481304
 C    0.0305821998   -0.2431892471   -0.0447941186
 C    0.4335240980   -0.1271729461    1.4315690684
 O    1.3280667446    0.5914820178    1.8013644220
 C   -0.5385698469   -0.9378272941    2.2822589452
 C   -1.7932496771   -0.9697659797    1.4205332055
 C   -2.2941901002    0.3654211729    0.8958036275
 C   -1.4567803772   -0.5254767637    0.0149213717
 O   -2.0435539231   -1.1928109483   -1.0562086666
 H    1.1072950321    1.3191183277   -0.2577058805
 H    0.5138470117   -1.1492045258   -0.4563481199
 H   -0.1312090462   -1.9465846580    2.4304460229
 H   -0.6618128300   -0.4820754048    3.2687981007
 H   -2.5176655393   -1.7624346317    1.5616893009
 H   -3.3470564707    0.4148347821    0.6441441399
 H   -1.8740152722    1.2887758663    1.2841266095
 H   -2.1063681677   -0.5700116376   -1.7895372782