14

 N    0.0010963859    1.3445565462    0.1044692004
 C    0.0068625089   -0.0112088162    0.0380440071
 N   -1.1838364465   -0.6264122988    0.0304622128
 C   -1.1506429964   -1.9588495933    0.0068087548
 C   -2.4568526332   -2.6983486868   -0.0047898735
 O   -3.5420674169   -2.1813590183   -0.0027519931
 C    0.0374606006   -2.6844051124   -0.0122452584
 C    1.2129185823   -1.9329421053   -0.0158524869
 N    1.2204264542   -0.6080348027    0.0073710221
 H    0.8633259491    1.8307795264   -0.0684496670
 H   -0.8725707393    1.8191843311   -0.0436363385
 H   -2.3362119687   -3.8052681138   -0.0167950048
 H    0.0476909442   -3.7670480269   -0.0321116752
 H    2.1862983358   -2.4186940690   -0.0409219997