16

 C   -0.0030970641    1.4686847682    0.0052420757
 C    0.0063585418    0.0141377537    0.0083505919
 C    0.0211635030   -1.1923572183    0.0106151659
 C    0.0116637188   -2.6067903353    0.0103680712
 C    1.0826006440   -3.4342009501    0.1759383921
 O    0.6830831829   -4.7429717266    0.1151630800
 C   -0.6579848849   -4.7432025294   -0.0878066838
 N   -1.2275670519   -5.9972478498   -0.2518106470
 C   -1.1372718128   -3.4722944908   -0.1603900832
 H    0.6567973462    1.8716562426   -0.7717103318
 H   -1.0100181656    1.8576206558   -0.1828624288
 H    0.3330645850    1.8739658702    0.9666738787
 H    2.1317536752   -3.2655755919    0.3423563364
 H   -0.7708566804   -6.7083502967    0.3055241198
 H   -2.2242296481   -5.9973752082   -0.0853385740
 H   -2.1580029592   -3.1638790334   -0.3131677631