23

 C    0.5942341345    1.3886295817   -0.3622805807
 C    0.0173076960    0.0318532268    0.0293640982
 O   -1.3905168390    0.1117989261    0.1718497817
 C    0.5633201759   -1.1323981965   -0.8542857985
 C    1.5598321884   -1.4886782820    0.2825490765
 O    2.8428608593   -0.9037508543    0.1211256036
 C    0.6938467680   -0.6536531164    1.2778139503
 C    1.4354467520    0.2325114690    2.2744865636
 C   -0.2913400441   -1.5681340910    2.0164156445
 H    1.6792540857    1.3376795680   -0.4731595556
 H    0.1751302501    1.7053352823   -1.3270825390
 H    0.3464254269    2.1495000235    0.3838843725
 H   -1.7380751328    0.6168554038   -0.5705440819
 H   -0.1942942806   -1.9044469925   -1.0062581867
 H    1.0091814754   -0.8652140283   -1.8174659835
 H    1.6513259425   -2.5548860207    0.5302922702
 H    3.2658404189   -1.3273223088   -0.6325050732
 H    2.2128929338    0.8302315761    1.7975426696
 H    0.7348942270    0.9075821333    2.7788329877
 H    1.9162625462   -0.3791389287    3.0457850805
 H    0.2488618946   -2.1783223011    2.7488414688
 H   -1.0442437060   -0.9778834830    2.5450917948
 H   -0.8244914226   -2.2401766673    1.3391655266