20

 C   -0.0415776897    1.5780838910   -0.1134240412
 C   -0.0185069442    0.0497573163   -0.0029561148
 O    0.7285001949   -0.2450685391    1.1737515186
 C   -1.4325599800   -0.5836336568    0.0613147136
 C   -2.2504579457   -0.1249785507    1.2490973385
 C   -3.2438684015    1.0055345877    1.1253379393
 C   -3.7300328486   -0.4118738350    1.2895870829
 C    0.6857145720   -0.5174522536   -1.1815108291
 N    1.2259720294   -0.9913476857   -2.0868039172
 H    0.9798775452    1.9600386243   -0.1651626560
 H   -0.5843405117    1.8931089193   -1.0075496300
 H   -0.5312997969    1.9940295268    0.7683393081
 H    0.8186579682   -1.2024498036    1.2460454847
 H   -1.9612602071   -0.3685741016   -0.8747352679
 H   -1.3031364993   -1.6742857945    0.0943510056
 H   -1.7239416677   -0.1954332363    2.1956587583
 H   -3.3528356293    1.6901791745    1.9591872387
 H   -3.3673298688    1.4707571000    0.1527399668
 H   -4.1758711820   -0.8961811152    0.4267101667
 H   -4.1711157774   -0.7018662277    2.2365963343