18

 C   -0.2217286168    1.5179056028    0.0315253839
 C    0.0352896440    0.0274718878    0.0205666566
 C   -1.1885073138   -0.9387635709    0.1939147084
 C   -0.4533544726   -1.6905893376    1.3407312193
 C    0.8060898517   -0.8171839536    1.1233209015
 C    1.7842387106   -1.3546504372    0.0420870804
 C    1.0231935701   -0.5279553006   -1.0131063503
 O    1.1786440453   -0.3338082098   -2.1851410544
 H    0.7117952865    2.0880423656    0.0860094699
 H   -0.7400046963    1.8195509485   -0.8853629939
 H   -0.8462944149    1.8060791687    0.8839543965
 H   -2.0880833589   -0.4090727409    0.5173084573
 H   -1.4450928101   -1.5293678809   -0.6891631870
 H   -0.9219096712   -1.5350135147    2.3153370325
 H   -0.3101800616   -2.7660877869    1.2026401195
 H    1.2659760853   -0.3553489124    1.9969151732
 H    2.8137311064   -0.9976402132    0.1543668254
 H    1.8152269564   -2.4367725646   -0.1183356089