21

 O    0.1695702139   -0.0487136530    0.1737495678
 C    0.0142917765    1.1434628368    0.0324571880
 C   -1.3731971815    1.7719986322    0.0615385559
 C   -1.6813576283    2.5555970738    1.3610956156
 C   -0.6274649846    3.5852322438    1.7931197122
 C    0.1008536623    4.3087452936    0.6220484005
 C    1.2671421224    3.2868783020    0.7558172753
 C    0.7497512357    2.9729406872    2.1912432175
 C    1.2072637770    2.0746916861   -0.1884333642
 H   -1.4708636389    2.4459300432   -0.7978010106
 H   -2.1015286103    0.9662226463   -0.0579273829
 H   -2.6433900538    3.0614571643    1.2181221328
 H   -1.8267738450    1.8392529322    2.1791136436
 H   -1.0716939299    4.2422062018    2.5460982532
 H   -0.4106578914    4.3843461296   -0.3419548797
 H    0.4238916264    5.3116362346    0.9136166114
 H    2.2686932383    3.7199739162    0.6930301903
 H    1.2551235383    3.5763032816    2.9495800325
 H    0.7656492995    1.9271939799    2.5140662179
 H    2.1043453120    1.4597568483   -0.0742252054
 H    1.1775815813    2.4239323895   -1.2309353916