23

 C   -0.1365063614    1.6214993238   -0.1989481251
 C   -0.0546517828    0.1025383263    0.0002761129
 C   -1.4515152790   -0.5209887701    0.0423483533
 O   -2.1533062844    0.0230982092    1.1508021637
 C    0.7893421316   -0.5959927067   -1.0824335191
 C    2.2539184049   -0.1889442346   -1.1338308124
 C    3.0720502929   -0.3790122995    0.1261725001
 C    2.9402852516   -0.1952901429   -2.4357239303
 O    2.5249115158    1.0352736561   -1.8400910243
 H    0.8492082618    2.0891592276   -0.1482675661
 H   -0.5578552468    1.8584669892   -1.1833304430
 H   -0.7802149419    2.0655961378    0.5634413262
 H    0.3945591315   -0.0981094231    0.9821157276
 H   -1.9773598847   -0.3096126657   -0.9041713730
 H   -1.3659967798   -1.6164868894    0.1323506613
 H   -3.0597250600   -0.2952902661    1.1201680433
 H    0.7469418692   -1.6834177000   -0.9277132266
 H    0.3480701697   -0.3987608855   -2.0671574742
 H    3.0506859199   -1.4256391746    0.4492937008
 H    4.1111912355   -0.0886841469   -0.0459576601
 H    2.6827831959    0.2319716919    0.9461718253
 H    4.0174568450   -0.3543231468   -2.4785191629
 H    2.3967670053   -0.4874278502   -3.3339980474