19

 C    0.0419987855    1.4958819856    0.0942966449
 C    0.1013229728   -0.0115615232    0.1663255663
 O    0.5468205687   -0.5489849024   -1.0580949659
 C    1.0502891678   -1.8341164559   -0.7406524728
 C    1.5747933295   -1.6837907500    0.7171212314
 O    1.0634868125   -0.4244607965    1.1322395643
 C    1.1148363347   -2.8111219052    1.6178766915
 C    0.5713109970   -2.5687485931    2.9571189427
 O   -0.2902523651   -2.8858454799    1.8552822744
 H    1.0253547013    1.8903205008   -0.1722562379
 H   -0.6869587925    1.8035421188   -0.6595959002
 H   -0.2599652826    1.9037852006    1.0620407376
 H   -0.8761165132   -0.4485053084    0.4322112660
 H    0.2558295201   -2.5920758257   -0.7874440577
 H    1.8333269844   -2.0874017511   -1.4585252228
 H    2.6708952410   -1.6336970935    0.7472834000
 H    1.5927086009   -3.7727520983    1.4154482658
 H    0.6521925540   -3.3418850972    3.7194890500
 H    0.5008830732   -1.5446954955    3.3125885126