21

 C   -0.4630099130    1.4601809665   -0.0348105610
 C    0.0454595031    0.0220613685   -0.0260027927
 C    0.9410543644   -0.3719305840   -1.2258045695
 O    1.6923028332    0.7678907432   -1.6259090155
 C    1.8464948281   -1.5266275275   -0.7061769007
 C    1.4447859331   -1.7706685013    0.7641038425
 C    0.8526453892   -0.4175728599    1.2316549607
 C    1.8894670234    0.5277913701    1.6354730727
 C    2.7494148712    1.2867096769    1.9971694215
 H    0.3665488764    2.1671198013    0.0103646443
 H   -1.0325913358    1.6645517812   -0.9468079945
 H   -1.1212150021    1.6412548478    0.8214232141
 H   -0.8179937442   -0.6559554614   -0.0574807165
 H    0.3118406025   -0.7062626656   -2.0641777865
 H    2.3029905450    0.4925116535   -2.3161267363
 H    1.7627959217   -2.4337438846   -1.3113350033
 H    2.8853781299   -1.1867262385   -0.7601155444
 H    0.6583447185   -2.5311114916    0.8251446073
 H    2.2778727300   -2.1055505940    1.3854388594
 H    0.1733611133   -0.5617115031    2.0800465658
 H    3.5052670520    1.9661632722    2.3038948424