16

 C   -0.3913566697    1.3150930535    0.3076793927
 C   -0.0503489875   -0.1180265067    0.0488260077
 N    0.3315503634   -0.5115999619   -1.1625390342
 N    0.5532379715   -1.8432066323   -1.0380276129
 C    0.3312431388   -2.2824435234    0.2194942809
 O    0.5546031344   -3.5919113662    0.4959954584
 C   -0.2604504468   -4.1945259609    1.4123196362
 N    0.0400250826   -5.3418375655    1.8268046661
 C   -0.0652847372   -1.1987268887    0.9714067500
 H    0.2500639148    1.7446975274    1.0848203143
 H   -0.2614282858    1.8956474066   -0.6079123791
 H   -1.4281222489    1.4255417717    0.6439686594
 H    0.8660016557   -2.3864932478   -1.8246898477
 H   -1.1274760217   -3.5797473857    1.6749776250
 H   -0.6682382953   -5.6760761966    2.4771159573
 H   -0.2949253483   -1.1768932333    2.0235973160