18

 C   -0.0377636225    1.5610615848    0.0660783096
 C   -0.0397595137    0.0217644341   -0.0043907936
 C   -1.4667054606   -0.5473934462    0.0029715390
 O   -2.0802345866   -0.1705997256    1.2248546522
 C   -3.4068972080   -0.6210047416    1.3226482137
 C   -3.9693592961   -0.1903141614    2.6062191136
 N   -4.4393787843    0.1352016481    3.6089948303
 C    0.6702461332   -0.4692083684   -1.1830782144
 C    1.2321456252   -0.8664000815   -2.1685622694
 H    0.9853337620    1.9408557996    0.1153806855
 H   -0.5153086158    1.9862635010   -0.8221106846
 H   -0.5833888892    1.8933104413    0.9515199869
 H    0.4588878362   -0.3673772443    0.8932905757
 H   -2.0353105922   -0.1507540570   -0.8533490813
 H   -1.4383690836   -1.6433498279   -0.0900139873
 H   -4.0342050490   -0.2173097265    0.5109420287
 H   -3.4685312632   -1.7201271213    1.2632217464
 H    1.7430032382   -1.2181046174   -3.0306425910