18

 C    0.0303353812    1.4641528689    0.0791703248
 C   -0.0341447416   -0.0423000777   -0.0071401485
 C    0.2148180103   -0.6871158710   -1.4142969253
 C   -1.1196164312   -1.4175100533   -1.2793123409
 C   -1.1677096613   -2.1696514902    0.0355340315
 N   -0.0211385637   -2.7213603944    0.7013563670
 C    0.8319408941   -1.9005182020    1.1549036867
 O    0.8659944446   -0.5555410950    1.0006870480
 C   -1.4248094357   -0.6916737916    0.0358877463
 H    1.0516362381    1.8158005669   -0.0955552320
 H   -0.6290834958    1.9119843675   -0.6693282675
 H   -0.2871377386    1.8040702091    1.0697795675
 H    0.2144950783    0.0646644004   -2.2072004183
 H    1.1130865483   -1.3042853655   -1.5041426679
 H   -1.8016959452   -1.6560943537   -2.0859302160
 H   -2.0468692611   -2.7973098554    0.1390734435
 H    1.6725566859   -2.2397220680    1.7570472939
 H   -2.3296065566   -0.2256919353    0.4046943074