19

 C   -0.0396555863    1.4577138077   -0.0468915633
 O    0.2435939810    0.0851756437    0.0892133078
 C    0.5773465399   -0.5297560420   -1.1337286852
 C    0.8158532554   -2.0118225321   -0.8663653708
 C    1.2164759698   -2.7750687593   -2.1102819895
 C    1.1781396424   -4.3137761049   -2.0638856488
 C    0.0765500360   -4.1580132868   -3.1133389392
 O   -0.6362962906   -4.8564257850   -3.7571954139
 O    0.1420158713   -2.7869961606   -3.1247191674
 H    0.8260821209    2.0174014027   -0.4354258978
 H   -0.8918929582    1.6340331867   -0.7217304984
 H   -0.2897481494    1.8395906159    0.9457500474
 H   -0.2325828292   -0.4059759288   -1.8703474628
 H    1.4826859222   -0.0668532978   -1.5659849641
 H    1.6099505499   -2.1181799321   -0.1173282374
 H   -0.0934706461   -2.4504052842   -0.4399884179
 H    2.1209600217   -2.3618675961   -2.5669924757
 H    2.0660964208   -4.8381838499   -2.4198940774
 H    0.8426556084   -4.7539736372   -1.1229205355