18

 C   -0.0611472313    1.5331712147    0.0057153409
 C    0.1069217647    0.0302771181    0.0651960736
 C    1.3888379037   -0.7178835710   -0.2004262525
 C    2.6017612811   -0.0211169052    0.3665353438
 C    3.2157252031   -0.8230209527    1.4728344592
 C    1.9481583278   -0.0446821967    1.7759913580
 C    1.9279260194    0.9964207587    2.7547480131
 N    1.9010480906    1.8360560324    3.5517051014
 C    0.7344386121   -0.7423729101    1.1995669955
 H    0.8007387029    2.0657762444    0.4130259684
 H   -0.2003066184    1.8613665961   -1.0300020959
 H   -0.9414530938    1.8453579120    0.5768795878
 H   -0.7499017455   -0.5095573101   -0.3372215503
 H    1.4394205919   -1.5372427050   -0.9084023438
 H    3.1219769307    0.8210776838   -0.0743325635
 H    3.1655673463   -1.9078494376    1.4574282126
 H    4.1219406997   -0.4136124496    1.9079729101
 H    0.2302522852   -1.5707319024    1.6838281315