19

 O   -0.0244158805    1.4151709195   -0.0525109239
 C    0.0810491827    0.0135732994    0.0296564329
 C    0.0152914284   -0.6172053432    1.4536399139
 C   -1.5367979108   -0.2545399640    1.4189558902
 C   -1.3102931818   -0.6638725699   -0.0536695258
 O   -1.9924618826   -0.8181737806   -1.3057432112
 C   -1.2535547740   -2.0756096856   -1.4951091087
 C   -1.0138431162   -2.1439787619    0.0398655694
 C    0.1626728836   -2.1226239605    1.0533421563
 H    0.8143509440    1.7935814793    0.2288339417
 H    0.8740060862   -0.3642488929   -0.6302890715
 H    0.6376369053   -0.2350180284    2.2631262906
 H   -2.2322482819   -0.8609255249    2.0033309656
 H   -1.6782663654    0.8087592822    1.6011419993
 H   -1.8883176678   -2.8482371562   -1.9355357975
 H   -0.3643533993   -1.9190735005   -2.1165139629
 H   -1.8735854058   -2.6646698155    0.4698129123
 H    1.1537800408   -2.3164174953    0.6314593604
 H    0.0075126151   -2.8212537709    1.8787358791