17

 C    0.2609252920    1.4767787897   -0.0500384889
 C    0.0149899933    0.0067355611   -0.0239391341
 C   -0.3812473462   -0.8240368097   -1.0166104851
 O   -0.4689521382   -2.0963459785   -0.5072529049
 C   -0.1127673485   -1.9608467886    0.7974378514
 N    0.1870741327   -0.7475404983    1.1381904340
 C   -0.0999626831   -3.1645328942    1.6379704604
 C   -1.1219654062   -4.2331038708    1.4333380293
 N    0.2745701660   -4.4716605052    1.0603410769
 H    1.2941361404    1.7030826403    0.2332594014
 H    0.0775313532    1.8894697207   -1.0452977134
 H   -0.3898846725    1.9929280593    0.6634669980
 H   -0.6231630985   -0.7064042126   -2.0586153013
 H    0.2859918341   -2.9747137467    2.6333777317
 H   -1.4737577836   -4.7973658199    2.2921415515
 H   -1.8550080718   -4.0772630439    0.6474178116
 H    0.3793359069   -4.3689126227    0.0531477013