20

 C   -0.0512729698    1.5238523318    0.1350573216
 C    0.0226241852    0.0219940068   -0.0289351899
 C    0.6775711370   -0.6715106197   -1.2056822300
 C    0.0281843837   -1.9482876848   -1.7090422896
 C    1.3506839811    0.1394272309   -2.2987370603
 C    1.3610541410   -0.7029621299    0.1597618914
 O    2.5310289975    0.0547851704    0.2784444977
 C    1.3812737252   -1.9283799523    0.9284166990
 N    1.4010056585   -2.8922081773    1.5689819572
 H    0.8908164817    2.0096131564   -0.1250907808
 H   -0.8371954935    1.9442256131   -0.5008943481
 H   -0.2908514061    1.7865617239    1.1710439084
 H   -0.8300189923   -0.5121066043    0.3832817050
 H   -0.7607885836   -1.7067484600   -2.4299054331
 H    0.7605534252   -2.5872791784   -2.2140668609
 H   -0.4202953172   -2.5301843840   -0.9001394960
 H    1.9091196575    0.9893533515   -1.9088695967
 H    2.0519175490   -0.4898396679   -2.8565490485
 H    0.5996950234    0.5081433221   -3.0061119832
 H    2.5964406766    0.3707136916    1.1873280368