16

 C   -0.0042040175    1.5536316492    0.0256182861
 C   -0.0154914798    0.0516553559    0.0121497364
 C   -1.1633058221   -0.6772857263    0.0299774847
 N   -2.4286638259   -0.1311579623    0.1150052380
 C   -1.0570462246   -2.1205013340    0.0203647493
 N    0.0393241323   -2.7862837373   -0.0111212939
 O    1.2105318158   -2.0554262538   -0.0303539083
 C    1.2495076387   -0.6569935895   -0.0093124797
 N    2.3841114955   -0.0808421212   -0.0173955429
 H    1.0174445053    1.9143655523   -0.0880695246
 H   -0.6122621801    1.9669015023   -0.7906542577
 H   -0.4090433988    1.9482925182    0.9661449490
 H   -2.5141631324    0.8434078159   -0.1296991376
 H   -3.1886154163   -0.6958485879   -0.2322620733
 H   -1.9526731277   -2.7368368593    0.0437658707
 H    3.1364532278   -0.7689159321   -0.0386274061