19

 C   -0.2987027782    1.2277632454   -0.0350509547
 O    0.2457843577   -0.0613355335    0.1384707660
 C    0.7599502763   -0.6109526298   -1.0357622404
 C    1.2758203872   -2.0308138127   -0.9468436350
 C    0.0535248639   -2.9082426703   -1.2700624050
 O   -1.0846180732   -2.0608384755   -1.4143083499
 C   -0.2123087611   -1.1562929793   -2.1344843615
 C    0.8346524803   -2.3116123008   -2.3912417451
 C    1.5534632480   -2.8297238569   -3.5927683528
 H    0.4458223403    1.9339372794   -0.4368486073
 H   -1.1676554918    1.2204546974   -0.7091998565
 H   -0.6220941651    1.5790035970    0.9473929885
 H    1.5053743262    0.0544121934   -1.5005085352
 H    2.1506141992   -2.3993319369   -0.4268182246
 H   -0.0816279886   -3.9260107077   -0.9282593672
 H   -0.7275590675   -0.5276401720   -2.8580033494
 H    2.2259830365   -2.0757885635   -4.0174483163
 H    2.1625217993   -3.7008973714   -3.3287579707
 H    0.8531006906   -3.1367414423   -4.3772978729