15

 C   -0.0226042158    1.4474207771    0.1078091480
 C   -0.0021923416   -0.0367747789   -0.0559606341
 N   -0.0256487014   -0.6311543974   -1.1732700079
 C   -0.0036089560   -2.0540782275   -1.2306247490
 N   -0.0263972644   -2.6833321035   -2.3425285285
 C    0.0461998174   -2.7463717299    0.0469129402
 C    0.0676904429   -2.0269782604    1.1744426659
 O    0.1129834044   -2.5277467171    2.4136748098
 O    0.0449329677   -0.6625426077    1.1790458048
 H    0.8698701888    1.7836226369    0.6454794339
 H   -0.0593433370    1.9169175994   -0.8737286094
 H   -0.8930813471    1.7536447288    0.6970204844
 H   -0.0605605102   -2.0023238250   -3.1033436503
 H    0.0653949034   -3.8255695198    0.0809808842
 H    0.1198763689   -1.7933480649    3.0400211579