20

 C   -0.5926323831    1.2906076556    0.2057095099
 C    0.0979566767   -0.0640422634    0.2272696002
 O    0.1581170335   -0.4961575903   -1.1512133030
 C    0.5896885333   -1.7540839971   -1.4641825217
 C    0.2543928928   -2.0280700946   -2.9074079540
 N    1.1812448473   -2.6338406327   -0.7724188340
 C    1.6404977531   -2.4998728207    0.6058056090
 C    2.1634457915   -1.1452445128    1.0326164845
 C    1.4652214528   -0.0268472426    0.8592703761
 H    0.0071536733    2.0134022310   -0.3559704033
 H   -1.5756855639    1.2159779872   -0.2649025168
 H   -0.7187332249    1.6629149718    1.2268148157
 H   -0.5330978938   -0.7856583432    0.7656546298
 H    0.7099598400   -1.2659606343   -3.5481465765
 H    0.6210528826   -3.0138459780   -3.1891214217
 H   -0.8278709849   -1.9736627296   -3.0635851426
 H    0.8351756067   -2.8199184421    1.2870279790
 H    2.4334431862   -3.2434960893    0.7368612924
 H    3.1529243932   -1.1103062598    1.4820333578
 H    1.8654731175    0.9410410048    1.1489805193