17

 C   -0.0191101605    1.5087828153    0.0899323024
 C   -0.0069175166    0.0155435794    0.0233642532
 C   -0.0258961242   -0.7851889140   -1.0684199812
 C   -0.0031556168   -2.2631762961   -0.6953733796
 C    0.0326101355   -2.2032532810    0.8046710517
 C    0.0290223584   -0.8882212641    1.1621370340
 O    0.0601328079   -0.7232509966    2.5026313929
 C    0.0837685725   -1.9977056681    3.0170708911
 C    0.0693696380   -2.9395827034    2.0258647025
 H    0.8696197127    1.8891690202    0.6069361320
 H   -0.0477975822    1.9480534686   -0.9102231925
 H   -0.8881995682    1.8728882381    0.6502264824
 H   -0.0538926088   -0.4410145397   -2.0944247145
 H   -0.8862180333   -2.7862431334   -1.0857219118
 H    0.8696058046   -2.7698894239   -1.1281516385
 H    0.1099119845   -2.0595853725    4.0921505525
 H    0.0832145166   -4.0078926388    2.1784366535