21

 C   -0.0647424395    1.5529512802   -0.0209916806
 C    0.0423454497    0.0272970218   -0.0206613897
 C    0.6716028889   -0.5289014720   -1.3065296744
 C    0.7694882255   -2.0593960658   -1.2398806246
 C    1.4753355332   -2.4885362433    0.0467638455
 O    0.8465975898   -1.9390129481    1.2013285813
 C    0.8135088006   -0.5140214761    1.2097804910
 C    2.1625265061    0.0603276041    1.3372025527
 C    3.2670427802    0.5238035180    1.4458383290
 H    0.9222196578    2.0180636794   -0.1040822379
 H   -0.6727541936    1.8935831247   -0.8652981997
 H   -0.5328126157    1.9228828355    0.8979168350
 H   -0.9658585143   -0.3978055764    0.0742493796
 H    0.0815851498   -0.2159113672   -2.1752808297
 H    1.6733525153   -0.0969300819   -1.4314650329
 H   -0.2373447267   -2.4948811670   -1.2564300047
 H    1.3107885987   -2.4574688550   -2.1058800902
 H    1.4356590327   -3.5726938176    0.1838304238
 H    2.5339234478   -2.1883338072    0.0180193361
 H    0.2506635689   -0.2584332942    2.1154192681
 H    4.2416408647    0.9321194378    1.5542420122