18

 C    0.0589692582    1.5481028655    0.0434906434
 C    0.0848552591    0.0230428831   -0.0067798329
 C    0.7762384149   -0.5203147039   -1.2347233741
 O    1.2637636590    0.1877360161   -2.0923531116
 C    0.8551978251   -2.0361362255   -1.3855939703
 N    0.3345572293   -2.7717186333   -0.4709265288
 N    1.4978469551   -2.4026429874   -2.5240490933
 C    1.7115336109   -3.7727422492   -2.9143320729
 H    1.0716177082    1.9603622129    0.0398408296
 H   -0.4623662260    1.9627973182   -0.8235186440
 H   -0.4497822682    1.8916582008    0.9482616388
 H    0.5812470272   -0.4111722591    0.8692969445
 H   -0.9224255810   -0.4091978653    0.0223317636
 H    0.4456661083   -3.7662310244   -0.6745023282
 H    1.8247033459   -1.6398333460   -3.0972896391
 H    2.3098867648   -4.3182972215   -2.1717401275
 H    0.7625494438   -4.3111556031   -3.0432855374
 H    2.2468666653   -3.7953341778   -3.8649095797