15

 C    0.0008159286    1.5469630611    0.0104091853
 C    0.0027000267    0.0165683438    0.0023142184
 C   -1.4229136178   -0.5442661320    0.0125255287
 N   -1.4386410591   -2.0040974164    0.0048682996
 N   -1.4228994721   -2.7403383101   -1.0947256125
 N   -1.3863708414   -3.9705327064   -0.6791843072
 N   -1.3769619945   -3.9777209997    0.6671100469
 N   -1.4072550239   -2.7520314369    1.0962224795
 H    1.0232617317    1.9332848953    0.0027147666
 H   -0.5145838152    1.9503440824   -0.8677043771
 H   -0.4977541764    1.9410426428    0.9023503730
 H    0.5221144667   -0.3602241783   -0.8853251363
 H    0.5384027607   -0.3695411881    0.8761650786
 H   -1.9659166586   -0.2340481588    0.9077674300
 H   -1.9824203655   -0.2243165587   -0.8690381736