19

 C    0.1422935054    1.5696232266   -0.0287148072
 C    0.0885521947    0.0229616657    0.0342931505
 C    0.6648315333   -0.5353631559   -1.2642344600
 O    0.0402065519   -0.5322469545   -2.2912040139
 O    1.9240782583   -1.0253763566   -1.2648647198
 C    2.7415150258   -1.0616474376   -0.0881672911
 C    1.9876289606   -0.9978207148    1.2011995381
 C    0.7480019010   -0.5218239976    1.2798739758
 C   -0.0429350832   -0.4773160755    2.5565373385
 H    1.1769564962    1.9258227342   -0.0452715511
 H   -0.3637380398    1.9220369395   -0.9304864628
 H   -0.3522928807    2.0083999381    0.8420075426
 H   -0.9685225781   -0.2658534125    0.0168303178
 H    3.3054205966   -1.9984434548   -0.1589545007
 H    3.4763612839   -0.2460739408   -0.1630834986
 H    2.5100851974   -1.3656642584    2.0799578986
 H    0.5367044301   -0.8583105309    3.4010807004
 H   -0.3624223176    0.5439525328    2.7965121797
 H   -0.9573467759   -1.0776808870    2.4696844932