14

 C   -0.0461620550    1.3737308587    0.0656477961
 O    0.0152156720   -0.0406834673   -0.0207557558
 C    0.6263766152   -0.5700677587   -1.0920854179
 C    1.1919422151    0.1231868915   -2.1019395632
 O    1.7937303082   -0.5124232246   -3.1550305992
 C    1.7937153505   -1.8574225457   -3.1339802064
 N    1.2964917480   -2.6184565557   -2.2437906679
 C    0.6545873782   -2.0547366000   -1.1187909533
 O    0.1680779186   -2.7356266268   -0.2487523018
 H    0.9591574811    1.8138885441    0.0995499028
 H   -0.5983764174    1.8001613347   -0.7821570000
 H   -0.5729885523    1.5993393586    0.9927720995
 H    1.2402613360    1.1963911895   -2.2040423800
 H    2.2955574718   -2.2494889983   -4.0142736329