20

 O    0.0084815357    1.4531658018   -0.0636064428
 C    0.0019804757    0.0495232774    0.0459801242
 C    0.2019098023   -0.6368212997    1.4248726707
 N   -0.9692380899   -1.5289692487    1.1362562505
 C   -1.4166258243   -0.5486474675    0.0956843805
 C   -0.5846318775   -2.8327919314    0.5924728358
 C    0.1536016157   -2.8358905718   -0.7636587506
 O    1.2502795598   -1.9352474881   -0.8040022585
 C    0.9021030221   -0.5847782203   -1.0341310720
 H    0.9211518158    1.7618926581   -0.0432673800
 H    1.1479404184   -1.1521515824    1.6062899641
 H   -0.0301698229    0.0388992141    2.2549068048
 H   -2.1305508861    0.1624262071    0.5229506814
 H   -1.8386415356   -0.9712229316   -0.8208806966
 H    0.0455690354   -3.3211149031    1.3441146304
 H   -1.4869563459   -3.4497725749    0.4842665996
 H    0.5658769114   -3.8346260407   -0.9445358808
 H   -0.5402240694   -2.6174486116   -1.5902907004
 H    0.4228771724   -0.4624217923   -2.0194964973
 H    1.8565473469   -0.0437618743   -1.0574794429