19

 C   -0.9443275987    1.1031431190    0.0190939460
 C    0.1147788593    0.0186905371    0.1342429298
 C    1.2469267287   -0.0379752910   -0.9360884787
 C    2.2310660150   -0.3683320163    0.1965661026
 C    1.2205562649    0.1655664769    1.2234075822
 C    2.8689224808   -1.7623647413    0.3357720797
 C    4.1834400759   -0.9855763146    0.2785929285
 O    5.3491919965   -1.2132156920    0.3142373690
 O    3.5682275339    0.2342266725    0.1561050510
 H   -0.4832987369    2.0933125396   -0.0686154372
 H   -1.5758601454    0.9490852406   -0.8626707338
 H   -1.5973571037    1.1151091045    0.8985741141
 H   -0.3627802998   -0.9631772303    0.2209525214
 H    1.1582245350   -0.7503433203   -1.7599867901
 H    1.4583208683    0.9555741047   -1.3433379455
 H    1.4243186229    1.2181768059    1.4428775698
 H    1.1103033165   -0.3805510659    2.1634837778
 H    2.6960727403   -2.2829372218    1.2796545376
 H    2.7177732465   -2.4504474272   -0.4981848343