17

 O   -0.1585989342    1.2661880076   -0.5099018446
 C   -0.0288092229   -0.0583696569   -0.1074299128
 C   -0.3919170470   -0.4114335309    1.3072339664
 O   -1.0385039469    0.6439102009    1.9786837604
 C   -2.4513331447    0.5529175755    1.7193310804
 C   -2.5841382430   -0.1068465034    0.3331919551
 C   -2.8582537285    0.8979746083   -0.7867793630
 O   -3.3840006230    1.9670294809   -0.6147607099
 C   -1.2772947876   -0.8876360289    0.1781290651
 H   -0.3139822339    1.7820939371    0.2956895416
 H    0.8071613358   -0.5677493654   -0.5782808917
 H    0.2090428303   -1.0601198025    1.9361597518
 H   -2.9284354007   -0.0554227533    2.4980410123
 H   -2.8686747561    1.5615168067    1.7348172011
 H   -3.4302628374   -0.8055733351    0.3081856839
 H   -2.5900875654    0.5370275476   -1.8022388604
 H   -1.3024764149   -1.9282659680   -0.1207699359