18

 C   -0.0294399509    1.5461885954    0.0869308476
 C    0.0000990511    0.0140047358    0.0012887046
 C    0.7155329495   -0.4835137973   -1.2550119378
 N    0.6398477678   -0.5918174292    1.1733043336
 C    0.0578566949   -0.6813254115    2.3843189959
 N    0.6285695092   -1.0210532275    3.5173923691
 C   -0.4403865332   -0.9840544476    4.3678265365
 N   -1.5913163372   -0.6498943112    3.8541953308
 O   -1.2551129771   -0.4360328218    2.4831919436
 H    0.9869719434    1.9547571758    0.1043266455
 H   -0.5509913806    1.9677603221   -0.7781236937
 H   -0.5500750080    1.8733378974    0.9905208042
 H   -1.0304373384   -0.3551424072   -0.0094511957
 H    1.7611194764   -0.1521552133   -1.2662981218
 H    0.7000973455   -1.5751908447   -1.3103825621
 H    0.2336361738   -0.0825016777   -2.1503372789
 H    1.6468537369   -0.6467709611    1.1920228575
 H   -0.3605303432   -1.2153644164    5.4211763811