12

 O    0.0768584153   -0.0383825795    0.0828981163
 C   -0.0271569447    1.1389669443   -0.0266451252
 O    1.0947994234    1.9439466293    0.0948900553
 C    0.9854257374    3.2919841823    0.0588238785
 N   -0.2164234508    3.8594617174    0.1154714573
 C   -0.1874263566    5.1920121798    0.0835833428
 N    0.9041938546    5.9497416422    0.0158654267
 C    2.0417085508    5.2500436042   -0.0288256926
 N    2.1519789296    3.9248211993   -0.0159340341
 H   -0.9398297600    1.7091909608   -0.2310544369
 H   -1.1477971981    5.7004978327    0.1216744913
 H    2.9687354591    5.8156362973   -0.0826960092