20

 C    0.2131747308    1.5316289985   -0.3182399485
 C    0.1426770911    0.0343142354   -0.1189314101
 C    1.4090136301   -0.7857413856    0.0090691129
 C    0.5086245986   -0.5947686068    1.1950118022
 C    0.8527236956    0.1321334377    2.5168009698
 C    0.0752206700   -0.9619420229    3.2255870370
 C   -0.2734735770   -1.6952510572    1.9430168269
 N   -0.1526507757   -1.1277265967    4.4590287063
 O   -0.9247109361   -2.2872439707    4.6741564512
 H    1.0545262235    1.9660590612    0.2317378958
 H    0.3467458912    1.7825879006   -1.3761998728
 H   -0.7008201206    2.0273439106    0.0284349620
 H   -0.6753893612   -0.4514156065   -0.6475522768
 H    1.4450467114   -1.7661966548   -0.4558560235
 H    2.3564032637   -0.2535839378    0.0006260280
 H    1.9170580836    0.1745503616    2.7701073002
 H    0.4308150448    1.1366295786    2.6283050739
 H   -1.3469095279   -1.7517014827    1.7318550057
 H    0.1417376854   -2.7067878985    1.8781804542
 H   -1.0212468614   -2.2893917039    5.6324324858