12

 C    0.1160734526   -1.1611586446   -0.0054507644
 C    0.0128296952    0.0366345110    0.0028213964
 C   -0.0996986299    1.4418167128    0.0124086094
 N   -1.1781412045    2.1665285033    0.0314491799
 C   -0.7192750787    3.4811573318    0.0325900292
 C    0.6463174848    3.4615977098    0.0135193806
 O    1.0571473229    2.1728731232    0.0004755773
 C   -1.5776208675    4.6043444701    0.0508841456
 C   -2.2961028517    5.5688812907    0.0663292724
 H    0.1986825647   -2.2202826555   -0.0126413072
 H    1.4072267013    4.2223851726    0.0072881281
 H   -2.9370472491    6.4153583446    0.0800295626