19

 C   -0.0112353325    1.5277321703    0.0106169808
 C    0.0321026085    0.0196798736    0.0429940861
 C    1.0496244328   -0.8346549348   -0.7857108424
 C    0.5700944656   -1.9289732578    0.2084374648
 C    0.5195426536   -0.8055185798    1.2813162282
 O   -0.8074525842   -2.1193826474   -0.1421607991
 C   -1.2608039295   -0.7532532873   -0.2776750639
 C    1.2749902705   -3.2348986948    0.4075700222
 O    2.4399082702   -3.3145713067    0.7077149023
 H    0.9653197694    1.9567684870    0.2550598911
 H   -0.2988212357    1.8936102468   -0.9817347762
 H   -0.7384071204    1.9177687121    0.7320232926
 H    0.8438899709   -1.0122756618   -1.8442614609
 H    2.0878778025   -0.5436827149   -0.6236899813
 H    1.5096173270   -0.5119031197    1.6312116435
 H   -0.1713365508   -0.9564629948    2.1145669216
 H   -2.0713747687   -0.5531573237    0.4333775900
 H   -1.6278779386   -0.5775284820   -1.2960253068
 H    0.6381204995   -4.1332649245    0.2565689774