17

 O    0.0661577033    1.1270476856   -0.7132040044
 C    0.0589854853   -0.2050401846   -0.2460062971
 C   -1.3435377097   -0.5840821043    0.2241464177
 N   -2.3223359601   -0.4145284759   -0.8972236404
 C   -2.6148482032   -1.8728929477   -0.9400118421
 C   -2.1150441498   -2.5215731830   -2.1523316536
 N   -1.6509629154   -3.0600805328   -3.0644486238
 C   -1.6906540687   -2.1013012505    0.3185665646
 O   -0.6941487515   -3.0705052939    0.2787821080
 H   -0.6152499606    1.1609355420   -1.3978382134
 H    0.3986175398   -0.9010984331   -1.0300266300
 H    0.7705253901   -0.2675605724    0.5827303065
 H   -1.5955052283   -0.0024794372    1.1165222199
 H   -3.1406582887    0.1274690063   -0.6479625818
 H   -3.6636011577   -2.1480039531   -0.7943799601
 H   -2.2975762595   -2.3252874862    1.1982537520
 H   -0.2602120454   -3.0563308391   -0.5831021919