17

 N   -0.4383333706   -1.1681109471   -0.1210693160
 C   -0.2044702697   -0.0352815818   -0.0640647177
 C    0.0076951969    1.3807394872    0.0092104108
 C    0.4822906570    2.0850878714    1.2749543750
 C    1.2770455981    1.2742041724    2.3058045278
 C    2.6558700410    1.0589027393    1.6693155024
 C    2.8166364262    0.1589400430    0.5003840529
 N    2.6612739478    1.6107680316    0.2945134029
 C    1.3402216294    2.1541172966    0.0431429649
 H   -0.7588158036    1.9215612526   -0.5403444608
 H   -0.1164436948    2.9196695476    1.6217107461
 H    1.3755547059    1.8568243489    3.2251955617
 H    0.7830736692    0.3334926059    2.5697418224
 H    3.5264101936    1.2947620051    2.2758558470
 H    3.8071571752   -0.2104031590    0.2486879643
 H    2.0110099019   -0.5114675689    0.2322955200
 H    1.3529194763    3.0279364153   -0.5984988336