20

 C   -0.1137075748    1.5388374509    0.0818441033
 C    0.0279690934    0.0353561609   -0.0193762672
 C    0.6402654229   -0.7340372611   -1.1608714899
 C    1.3458954328   -0.7327007219    0.1758489017
 C    2.6345722760   -0.0053720068   -0.0442844338
 O    3.5572543785    0.0771623104    0.7264669590
 C    2.6222001686    0.5519689682   -1.4748434990
 N    1.4954618578   -0.0922982491   -2.1327466047
 C    0.8480807359    0.6427755062   -3.2002739729
 H    0.6994960942    2.0808450895   -0.4029320681
 H   -1.0496832594    1.8645924120   -0.3846784588
 H   -0.1389919099    1.8532562106    1.1307552091
 H   -0.7939872725   -0.4977647236    0.4557654558
 H    0.1266504456   -1.6204621946   -1.5242911641
 H    1.3628152159   -1.5717851532    0.8597455584
 H    2.5432797836    1.6518620948   -1.4276286525
 H    3.5765736785    0.3278002916   -1.9684699103
 H    1.5760639199    0.8685567528   -3.9868870920
 H    0.0614170979    0.0240600462   -3.6438641173
 H    0.3908823950    1.5953378561   -2.8787603165