16

 C    0.2307260756    0.9325236887    0.4162170383
 O   -0.2423632074    0.0630884995   -0.6091446982
 C   -1.4468119324   -0.5973033762   -0.3339879062
 C   -1.1601756173   -2.1202529979   -0.0703290959
 N   -0.3503803505   -2.7407251639   -1.1229183033
 C   -0.4368099834   -2.2560154686    1.2153004258
 N    0.1350527061   -2.3114131173    2.2166697690
 C   -2.4555417840   -2.8165492634    0.0323319932
 N   -3.5014153083   -3.3035812565    0.0713110958
 H    1.1588959924    1.3702710840    0.0441273675
 H   -0.4909006080    1.7368761624    0.6100743561
 H    0.4349728586    0.3950301095    1.3484684343
 H   -1.9850224356   -0.1584701019    0.5146783279
 H   -2.0888235147   -0.5456405813   -1.2215987624
 H   -0.9124743120   -2.8311368873   -1.9650121285
 H    0.4091652209   -2.0957013398   -1.3317371034