19

 C    0.0452139412    1.4988243260   -0.2093504077
 N    0.0459587302    0.0524422951    0.0157809429
 C    0.5620549184   -0.7331410050   -1.1037098354
 C    2.0322603579   -0.6627986507   -1.2178701372
 N    3.1851089761   -0.5885918663   -1.2721470884
 C    0.0610909906   -2.1994641616   -0.9750147485
 O    0.1491361337   -2.6652903133    0.3549066288
 C   -1.3781950307   -2.3090427551   -1.5009569074
 O   -1.4935634156   -1.9212770622   -2.8599409090
 H    1.0347687537    1.9089259309   -0.4628458073
 H   -0.6449024512    1.7388151253   -1.0242471586
 H   -0.3147141748    1.9983511938    0.6939103073
 H    0.6050812254   -0.1588253229    0.8362359689
 H    0.1362427056   -0.3383770919   -2.0331364838
 H    0.7133134446   -2.8511579226   -1.5672502459
 H   -0.4555649902   -2.1204846914    0.8747647902
 H   -1.7365847063   -3.3321338308   -1.3263256201
 H   -2.0168826457   -1.6230961774   -0.9332818378
 H   -1.0827978729   -2.6016815699   -3.4034483408