15

 O   -0.0275829373    1.4031583994    0.1255435697
 C    0.0350386432    0.0011776078    0.0213398846
 C   -1.3772958351   -0.6190485014   -0.2106691476
 C   -1.2129327216   -0.1997289200   -1.7081411458
 C    0.2493168964   -0.5987972300   -1.4036788939
 O    0.1834780280   -2.0082169511   -1.1455533473
 C   -0.9912010901   -2.0972243339   -0.2957607694
 H    0.8671431896    1.7479430254    0.0415260526
 H    0.6497605968   -0.4474624656    0.8136759391
 H   -2.2362851796   -0.3412749499    0.3982449170
 H   -1.7393858870   -0.7795130613   -2.4694668671
 H   -1.3432886527    0.8709103980   -1.8519158719
 H    1.1022239287   -0.3770381582   -2.0449137124
 H   -0.7193046010   -2.5398256724    0.6694201151
 H   -1.7550650483   -2.7224023867   -0.7728544526