20

 C   -0.4821188966    1.6509798328    0.3059709503
 C   -0.0805116127    0.1997491744    0.1840611961
 O    0.8970989649   -0.0416611197   -0.8775484184
 C    1.7536092691   -0.7927752788   -0.0046592070
 C    2.8793066400    0.0455320842    0.6329581441
 N    1.9239925132    0.5311462403    1.6766826490
 C    0.8831393319   -0.4305397189    1.2235708069
 C    0.3564498085   -1.3745532885    2.2749509626
 O   -0.5210327864   -2.3010626618    1.6585488697
 H    0.3783546619    2.2630576529    0.5834837696
 H   -0.8893550603    2.0068575488   -0.6456651352
 H   -1.2597701320    1.7669294806    1.0695965638
 H   -0.9524982693   -0.4455602021    0.0233447716
 H    1.9714252112   -1.7972130649   -0.3737360929
 H    3.6968271241   -0.5720764821    1.0264773873
 H    3.2942458564    0.8399491804    0.0052030833
 H    2.2411052808    0.3670261916    2.6257596722
 H    1.2061098699   -1.8859708607    2.7586059146
 H   -0.1572195144   -0.7878333175    3.0567128578
 H   -0.8946706904   -2.8662144610    2.3407351045