17

 N    0.2980929540   -1.1458355804    0.3444790691
 C    0.1208303199   -0.0106130516    0.2217977124
 C   -0.1247725020    1.4420478037    0.0637752702
 C   -0.7622089101    2.0528652080    1.3271277949
 C    0.4744957287    2.3470256095    2.1632022306
 C    0.4182245871    2.9391583009    3.5168421104
 N    0.8353024876    1.5365073028    3.3334370511
 C    1.5808953271    2.6112359109    1.1453365714
 O    1.0808984447    2.1596563492   -0.1259217310
 H   -0.7379048774    1.5811430719   -0.8315542820
 H   -1.2732587461    2.9782121145    1.0424875245
 H   -1.4789510628    1.3931392860    1.8206019778
 H    1.2052548778    3.6093577996    3.8531713869
 H   -0.5611859343    3.1485834611    3.9411420619
 H    0.0806705555    0.9021102201    3.5842468447
 H    1.8173723496    3.6755404389    1.0397429859
 H    2.4884753606    2.0638191749    1.4193356412