19

 O   -0.3451474400    0.1016835834   -0.0604588410
 C   -0.1422142058    1.2844416323   -0.1444974005
 C    1.2200328202    1.9407801631   -0.0136398220
 C    1.4824056338    2.8788583562   -1.2321947242
 C    2.0109737225    4.2016259473   -0.6504792647
 C    1.3004285056    4.3061822462    0.7046129143
 C    1.3771332455    2.8643651363    1.2561264203
 C    0.3800965676    2.6235095076    2.3670311443
 O    0.6758495437    2.3766110769    3.5067343493
 H   -0.9772542552    1.9919450236   -0.3653852373
 H    1.9457605554    1.1276086565    0.0463963618
 H    2.1634082727    2.4194360399   -1.9519503423
 H    0.5397049264    3.0636400864   -1.7632282481
 H    3.0944056279    4.1436976987   -0.4950723760
 H    1.8188081224    5.0574797573   -1.3031685299
 H    1.7527037335    5.0304141825    1.3869301038
 H    0.2520053663    4.6002643449    0.5601157837
 H    2.3690346478    2.6915690027    1.6830225458
 H   -0.6892773502    2.7263766083    2.0663151027