18

 O    0.2320669281    1.4179229487    0.2553340245
 C    0.0508724914    0.0216124150    0.2527385295
 C   -1.4200928805   -0.4086983904    0.1112739223
 N   -2.1837794917   -0.1871208591    1.3332012187
 C   -3.5797251839   -0.5397397894    1.1304266121
 C   -4.1533881684    0.4590226807    0.1434133119
 O   -3.3759713898    0.5569640120   -1.0669443447
 C   -2.0510282123    0.3244697439   -1.0754531633
 O   -1.4024027692    0.6443996591   -2.0405034202
 H    0.0555075020    1.7107424910   -0.6470779681
 H    0.6291853983   -0.4631423380   -0.5445315121
 H    0.4295947707   -0.3499476456    1.2121997146
 H   -1.4252738356   -1.4781296534   -0.1910991679
 H   -1.7766048851   -0.7209833276    2.0929871839
 H   -3.7201660269   -1.5686131102    0.7477652270
 H   -4.1277586284   -0.4559077365    2.0741140804
 H   -5.1607930101    0.1821790562   -0.1765224059
 H   -4.1810967087    1.4558291536    0.5955531573