11

 N    0.0040148268    1.3483668166    0.0093362280
 N    1.2936734890    1.8356278602   -0.0000268050
 C    2.0984530639    0.7853011491   -0.0137824529
 C    1.3419235321   -0.4182988883   -0.0128231872
 C    0.0182412129    0.0009325688    0.0024673450
 N   -0.7149889470   -1.1278186378    0.0030155263
 N    0.1503191598   -2.2187171690   -0.0114248203
 N    1.3657443858   -1.7871894083   -0.0208659279
 H   -0.7595205753    1.9998884299    0.0222700070
 H    3.1670121364    0.9345080909   -0.0234687448
 H   -1.7065244844   -1.2928172021    0.0121735218