15

 O    0.0095269214   -0.0063109388    0.1067963600
 C    0.0184425733    1.1804466071   -0.0136567982
 O   -1.1366200158    1.9246813393   -0.1266464806
 C   -0.8848939892    3.2711467559   -0.6156204107
 C    0.6086417398    3.4818580585   -0.5134532576
 C    1.2507055619    3.3151660895    0.8413151743
 C    1.1650936280    2.1437290927   -0.0840243512
 O    2.1985437663    2.1197282232   -1.0663226141
 C    1.6616864369    3.3596044671   -1.6263714235
 H   -1.2361860502    3.3319923651   -1.6510543390
 H   -1.4795392977    3.9508482308   -0.0002475999
 H    2.2370096253    3.7299184077    1.0193163895
 H    0.5781787118    3.3214560453    1.6921597341
 H    1.2244237495    3.1808892020   -2.6147624495
 H    2.4252739088    4.1413196245   -1.6866453034