17

 O   -0.0339291914    1.3853444502    0.0014089944
 C   -0.0437894501    0.0023526710   -0.0238131864
 C   -0.4599669698   -0.7362682262    1.2094954559
 O   -1.0280965595    0.1073459984    2.1794303348
 C   -2.4443868009    0.1928775998    1.9243824098
 C   -2.6057533097    0.0708896950    0.3993712992
 C   -1.3862692680   -0.7711052750   -0.0056036726
 C   -1.5339886759   -1.9352742773   -0.8175697952
 C   -1.6444780851   -2.9133548177   -1.5107041494
 H   -0.2088904558    1.6346735208    0.9211246488
 H    0.7300344652   -0.4243171389   -0.6541897798
 H    0.0540475090   -1.6133649568    1.5888780439
 H   -2.9564364726   -0.6293223739    2.4424881234
 H   -2.7936795296    1.1422563456    2.3379964148
 H   -3.5360465688   -0.4262346070    0.1210048994
 H   -2.5708797027    1.0509180307   -0.0849312680
 H   -1.7458627744   -3.7741672387   -2.1236648330