17

 C   -0.0055872015    1.5703100942    0.0199438692
 C    0.0884223417    0.0601282333    0.0903220231
 C    1.3335206607   -0.7481616848   -0.2363998276
 C    2.5548667435   -0.0958286140    0.3405456800
 O    3.6512482704    0.1190466489   -0.0919883857
 C    1.9544915061   -0.0108795679    1.7653067662
 C    0.7032058057   -0.7278155238    1.2129279330
 C    0.0336967636   -1.7924588340    1.8767302598
 C   -0.5301556258   -2.6850190828    2.4547902718
 H    0.8945141191    2.0696411094    0.3850358734
 H   -0.1582595106    1.8870982909   -1.0167442383
 H   -0.8553869080    1.9299459379    0.6092992005
 H   -0.7950874289   -0.4393709360   -0.3018570170
 H    1.3193463058   -1.5326991875   -0.9832694886
 H    2.5323417680   -0.6420648258    2.4456345783
 H    1.8142584970    0.9730346656    2.2192669881
 H   -1.0273570468   -3.4745104835    2.9616598139