17

 C    0.0167032556    1.5574284911    0.0478067801
 C   -0.0444877108    0.0342922399    0.1806200033
 C   -1.4629867041   -0.5087135931   -0.0852302195
 O   -1.9166651000   -0.1210240533   -1.3540499055
 C   -1.5218401563   -2.0335502672    0.0364451030
 C   -1.1295278081   -2.6776069177    1.3460038981
 O   -1.8809629059   -2.6844872735   -0.9231834144
 H    1.0369678431    1.9226812665    0.1981875764
 H   -0.3198123839    1.8652397190   -0.9447536885
 H   -0.6277052892    2.0434018010    0.7888948650
 H    0.6414776583   -0.4315715851   -0.5377618509
 H    0.2791209537   -0.2687506747    1.1835915395
 H   -2.1356006553   -0.1014938089    0.6923265679
 H   -2.1125657476   -0.9539085842   -1.8148251340
 H   -1.4916634370   -2.1004508540    2.2017673862
 H   -1.5162224616   -3.6968503377    1.3843161800
 H   -0.0365271810   -2.7161785581    1.4200424633