19

 O    0.2909077334    1.2756584278   -0.3562784551
 C    0.0635438971   -0.0803572032   -0.0367596554
 C    0.2723200084   -0.4732798463    1.4529933638
 C   -1.2593171611   -0.5851512522    1.6245917774
 O   -1.6312842651   -1.7268267795    2.3663999819
 C   -1.9777728353    0.6702163356    2.0643261706
 C   -2.6632044537    1.2449608569    1.0717645515
 C   -2.5005280037    0.5297158787   -0.2540154221
 C   -1.4410661803   -0.5333206538    0.0640527517
 H   -0.1349500385    1.8152295438    0.3198592603
 H    0.6576408232   -0.6488286121   -0.7548131642
 H    0.7432792211   -1.4532887021    1.5667222848
 H    0.8032123528    0.2529387156    2.0753489702
 H   -2.5915345288   -1.7263556681    2.4488694887
 H   -1.9487502076    1.0092354445    3.0952001076
 H   -3.2759675059    2.1349571752    1.1778298520
 H   -3.4522548518    0.1072180959   -0.6007469536
 H   -2.1523638063    1.2111270614   -1.0388536563
 H   -1.6131625677   -1.5055831882   -0.4001293635