19

 C   -0.0348253037    1.5351136781   -0.0495616468
 C   -0.0414228976    0.0795212772   -0.0365908828
 C   -0.0523189787   -1.1248553592   -0.0219032356
 C   -0.0691532667   -2.5738655788   -0.0006541660
 C    0.3951122988   -3.3336091083    1.3083576656
 C   -0.9787501595   -4.0266648936    1.3429298017
 C   -1.3291311424   -5.3684857447    1.8967179138
 O   -1.9485495442   -2.9702609596    1.4469283690
 C   -1.4343289230   -3.2859779550    0.1532178257
 H    0.6377028766    1.9370376545    0.7166275350
 H    0.2970895590    1.9258542815   -1.0180485377
 H   -1.0347596591    1.9385341728    0.1453921530
 H    0.4657281693   -2.9792743307   -0.8665743100
 H    1.2332751502   -4.0079307442    1.1184097978
 H    0.6103043372   -2.7021985608    2.1719714155
 H   -1.2469700833   -5.3706862977    2.9896316087
 H   -2.3562077798   -5.6340985288    1.6328445021
 H   -0.6544503991   -6.1383499551    1.5084169033
 H   -2.1506383540   -3.5310909577   -0.6236384924