14

 O   -0.0239267574   -0.0021871564   -0.1216323171
 C   -0.0375193103    1.1973469786   -0.0420032209
 C   -1.2470765308    2.1023935607    0.0054053880
 C   -1.3731029199    2.9732146087    1.2418209300
 C   -0.7263002978    3.5170950528   -0.0201921783
 C    0.7550462437    3.4014330537   -0.0380322899
 C    1.1625573860    2.1164425640   -0.0025650897
 C    2.4983224437    1.6446105198    0.0694119730
 N    3.5835974516    1.2459698519    0.1285942892
 H   -2.1449303166    1.7886004427   -0.5099170520
 H   -2.3709519861    3.3227011586    1.4840016029
 H   -0.7351212167    2.7718663852    2.0952236966
 H   -1.2163114688    4.3136806395   -0.5655985074
 H    1.4142447494    4.2613178802   -0.0349013444