14

 O    0.0019053438    0.0790922692   -0.0455696942
 C    0.0059619005    1.2703655302    0.0557439816
 C   -1.0462116831    2.3349593534   -0.0052072068
 C   -0.4058998461    3.5597930624    0.6209477946
 N    0.8517702136    3.1131027723    1.2615936695
 C    1.1046051220    2.3523804794   -0.0095004459
 C    0.0073227905    3.2231605419   -0.7859925521
 C   -0.0928945670    3.8085809600   -2.0615505349
 C   -0.1491806757    4.3168811495   -3.1519138411
 H   -2.1043611018    2.2576020902   -0.2109480970
 H   -1.0056668462    4.3842958629    0.9849087106
 H    1.4814026105    3.9151596515    1.2674925309
 H    2.1264434999    2.1395392194   -0.3081456793
 H   -0.2027107910    4.7627975676   -4.1142022460