20

 C    0.2278637531    1.4936129785   -0.0443335143
 C    0.0327812191   -0.0244089338    0.0446368827
 C    0.7249486350   -0.6022881831    1.2848676210
 C   -1.4679387029   -0.4103033596    0.0446439011
 C   -2.2056258971   -0.0479543179   -1.2033110466
 C   -3.1550880932    0.9045854518   -1.5010357164
 N   -3.4951576607    0.8121882004   -2.8177370760
 N   -2.8109030314   -0.1479901077   -3.3659032032
 N   -2.0297397379   -0.6713792125   -2.3976077855
 H    1.2912094238    1.7478632634   -0.0932568724
 H   -0.2615887426    1.9128274744   -0.9278290292
 H   -0.1922639312    1.9905475634    0.8385629788
 H    0.4931551328   -0.4794500413   -0.8442762839
 H    0.2905701477   -0.1883364603    2.2025702047
 H    0.6255420660   -1.6920329903    1.3312969473
 H    1.7925259414   -0.3615607547    1.2864217393
 H   -1.5575574291   -1.4899876986    0.2224300205
 H   -1.9630494580    0.0810418747    0.8899382311
 H   -3.6062146685    1.6354688555   -0.8491110721
 H   -1.4207452663   -1.4418813824   -2.6233420970