16

 C    0.0170348766    1.4724117171   -0.1925532544
 O    1.3821475552    1.8631773559    0.0835869104
 C    2.0059799874    0.9554292543    1.0202368616
 C    1.1162644153   -0.2612684548    1.0393829064
 O    0.1393043405   -0.4961729551    2.1054017079
 C   -0.4679359657   -1.1077905761    0.9340723138
 C    0.8802872893   -1.6387011847    0.3308538836
 N    0.5909114058   -1.0423433860   -1.0176912128
 C    0.0500748350   -0.0222065739   -0.0550577213
 H   -0.6737550343    1.9066102832    0.5431265594
 H   -0.2280019267    1.8475085086   -1.1884400810
 H    3.0239481671    0.7649049880    0.6684735379
 H    2.0525218734    1.3972801115    2.0235628408
 H   -1.4382579669   -1.5925106942    1.0326691844
 H    1.3704087948   -2.6024224962    0.4756625676
 H    1.4615922134   -0.6991917376   -1.4324891544