21

 C    0.1141649271    1.5647866098   -0.0051527874
 C    0.0025132893    0.0404395984   -0.0170345358
 C    0.4515818677   -0.5449577065   -1.3778517745
 C    0.5197568457   -2.0630936611   -1.3598739175
 N    1.8603028824   -2.6550881450   -1.2044967647
 C    0.9047991455   -2.7297293368   -0.0824693343
 C    1.1447103815   -1.8888006575    1.1409321379
 C    2.1183632207   -0.7610367280    1.1177227401
 N    0.6826667008   -0.4910593383    1.1711605297
 H    1.1570891679    1.8762923782   -0.1308394930
 H   -0.4696702790    2.0046277980   -0.8202309093
 H   -0.2481700922    1.9683216871    0.9437008643
 H   -1.0538665399   -0.2303713985    0.1215899485
 H   -0.2567339619   -0.2083480388   -2.1421303314
 H    1.4301250871   -0.1424911456   -1.6610794282
 H   -0.1863329470   -2.5882071489   -1.9981986605
 H    1.9060551477   -3.5538362409   -1.6773459955
 H    0.4601457965   -3.6995055844    0.1255676902
 H    0.9826626962   -2.4140446691    2.0799543735
 H    2.6722863294   -0.5033680647    2.0166713803
 H    2.6609144144   -0.6134087176    0.1886557477