17

 C   -0.0317833855    1.2117593003   -0.6044499112
 N    0.0639841830   -0.1456209337   -0.1372364239
 C   -0.9818745001   -1.0409190521    0.3852223165
 C    0.1711779185   -1.9781567613    0.8662256078
 O    0.2378111105   -2.3074191411    2.2259772340
 C    0.3424895177   -3.2315115818    0.0143182612
 O   -0.1419531146   -3.3863590216   -1.0752929872
 C    1.1011166752   -0.8267477483    0.4470583029
 N    2.3278962762   -0.6692934919    0.7230936526
 H    0.9537651271    1.5440867139   -0.9422412126
 H   -0.7195778049    1.2736990869   -1.4539083701
 H   -0.3816623051    1.9003332309    0.1781960721
 H   -1.5493218567   -0.6231701042    1.2239130875
 H   -1.6420607763   -1.4556485651   -0.3798904368
 H    1.0654301750   -1.9379229899    2.5611181801
 H    0.9694155231   -4.0038270803    0.5091710584
 H    2.6883300871    0.2423718893    0.4402895787