16

 C    0.1370255648    1.3589540189   -0.1156143959
 O    0.0320590515   -0.0589906034    0.0009252608
 C    0.5264990147   -0.5856786808    1.1183326170
 N    1.1233205732    0.1388321547    2.0746663404
 N    1.5226801748   -0.8799693611    2.8950679592
 C    1.7024300871   -1.3150945624    4.2983104052
 C    1.3460144052   -2.7655317395    3.7681163121
 C    1.0770843798   -2.0538832705    2.4514957962
 N    0.4383634119   -1.9490019191    1.3056102734
 H    1.1843597007    1.6751381301   -0.0879282863
 H   -0.3114850643    1.6117079539   -1.0768412316
 H   -0.4004837610    1.8584139702    0.6967894501
 H    2.7077047221   -1.1522503265    4.6925229559
 H    0.9532035004   -0.9027650582    4.9783380232
 H    2.1683940986   -3.4830226908    3.7752104609
 H    0.4669199306   -3.2083984557    4.2395246596