19

 C   -0.1605869359    1.5971754039   -0.0009963236
 C   -0.0329853719    0.0829580477    0.0005382065
 C    1.1868436059   -0.5915768351   -0.6617767640
 C    2.1350393680   -0.3000389848    0.5546261295
 C    2.5799470221   -1.7706509772    0.6576855054
 C    1.0930854528   -1.8492843910    0.2681333630
 C    0.7105239574   -0.6126761379    1.1754109622
 C    0.3648593212   -0.6368758837    2.5640075971
 C    0.0603291334   -0.6435570922    3.7289315424
 H    0.7917659500    2.0845512489    0.2313858254
 H   -0.4919361417    1.9605340286   -0.9799794095
 H   -0.8946048375    1.9276704345    0.7416067453
 H   -0.9915047989   -0.3926867762   -0.2429562477
 H    1.4842960027   -0.5990828039   -1.7109265649
 H    2.7161272122    0.6050398516    0.7315228696
 H    3.2994806252   -2.1156159607   -0.0912644155
 H    2.8488813211   -2.1348110017    1.6533170962
 H    0.4572325919   -2.7214573301    0.1089911680
 H   -0.2053404179   -0.6519868106    4.7568285644