16

 N    0.3835739095    1.0345779683    0.3471945266
 C    0.2292019217   -0.1512150802   -0.0401087925
 C   -0.8182106593   -1.1304861642    0.4406065735
 O   -0.7497330642   -2.1960158681   -0.5018300575
 C    0.5368335602   -2.1484852619   -1.0762387085
 O    0.9698227605   -0.7941781362   -0.9987841045
 C    1.5009141920   -3.0689075553   -0.3505354870
 C    2.8983598992   -2.7000976561   -0.1037515503
 O    1.9177821464   -2.6299796833    0.9383494935
 H    1.1723345804    1.4789494814   -0.1236739481
 H   -0.5862339353   -1.4685472950    1.4575358349
 H   -1.8202954579   -0.6980022408    0.4200145805
 H    0.4548467044   -2.4317721861   -2.1318046016
 H    1.2262972553   -4.1223280979   -0.4141776642
 H    3.6427571455   -3.4852553446    0.0127382342
 H    3.2637390916   -1.7394610900   -0.4567401990