20

 N    0.0101105236   -1.1321004567    0.0674539328
 C   -0.0206346979    0.0247612821    0.0682144089
 C   -0.0438108731    1.4777435229    0.0581910484
 C   -0.3573734942    2.1547187932   -1.3145948194
 C    0.8562109381    3.1007734559   -1.1077857599
 C    1.3520379261    2.2152872596    0.0750838151
 C    1.5279429596    2.8458276280    1.4733308942
 C    0.3607600882    2.2814546567    2.3158624036
 C   -0.7704476805    2.0580049658    1.2985440642
 H   -0.2153080765    1.4662119009   -2.1494995181
 H   -1.3475177093    2.6079277827   -1.3997858546
 H    1.5363887612    3.1956491534   -1.9561267758
 H    0.5706355733    4.1059927335   -0.7859043159
 H    2.1832734137    1.5690215180   -0.2095954862
 H    2.5006535397    2.6167221486    1.9162041383
 H    1.4567930565    3.9371468885    1.4055345863
 H    0.6490628172    1.3201539461    2.7565223174
 H    0.0672454945    2.9400942923    3.1378440737
 H   -1.2261414463    3.0164281188    1.0246502055
 H   -1.5671111341    1.4062048497    1.6638042816