19

 C   -0.2565396128    1.4661813541    0.0227105308
 C    0.1112557574   -0.0144883386    0.0540306471
 C    0.8598536180   -0.5179959219   -1.1997603215
 C    1.4847437415   -1.8604799352   -0.7712081582
 C    1.6502866933   -1.7271240090    0.7294874770
 C    1.0613268049   -0.4174847239    1.2026116061
 N    2.1592400138   -2.5665300628    1.5380995071
 O    2.6284531519   -3.7065342621    0.8518282432
 H    0.6402169592    2.0894959644   -0.0751608754
 H   -0.9140972982    1.6937752031   -0.8230368706
 H   -0.7752837110    1.7701923285    0.9380077525
 H   -0.8096716288   -0.6058288887    0.1568717955
 H    0.2086629635   -0.6074552349   -2.0737296710
 H    1.6503994273    0.1983174084   -1.4580573759
 H    0.8214485890   -2.7086129017   -0.9820251001
 H    2.4343341835   -2.0902397356   -1.2628708425
 H    1.8587624626    0.3345686990    1.2952594526
 H    0.5800334036   -0.5002506782    2.1797731456
 H    2.9705324712   -4.2467549950    1.5716334978