14

 O   -0.7532054542    0.9657574431    0.6775596587
 C    0.1703286364    0.8431966519   -0.0866345534
 C    1.3709076134    1.7398702236   -0.0915478783
 C    1.5435866292    2.8059568199    1.0101643134
 O    1.7582257625    3.8596968108    0.0368961488
 C    1.5519819499    2.9696574758   -1.0639009949
 C    2.8730346989    2.2685657464   -1.5011724073
 O    3.8032170557    2.5307911991   -2.2040298538
 N    2.5923875779    1.1882501748   -0.6695952738
 H    0.1937050722    0.0523044040   -0.8674774615
 H    0.6229041268    2.9744266693    1.5753770212
 H    2.3953439423    2.6730935818    1.6838208910
 H    0.8387212471    3.3276965700   -1.8073656507
 H    3.2407087617    0.5250576395   -0.2638902494