19

 C    0.0135177379    1.6084363138   -0.1836042377
 C    0.0183450026    0.1247728790   -0.0153993008
 C    0.0810445957   -1.0318461725   -0.9500274176
 O    1.1789795303   -1.6849377255   -0.3168877663
 C    0.8431403422   -0.9066570915    0.8657153733
 C   -0.4924408216   -1.5372771480    1.3483644741
 C   -1.0353814924   -0.9219718498    2.6237812955
 O   -0.1659271057   -1.2980967245    3.6847802862
 C   -1.0777960349   -0.9436807698    0.0670235973
 H    1.0038573953    1.9812569467   -0.4683328796
 H   -0.6912558549    1.9019121694   -0.9694451939
 H   -0.2872840515    2.1223279833    0.7364670908
 H   -0.0420446148   -1.1174021154   -2.0221957542
 H    1.6817868705   -0.7270524744    1.5340066975
 H   -0.4628229449   -2.6286890199    1.4379502512
 H   -1.0885663951    0.1740648892    2.5200130441
 H   -2.0607681157   -1.2823062077    2.8028820502
 H   -0.5279102402   -0.9566811347    4.5074993772
 H   -2.1147604629   -0.8674119376   -0.2389869275