17

 N    0.0307105363   -1.1559160625    0.0660013147
 C   -0.0065816877   -0.0003658936    0.0381111371
 C   -0.0966396639    1.4354667277   -0.0064042104
 C   -1.1222813861    2.2580952871    0.7817737385
 C   -0.6501670551    3.3942093733   -0.1605768780
 C    0.8030909798    3.5388559221    0.3327155955
 N    1.2952137156    2.1733832911   -0.0384661775
 C    1.1149213926    2.2547363482   -1.5441616807
 C   -0.3837027691    2.2949548868   -1.2837191434
 H   -2.1289418832    1.9003367622    0.5520031041
 H   -0.9969336902    2.3803968646    1.8605293796
 H   -1.2564937514    4.2784513993   -0.3441709467
 H    1.3988376061    4.2970413493   -0.1798638182
 H    0.8742780161    3.7044252007    1.4103086927
 H    1.6212567451    3.0993046329   -2.0188458828
 H    1.4348573027    1.3181971218   -2.0075736123
 H   -1.1754269575    2.0694341991   -1.9971415724