25

 C    0.2066504750    1.2662935691   -0.4934030785
 O    0.0726677562   -0.0970100458   -0.1664943298
 C   -1.2659820847   -0.5599423272    0.0226501635
 C   -2.0214579052   -0.6949277974   -1.3007445823
 C   -1.1110425023   -1.9199049675    0.7315408788
 O   -0.2960009686   -2.7627327983   -0.0768300045
 C   -0.5638694243   -1.8220967707    2.1744337664
 C   -1.4949982090   -1.0263135326    3.1012848637
 C   -0.3184014300   -3.2256990718    2.7452917593
 H    1.2759368248    1.4929314692   -0.4965402653
 H   -0.2023308567    1.5057932770   -1.4848612430
 H   -0.2888993431    1.9096034748    0.2497625700
 H   -1.7999705065    0.1450533628    0.6761407883
 H   -1.5402306778   -1.4474051233   -1.9297381001
 H   -3.0529717491   -1.0096072590   -1.1121529486
 H   -2.0608889738    0.2534086861   -1.8436935265
 H   -2.0967141146   -2.4034055451    0.7658507627
 H    0.4749160813   -2.2289319003   -0.3087052989
 H    0.3983014856   -1.2967687113    2.1143344295
 H   -2.5026330326   -1.4604584762    3.1144540881
 H   -1.1181213146   -1.0478763768    4.1289009411
 H   -1.5863503737    0.0243186055    2.8116321878
 H    0.3190177225   -3.8122765643    2.0817328692
 H    0.1561755374   -3.1665197593    3.7302077545
 H   -1.2646604361   -3.7681580274    2.8658769545