19

 C   -0.0214119618    1.5187732501   -0.1436766760
 C   -0.0512271576    0.0267491315   -0.0139513212
 O    0.2471587927   -0.7162282744   -1.2163125631
 C   -0.3449957572   -1.8436951387   -0.5243071584
 C    0.6443159938   -2.2071384901    0.6028717994
 C   -0.2348056936   -2.6523072463    1.8000633045
 C   -0.7160714636   -1.1878993947    1.7853170047
 C    0.6531949290   -0.7346101335    1.1705712264
 C   -1.2478362656   -0.9021632738    0.3504971263
 H    0.9891521722    1.8594348766   -0.3947143510
 H   -0.7029184492    1.8556611343   -0.9302917758
 H   -0.3151195303    1.9913869660    0.7989813045
 H   -0.7199584279   -2.6218754747   -1.1879872905
 H    1.5529402808   -2.7325672975    0.3125521557
 H   -0.9667526458   -3.4505287475    1.6324136734
 H    0.3582869810   -2.8828897320    2.6897803124
 H   -1.2019281533   -0.7038118544    2.6309269881
 H    1.5056167235   -0.3631633585    1.7355518752
 H   -2.2863573370   -0.7218490023    0.0797262455