21

 C    0.0149111324    1.5227349979    0.0992783372
 C    0.0148797222    0.0072730637   -0.0304660497
 C    0.6561207353   -0.4919097511   -1.3284788564
 C    0.5560885619   -2.0221502790   -1.4193490835
 C    0.8813607472   -2.7040806841   -0.1018143001
 O    0.2973442301   -3.9724309971    0.0598935408
 C    2.1900294441   -2.4687464332    0.6207826686
 C    0.8960875058   -1.8784695593    1.1504598717
 O    0.7374717940   -0.4919260330    1.0972377731
 H    1.0367134170    1.9111825807    0.0438585488
 H   -0.5753362065    1.9772677479   -0.7019808779
 H   -0.4117444002    1.8219284696    1.0602658657
 H   -1.0234913953   -0.3640311289    0.0137348756
 H    0.1595117743   -0.0363043960   -2.1919434113
 H    1.7014756600   -0.1593743417   -1.3471778505
 H   -0.4768094847   -2.2998949100   -1.6614495997
 H    1.1881339554   -2.4101030126   -2.2285586026
 H    0.8030320959   -4.5973304309   -0.4721250440
 H    2.6171561552   -3.3113115417    1.1533213127
 H    2.9025310696   -1.7685695586    0.1977652050
 H    0.4628385062   -2.3312279826    2.0389200667