19

 O   -0.1480211851    1.4098598727    0.6996757925
 C   -0.0930132576    0.1321592232    0.1065102438
 C    0.4931016019   -1.0196182013    0.9739923115
 C   -0.9143304520   -1.6885430294    1.0246438658
 C   -1.7354090999   -1.3602494346    2.2415319986
 C   -2.6820294278   -0.4493616954    1.9973403627
 C   -2.7009997024    0.0041242866    0.5547132901
 C   -1.4453154722   -0.6705421141   -0.0335093908
 O   -1.6181592728   -1.2568493511   -1.3050978790
 H   -0.4650641241    1.3029612354    1.6036005176
 H    0.3995095747    0.2681704029   -0.8604544079
 H    1.2439512201   -1.6151764367    0.4493948357
 H    0.9100094981   -0.6995504807    1.9335714617
 H   -0.9478486774   -2.7447246407    0.7436843223
 H   -1.5558047775   -1.8243664223    3.2062413676
 H   -3.3880250292   -0.0776004478    2.7329805607
 H   -3.6001363072   -0.3460858985    0.0308660051
 H   -2.6644739862    1.0952342172    0.4547046867
 H   -1.7773781732   -0.5486997453   -1.9393655550