21

 C    0.1066933933    1.3271764980   -0.0427845725
 O   -0.0587656750   -0.0505463140    0.2104166853
 C   -1.3650383046   -0.5534023406    0.0615293718
 C   -2.3423572965    0.0291101249    1.0826762555
 C   -1.9708865791   -0.5980812417   -1.4020297926
 C   -1.9882745112   -2.1233056694   -1.2757861090
 O   -0.6254622849   -2.5210641476   -1.0923601495
 C   -1.3638477932   -2.1022729083    0.0614350869
 C   -1.4106998280   -3.0274950175    1.2342868146
 H    1.1817430370    1.5227597606   -0.0286866674
 H   -0.2882474024    1.6150511424   -1.0281748942
 H   -0.3710672706    1.9599550438    0.7189765912
 H   -2.5298782021    1.0907683045    0.8965370592
 H   -3.3061895107   -0.4870521550    1.0354792576
 H   -1.9414878469   -0.0768512889    2.0956802199
 H   -2.9546954772   -0.1284082994   -1.4754264539
 H   -1.3182569049   -0.2322572784   -2.1972852626
 H   -2.6654350894   -2.8433909200   -1.7215737638
 H   -0.4627353846   -2.9975007618    1.7824007091
 H   -2.2112539248   -2.7532779436    1.9280171078
 H   -1.5763517143   -4.0539492980    0.8967411965