22

 C    1.6295565643   -4.0621642632    1.6075890069
 C    1.0593671430   -2.8625943989    0.8813782180
 N    0.3832430776   -1.7488930845    1.5537785026
 C    0.2352563850   -1.7277186060    3.0008481361
 C    1.6781437370   -1.4948542852    0.9046761323
 C    2.9387548712   -1.2110690521    1.7031510730
 C    1.5504423584   -0.6246830905   -0.3476385606
 C    1.2849866169    0.8215429521    0.0095895366
 O    1.9444887344    1.7603988343   -0.3593800415
 H    2.1851840576   -3.8072701908    2.5111429416
 H    0.8280786851   -4.7525631221    1.8930804834
 H    2.3095274024   -4.6067859123    0.9439121428
 H    0.5603225486   -3.1459040217   -0.0473067719
 H    1.0720137644   -2.1445203859    3.5778234628
 H    0.0885012824   -0.6922813734    3.3248037304
 H   -0.6661255455   -2.2895555385    3.2666410055
 H    3.8230412769   -1.4142085482    1.0896955151
 H    2.9848866765   -0.1561503563    1.9959795391
 H    3.0206972182   -1.8106996934    2.6097032296
 H    2.4482824405   -0.6788995566   -0.9712924400
 H    0.6915016799   -0.9795660814   -0.9302922746
 H    0.4013390751    0.9628029848    0.6719853127