19

 O    0.1994703484    1.3845897279    0.0076308483
 C    0.1308179317   -0.0315356649    0.0008121021
 C   -1.3401423647   -0.4250312168    0.0125171317
 C   -1.5348104367   -1.9392941480    0.0066325654
 C   -3.0127532940   -2.3385502062    0.0184542320
 O   -3.9182531772   -1.5448458209    0.0316828527
 N   -3.1866280072   -3.7258702220    0.0121716063
 C   -4.3656093197   -4.4684800015    0.0194594550
 N   -5.5307542169   -3.9724288775    0.0348270810
 H    1.1256316185    1.6426441383   -0.0005771760
 H    0.6238210384   -0.4510623369   -0.8928112696
 H    0.6404159319   -0.4603927911    0.8805988728
 H   -1.8222927497    0.0078691989    0.8939165142
 H   -1.8386150134    0.0167928127   -0.8552718213
 H   -1.0601703125   -2.3892955228   -0.8770076923
 H   -1.0438836945   -2.3981936424    0.8766955177
 H   -2.3407920026   -4.2735746179    0.0005526807
 H   -4.1329378625   -5.5419075525    0.0101221942
 H   -6.2195278575   -4.7233644565    0.0370625451