19

 C   -0.2022373839    1.4480154239    0.0454331513
 C    0.1773851872   -0.0083678463    0.0452256077
 C    0.3523172487   -0.7437890917   -1.2887654112
 C    1.2858062191   -1.8856929732   -0.9489635927
 C    1.6696549520   -1.8556978939    0.3282144564
 C    1.0221089483   -0.7096047149    1.0401689815
 C    1.5993733150   -0.1485005143    2.3097868289
 O    1.5025623449   -1.0899246647    3.3683492709
 O   -0.4359341551   -0.8310814649    1.0506515393
 H    0.5290789018    2.0415189491   -0.5129769748
 H   -1.1786302010    1.5840671160   -0.4330684257
 H   -0.2712342308    1.8396733066    1.0622017733
 H   -0.6126349971   -1.0960227765   -1.6736580252
 H    0.7764192625   -0.0807721746   -2.0543071231
 H    1.5648366350   -2.6420435484   -1.6738102711
 H    2.3271357181   -2.5572519112    0.8254718656
 H    2.6675492143    0.0564755408    2.1810037945
 H    1.1008671771    0.7963939812    2.5665879302
 H    0.5707824637   -1.3283409028    3.4374162943