15

 N    0.0440531492   -1.1006341237   -0.0395408970
 C    0.0558581750    0.0551669580   -0.0070986802
 C    0.0241200549    1.4870536792    0.0746936356
 O    0.3444503464    2.2327782562   -1.1134605117
 C    1.1862016436    2.3890674853    0.0370027205
 C    0.7264271065    3.4485361515    1.0779380874
 C   -0.7491695575    3.7045434618    0.6777933629
 C   -0.8527021890    2.2295310257    1.1376494426
 N    0.1583291564    2.5994037181    2.1898686594
 H    2.2162597192    2.0673231145   -0.0741759625
 H    1.4289075259    4.2359090118    1.3462964449
 H   -1.2374318921    4.3651602709    1.3911708469
 H   -0.9804198828    3.9519315962   -0.3539227825
 H   -1.7751718374    1.7464999170    1.4540621815
 H    0.7656843016    1.8201187274    2.4535587622