19

 C    0.1255989949    1.2433971753    0.3087795637
 O   -0.0215569249   -0.0688655202   -0.2153807720
 C   -1.2874467633   -0.5548584429   -0.1370733474
 C   -2.2055703820   -0.9344309640    1.0169150752
 C   -3.3680518798   -0.1309100319    0.4457904230
 C   -2.6487439353   -0.2462599098   -0.9274283800
 C   -2.7193423886   -1.7648914584   -1.2739904497
 C   -1.7776122747   -1.9623917806   -0.0907753235
 O   -1.0230650652   -3.0713548134    0.2209797556
 H    1.1816819809    1.5047585483    0.2166258497
 H   -0.4749990603    1.9703077071   -0.2551612349
 H   -0.1708388648    1.2825829309    1.3651786663
 H   -1.9352390662   -1.1392437512    2.0455994455
 H   -4.3773648592   -0.5548903506    0.5053071856
 H   -3.3827869065    0.8960172873    0.8232410082
 H   -2.7892602561    0.4987210139   -1.7071831507
 H   -3.7110554086   -2.2327244143   -1.2539389934
 H   -2.2153027085   -1.9939636818   -2.2168617854
 H   -1.5735499718   -3.6837339838    0.7215769941