15

 O    1.1546711519    0.1966692439    0.1619519095
 C    0.5524961986    1.2271144038    0.0778802920
 O   -0.8081518303    1.3091279111    0.2939765367
 C   -1.2528037589    2.6542663876    0.1254027906
 C   -1.9566518480    3.1203872319    1.4184928656
 C   -2.5065324317    4.4619657652    1.2846299469
 C   -2.9468159333    5.5700123250    1.1345890592
 C   -0.0112203607    3.4268401278   -0.2216428784
 C    1.0272129178    2.5946182652   -0.2472964570
 H   -1.9778473097    2.6783310685   -0.6985511845
 H   -2.7509485028    2.4018028114    1.6487937548
 H   -1.2367770068    3.0767928464    2.2439448278
 H   -3.3462183629    6.5477733627    1.0226651754
 H   -0.0253918444    4.4930189626   -0.4027516756
 H    2.0657899113    2.8048540068   -0.4551111732