17

 C    0.0293541296    1.4136977324    0.0492213743
 N    0.0225970143   -0.0342173003    0.0131338313
 N   -0.1742793616   -0.7126778434   -1.1086654419
 C   -0.1611651275   -1.9871172110   -0.7107749423
 C    0.0497983662   -2.0289816470    0.6770258280
 N    0.1575860697   -0.7674366936    1.1125413276
 C    0.1475434170   -3.1844440356    1.5886939043
 C    1.1789829146   -3.2004451537    2.6666494848
 N   -0.2381421399   -3.0333211136    3.0044904316
 H    0.8946676686    1.7597574300    0.6175099897
 H    0.0857333095    1.7672948391   -0.9790484692
 H   -0.8834071030    1.7890452285    0.5208199355
 H   -0.2943340603   -2.7917281155   -1.4160714283
 H   -0.1529456206   -4.1300817919    1.1456822909
 H    1.6194045678   -4.1444944387    2.9758489662
 H    1.8350690802   -2.3369155730    2.7280422283
 H   -0.4257816845   -2.0466928726    3.1740105691