23

 C    0.0317369588    1.5160926517    0.0574588547
 C   -0.0562636847   -0.0131173557   -0.0267117520
 C   -1.4737354392   -0.5281079071   -0.0365831030
 C   -2.6006771069   -0.2416745460   -1.0662248255
 C   -2.4330903377   -0.6947072692   -2.5097965341
 C   -3.2485487332   -1.1916155270   -0.0385989282
 C   -1.9359040504   -2.0245801139    0.1646618013
 C   -1.9974465022   -1.8784890521    1.6976982713
 C   -2.4988522956   -0.5244684730    1.1625300774
 H    1.0730064513    1.8525895166    0.0547369752
 H   -0.4739393569    1.9899980002   -0.7903994214
 H   -0.4388842038    1.8887162268    0.9733187951
 H    0.4562237937   -0.3606925453   -0.9339397392
 H    0.4851876733   -0.4607858625    0.8171524802
 H   -2.9892413012    0.7850842333   -1.0255451244
 H   -2.0445170417   -1.7167798214   -2.5715393657
 H   -3.3900147092   -0.6712963173   -3.0433816597
 H   -1.7404762319   -0.0422496316   -3.0536549090
 H   -4.2657419998   -1.5882039429   -0.0118023101
 H   -1.6141742956   -2.8857667667   -0.4231743872
 H   -2.7311642814   -2.5017095574    2.2196333350
 H   -1.0453133319   -1.8809732183    2.2383215169
 H   -2.8370478039    0.3561360389    1.7127482924