16

 N   -0.0708873978   -1.1414954407   -0.3158056288
 C   -0.1191006494    0.0060373909   -0.1887162982
 C   -0.1217071895    1.4367199620   -0.0335299883
 N   -1.1389116108    2.1660726780   -0.3084200636
 C   -0.7256899741    3.5401344493   -0.0213433844
 C   -1.0633247359    4.0579486259    1.4112686696
 C    0.4601289947    4.2023587882    1.7147044943
 C    0.7969427493    3.4992637539    0.3756124510
 N    1.0170716768    2.0519053536    0.4704831239
 H   -1.0288760154    4.2074500275   -0.8303857790
 H   -1.6467975908    4.9798278800    1.4508573304
 H   -1.5701314548    3.2992348296    2.0105724145
 H    0.7979375106    5.2418803786    1.7320868220
 H    0.8290510090    3.6970105650    2.6095362191
 H    1.5433278611    3.9769867209   -0.2649147508
 H    1.9206260969    1.6578720574    0.2543713284