17

 N   -0.0292129914    1.3244366628   -0.0656016147
 C    0.0429650537    0.0727659373    0.0868992133
 N   -0.9541568222   -0.8340352799   -0.2393852770
 C   -0.7135364600   -2.1095787610    0.3796796089
 C   -1.5516445326   -2.5542510868    1.6126147545
 O   -1.8590934078   -3.8124816919    0.9851762402
 C   -1.2832426596   -3.3918439642   -0.2658322666
 C    0.8122278071   -2.0273557901    0.5416087363
 O    1.1061582707   -0.6274382669    0.5924336692
 H    0.8429023134    1.7675836790    0.2131140713
 H   -1.8881895311   -0.4624103359   -0.3169673344
 H   -1.0191973324   -2.6789709150    2.5629114132
 H   -2.4487068127   -1.9413378170    1.7790066219
 H   -2.0427315209   -3.1985304753   -1.0351080711
 H   -0.5545126508   -4.1141632512   -0.6539287919
 H    1.1785539096   -2.4993002974    1.4557363896
 H    1.3196347270   -2.4732160067   -0.3230820328