16

 C    0.0363787073    1.4468231872   -0.0103420186
 C   -0.0635745950   -0.0448043369    0.0098372115
 N   -1.1914924758   -0.6517983780   -0.0374669906
 C   -1.1545177736   -2.0441727159   -0.0150870869
 N   -2.3996859743   -2.6091784304   -0.0184344106
 C    0.0130388850   -2.7435341622    0.0421908198
 C    1.2631029184   -2.0497914744    0.0987940225
 N    2.4183340007   -2.5706434332    0.1584580921
 O    1.1423917789   -0.6327230760    0.0812581724
 H    0.6363870021    1.7724790013   -0.8659885403
 H   -0.9604520847    1.8811820853   -0.0697552074
 H    0.5430361403    1.8012134965    0.8929275948
 H   -3.1486739759   -2.0072239572   -0.3202760981
 H   -2.4840922085   -3.5831020898   -0.2573638310
 H    0.0461734827   -3.8245131376    0.0543993840
 H    3.1399617223   -1.8518333186    0.1872063765