21

 C    0.0105677473    1.5939097741    0.0511889497
 C    0.0085489744    0.0740469095   -0.0132825342
 C    0.7136099080   -0.6574752899   -1.2153230995
 C    1.2518713628   -1.7255911542   -0.2113621485
 C    2.7154236432   -2.1364998282   -0.1115293104
 O    2.9777658526   -2.5181385490    1.2362241794
 C    2.8678497222   -1.4671155250    2.1844986146
 C    1.7178768229   -0.5199957858    1.9335229325
 C    0.9453661894   -0.7211140228    0.8755325569
 H    1.0291854450    1.9862074080   -0.0362449228
 H   -0.5910851059    2.0227950684   -0.7574623434
 H   -0.4060383934    1.9511552075    0.9991936867
 H   -1.0188913659   -0.3031661640    0.0764934364
 H    0.0792411463   -1.0054117729   -2.0337925036
 H    1.5240475494   -0.0448986896   -1.6230170409
 H    0.6026097778   -2.6078096259   -0.1815424937
 H    2.9714235941   -3.0081864811   -0.7207461988
 H    3.3635274498   -1.2982709322   -0.4160561405
 H    2.7774212301   -1.9616806529    3.1596685696
 H    3.8055814448   -0.8813789080    2.2135444423
 H    1.6266846950    0.3430201943    2.5881210281