20

 C   -0.1988614614    1.5664296464    0.0525753568
 C   -0.0347868012    0.0722562513    0.0129441578
 C   -0.0110898004   -0.6210393198   -1.1256810818
 C    0.1134199959   -2.1282212052   -1.1965580680
 C    1.3758650010   -2.7152758305   -0.6040249888
 N    2.1741386230   -3.3847092960   -1.3239090051
 O    1.5511472629   -2.6339359844    0.7546338254
 C    1.4566041245   -1.3932098706    1.4646666450
 C    0.1298247274   -0.6395027723    1.3421228002
 H    0.6580062297    2.0485645275    0.5414073584
 H   -0.3014623156    1.9902870347   -0.9496489472
 H   -1.0852911689    1.8485780928    0.6358390424
 H   -0.1092591014   -0.0991975515   -2.0736951416
 H   -0.7363532429   -2.5913231828   -0.6727979437
 H    0.0790677822   -2.4637253049   -2.2328434180
 H    2.9465615898   -3.7261958786   -0.7463835445
 H    1.6241033558   -1.6815348536    2.5062775204
 H    2.2833960124   -0.7391815794    1.1554778068
 H    0.0926803845    0.0857724965    2.1626551942
 H   -0.6940166474   -1.3456745596    1.5152301314