18

 O   -0.2310552025   -0.0384979969   -0.2859222156
 C   -0.0878485769    1.1705684322   -0.2967179980
 C    1.1434404904    1.8647182989    0.0173441896
 C    1.1547788949    3.2205759623   -0.0315474507
 N    2.2424500719    3.9964119047    0.2225690794
 C    3.4243850517    3.4294725522    0.8122916481
 C    3.3386020320    2.7537050153    2.1681827055
 C    3.5079007021    1.9313342538    0.9112391215
 C    2.3752959248    1.0710359434    0.3666005321
 H   -0.9414582534    1.8430134372   -0.5540518625
 H    0.2542726618    3.7647871408   -0.3035972094
 H    2.0731130534    4.9720732311    0.4118598408
 H    4.3230313282    3.9850400268    0.5664232881
 H    4.1766484840    2.8496190926    2.8497426039
 H    2.3631835326    2.7417438080    2.6440112623
 H    4.4985695927    1.5152294675    0.7568034555
 H    2.1122249473    0.2724154810    1.0707245131
 H    2.7333828852    0.5537510891   -0.5330590435