15

 O    0.0531201469   -0.0086338924    0.0739580287
 C    0.1230595926    1.1680970019    0.2568997634
 O    0.8579520218    1.9844118190   -0.5305351068
 C    0.8853377071    3.3621717654   -0.2437521031
 C    0.1969447969    4.1863508400    0.8672074360
 N    0.9820347981    5.2372200499    0.0674095981
 C    2.1297592290    4.2098501498    0.0590996553
 C    0.4704406415    4.5020294805   -1.1858157050
 H   -0.3928959853    1.7084435720    1.0710236803
 H   -0.8855176698    4.3246760236    0.8187215139
 H    0.5489484752    4.0720888974    1.8949461309
 H    2.6149108969    4.0905450694    1.0301803443
 H    2.8513545117    4.3683858617   -0.7443751519
 H    1.0780136481    4.6806446100   -2.0748357619
 H   -0.5937246506    4.6555221619   -1.3771167421