20

 C   -0.0108853208    1.3867631929    0.0295691593
 O   -0.0232956247   -0.0210603865   -0.0063175469
 C    0.6385834383   -0.5474922784   -1.1340957080
 C    0.5579417064   -2.0749478444   -1.0635551086
 C   -0.8935525355   -2.5645787397   -1.1231205104
 C    1.4198555869   -2.6858686121   -2.1918005342
 O    2.7664750178   -2.2426958995   -2.1825970244
 C    1.3676625566   -4.1630873701   -2.1599296063
 N    1.3585037406   -5.3173877022   -2.1052904010
 H    1.0155647859    1.7848640250    0.0569217764
 H   -0.5238314539    1.8218887066   -0.8425380090
 H   -0.5344759786    1.6946763474    0.9376127438
 H    0.1618275746   -0.1900793495   -2.0655274534
 H    1.6880577145   -0.2203527679   -1.1587295049
 H    0.9980725285   -2.3836197655   -0.1052889576
 H   -1.3497096245   -2.3174758516   -2.0893741378
 H   -0.9605087985   -3.6464421305   -0.9833012630
 H   -1.4759266947   -2.0736083478   -0.3416503133
 H    1.0196649023   -2.3613463136   -3.1602165727
 H    3.1833291987   -2.5640162128   -1.3742781682