20

 C    0.0067111648    1.3777540924    0.0607972466
 O   -0.0389357576   -0.0368969600   -0.0170046686
 C   -1.3117073735   -0.5618899096    0.0393137637
 C   -2.3746517998   -0.5128622069    1.1366751334
 N   -3.0370876892   -1.4133338825    0.0989696910
 C   -2.4446072436   -0.5639974741   -1.0467453593
 C   -1.8960425236   -1.8047472769   -1.7529680787
 C   -1.6535289673   -2.0514061593   -0.2549670792
 C   -1.1484291798   -3.2829027337    0.4343131876
 H    1.0578025715    1.6683518006    0.0071284585
 H   -0.5374770434    1.8454955082   -0.7716483274
 H   -0.4166972545    1.7452613478    1.0057443697
 H   -2.1695358667   -1.0106167623    2.0893341204
 H   -2.9183827631    0.4229685299    1.2995771745
 H   -3.0100173430    0.2811941706   -1.4415143272
 H   -2.6350588219   -2.4533126647   -2.2315707595
 H   -1.0091522614   -1.6676503660   -2.3752643567
 H   -0.1213131681   -3.4972495415    0.1213616246
 H   -1.1513430896   -3.1644191310    1.5226709528
 H   -1.7724842202   -4.1463794008    0.1833415635