19

 C    0.0158925615    1.5494625905    0.0837138069
 C   -0.0059826959    0.0532712161   -0.0058236327
 C    1.0887381599   -0.8441941402   -0.5053384226
 C    0.5825191096   -1.7867004138   -1.5905625262
 C   -0.8456214657   -2.0695879039   -1.1273056396
 O   -0.7860847292   -2.9624892755    0.0231668285
 C   -0.7612486385   -1.8084098673    0.8859051433
 C    0.5720151758   -1.0319898210    0.9182146770
 C   -1.2501906078   -0.8527460319   -0.2156826315
 H    1.0060358206    1.9086968683    0.3832141480
 H   -0.2245959460    2.0105595255   -0.8821647075
 H   -0.7082404454    1.9227220802    0.8169915693
 H    2.0913850710   -0.4340318544   -0.5762779398
 H    0.5998687529   -1.2865400631   -2.5672663588
 H    1.1460856623   -2.7210205281   -1.6679656117
 H   -1.5335061349   -2.4405851936   -1.8900882922
 H   -1.2600733113   -1.9671952088    1.8437524446
 H    1.2359829103   -0.9277518717    1.7688039155
 H   -2.2573282194   -0.4455504874   -0.2596532207