16

 C    0.7302288636    1.4331315628   -0.0144715365
 N    0.8996734161    0.0016573994   -0.1850155694
 C    0.2075819748   -0.6603968363   -1.1567083425
 N   -0.5000422121   -0.0546442983   -2.0300560329
 C    0.4361207099   -2.1614733063   -1.1188211194
 C    1.8150715467   -2.7085391772   -1.1055792328
 O    1.0159668289   -2.7058444318    0.0741024490
 C   -0.6160127303   -2.9654720524   -1.7131534514
 N   -1.4504773556   -3.5986663912   -2.2003253295
 H    0.9488872490    1.9416630217   -0.9559457538
 H   -0.2945964509    1.6981169757    0.2744822385
 H    1.4245809811    1.7807639671    0.7531614763
 H    1.1482365074   -0.5499044813    0.6213870972
 H   -0.9051767228   -0.7035970005   -2.7017598407
 H    2.0007036549   -3.6875070152   -1.5408151073
 H    2.6384233594   -1.9987313463   -1.1163348250