21

 C   -0.2043680891    1.5961427927    0.0581478550
 C    0.0080055572    0.0854205162   -0.0025431033
 C   -1.2756249174   -0.6497013303    0.3997255584
 C    0.6033585572   -0.5496940921   -1.2751794934
 C    2.1199392112   -0.4264511417   -1.3398567862
 C    2.8405974584    0.5895491969   -0.4681514821
 O    2.3340422857    0.3811965310    0.8553495359
 C    1.2424657237   -0.5252597938    0.7644813278
 C    1.5045943678   -1.4552833444   -0.4449735070
 H    0.6983766096    2.1583237178   -0.1829103737
 H   -0.9884842330    1.8982895434   -0.6462218154
 H   -0.5258493308    1.9028643024    1.0599874424
 H   -2.0910804793   -0.4255901107   -0.2973638087
 H   -1.1323100130   -1.7349865797    0.4066200767
 H   -1.6008669057   -0.3429136905    1.4002700521
 H    0.0382376421   -0.8099357488   -2.1648640148
 H    2.5853920865   -0.7417250543   -2.2668979557
 H    3.9235159230    0.4069072069   -0.4666482918
 H    2.6749078171    1.6287594690   -0.7791087121
 H    1.0568899037   -0.9414197442    1.7551029862
 H    1.6781067250   -2.5220266758   -0.4674630403