13

 N   -0.1553905063    1.4118093259   -0.0057835471
 C   -0.0732110746    0.1643206613   -0.1187121299
 O    1.1806847675   -0.4300557176   -0.3055781004
 C    1.4905635978   -1.6063994023   -0.8896059983
 N    0.7926341836   -2.4851863931   -1.4789357130
 C   -0.5851564530   -2.5220924709   -1.5669301574
 C   -1.5179926216   -1.8318335144   -0.8792256208
 C   -1.3239842953   -0.7029762100    0.0313982645
 O   -2.1731636784   -0.3515098854    0.8198082935
 H    0.7559434336    1.8558868220   -0.1337196632
 H    2.5670024130   -1.7431692386   -0.8155475218
 H   -0.9317999603   -3.3005871852   -2.2421834531
 H   -2.5589480063   -2.1168357117   -0.9945578331