20

 C    0.0799981614    1.4509782594   -0.0133181385
 C    0.0441516912   -0.0040389144   -0.0228552899
 C    0.0241100572   -1.2073283463   -0.0345759284
 C   -0.0378078600   -2.6644370342   -0.0143221299
 C   -1.4695907325   -3.1968780321   -0.1218683357
 O    0.7511854296   -3.1454465513   -1.1348342211
 C    1.3379427442   -4.3533193974   -1.0077596531
 C    2.1335169660   -4.6642411703   -2.2506489583
 N    1.1947521189   -5.0642340384    0.0356660756
 H    0.6037092396    1.8358848873   -0.8952862799
 H   -0.9300804245    1.8751576495   -0.0174856237
 H    0.5986679158    1.8327892985    0.8729132769
 H    0.4215805498   -3.0536941160    0.8995392740
 H   -2.0721375303   -2.8083441748    0.7036931533
 H   -1.9222891326   -2.8772557738   -1.0639707193
 H   -1.4588916478   -4.2873214848   -0.0689714613
 H    2.8934905742   -3.8939281281   -2.4120438554
 H    2.6186245972   -5.6384621750   -2.1721166525
 H    1.4778658863   -4.6589295198   -3.1266019220
 H    1.7218979163   -5.9298986777   -0.0451879608