15

 C    0.0503922706    1.4281818355    0.0475981921
 N    0.0658636245   -0.0253398898    0.0246194502
 C    0.6122276775   -0.6443628608   -0.9155270339
 O    1.2295248642   -0.0516562412   -2.0235841506
 C    1.4988860384   -0.9856461675   -3.0111807950
 O    1.8434996529   -0.6697109841   -4.1062783738
 C    1.2435245834   -2.3494351497   -2.4377351557
 N    2.0921848808   -2.5637778373   -1.2381824246
 C    0.6872331584   -2.1221284939   -1.0814596944
 H    0.6319399800    1.7694310205    0.9109946062
 H    0.4499870043    1.8976682411   -0.8567929248
 H   -0.9796730597    1.7633235802    0.2059999678
 H    0.9831171445   -3.1667123925   -3.0964986510
 H    2.1331359106   -3.5663309462   -1.0604996849
 H   -0.0472097602   -2.7552928243   -0.6027976677