22

 C   -0.0582215584    1.5092287888    0.0984604025
 C    0.0145473479    0.0019892670    0.0366695942
 C    0.8789856260   -0.7779380668   -0.9784759096
 N    0.8619120960   -1.9261863083   -0.0140916892
 C    0.7536738135   -0.9050065445    1.1153268216
 C   -0.2368311893   -1.8163039443    1.8318725709
 C   -0.6315704774   -2.1557603929    0.3720415952
 C   -1.2496861367   -3.4663625181   -0.0355232809
 C   -1.2851643679   -0.8240050232   -0.0747658108
 H    0.9398777138    1.9538903539    0.1793667636
 H   -0.5322647812    1.9194387760   -0.8010486843
 H   -0.6444341565    1.8456708094    0.9612366533
 H    0.4743240977   -0.9715265921   -1.9787351424
 H    1.9075056990   -0.4114447996   -1.0634762096
 H    1.6787992654   -0.5292270299    1.5568681240
 H    0.2831597289   -2.6424235143    2.3231715191
 H   -0.9988100744   -1.3917316054    2.4900412120
 H   -2.2678649596   -3.5559885310    0.3604609072
 H   -1.3072634667   -3.5477651419   -1.1267808423
 H   -0.6585126907   -4.3084352165    0.3352820599
 H   -2.0825036639   -0.5050794441    0.6034198853
 H   -1.6847369655   -0.8392376822   -1.0939276696