18

 C   -0.0719802587    1.4852870082   -0.0705533587
 C   -0.0414673908   -0.0162794766   -0.0507286039
 C   -0.8676022751   -0.7812841527    0.9325633932
 C   -1.7198970360   -1.9751888160    0.6974419126
 O   -1.6977494702   -2.7212511074   -0.2602776109
 N    0.6362317277   -0.8207659212    1.0357649855
 C    1.1430424044   -1.7808446416   -0.0118913969
 C    0.5840252442   -0.8900303412   -1.1586392044
 O   -0.1809676491   -1.4155630033   -2.1928427009
 H    0.8896372611    1.8855842292   -0.4080297994
 H   -0.8459630260    1.8397885279   -0.7599959314
 H   -0.2812976260    1.8948183932    0.9218419941
 H   -1.2552539325   -0.1730257396    1.7469286856
 H   -2.4343746834   -2.1729244508    1.5234012078
 H    2.2323034113   -1.8222123696    0.0445820913
 H    0.7390789412   -2.7923077083    0.0578625370
 H    1.3934053810   -0.3215275301   -1.6278160172
 H   -0.8284268432   -2.0093546899   -1.7807794336