21

 C    0.0025768767    1.4673345599   -0.0792983371
 C    0.1703797704   -0.0393409219    0.0219664359
 O    0.5895199539   -0.5305223211   -1.2339250056
 C    0.7720183802   -1.9277346369   -1.2519853731
 C    1.2866271104   -2.3124216005   -2.6253631661
 O    2.6907524017   -2.0162304737   -2.8225102044
 C    3.0263667320   -3.4122422896   -2.9405680812
 C    1.5365872061   -3.8174648286   -2.8707499375
 O    1.1256028955   -4.6344701763   -1.7997074202
 H    0.9476961946    1.9385262148   -0.3633457408
 H   -0.7463144788    1.7201077163   -0.8353476200
 H   -0.3190096635    1.8814075073    0.8810963984
 H    0.9128522720   -0.2948585171    0.7970928287
 H   -0.7795538627   -0.5164206969    0.3199117117
 H    1.4878858909   -2.2461299512   -0.4791586682
 H   -0.1771479297   -2.4556376707   -1.0592693602
 H    0.6745385260   -1.8091232337   -3.3834778207
 H    3.5596722461   -3.6318662097   -3.8735230495
 H    3.6125219944   -3.7772014301   -2.0865619573
 H    1.1308170434   -4.1756167281   -3.8246738783
 H    1.3068131407   -5.5519339320   -2.0246754645