19

 C   -0.1061706075    1.5848141091    0.2173910804
 C   -0.0615384997    0.0636547537    0.0481205606
 C    0.7060352140   -0.4116365226   -1.1919559489
 O    0.0060785759    0.0982825460   -2.3303043553
 C    2.1781838406   -0.0205077402   -1.2274497998
 C    2.9843210681   -1.0726550074   -1.3991179251
 C    2.1893987707   -2.3377271634   -1.4259265532
 O    1.4619247492   -2.5772471148   -0.1942413810
 C    0.7805781635   -1.9464190814   -1.2758868675
 H    0.8876597543    2.0022564222    0.4095514299
 H   -0.5077262375    2.0617889983   -0.6802622126
 H   -0.7436483930    1.8571669820    1.0637865284
 H    0.3883242885   -0.4148334987    0.9228413577
 H   -1.0845295459   -0.3218909829   -0.0401753671
 H    0.5667590708   -0.0391713742   -3.1016465421
 H    2.4973754309    1.0090797995   -1.1160875354
 H    4.0652474059   -1.0436492094   -1.4657791954
 H    2.5267868539   -3.2320538818   -1.9400699133
 H   -0.0590843626   -2.4855390739   -1.7082169104