15

 C    0.0238774704    1.4945724479   -0.1926893492
 N    0.1850718449    0.0634027231    0.0236923024
 C    0.6188499478   -0.7585903119   -0.9695279751
 C    0.6054646514   -2.1278247579   -1.1540263934
 N    1.2481515372   -2.4183202261   -2.3232796293
 C    1.6268234724   -1.2762238421   -2.8181766162
 O    1.2569130515   -0.2020516176   -2.0131409691
 C    2.3454542577   -0.9424853411   -4.0387449796
 O    2.7401168429   -1.7458513218   -4.8529116616
 H    0.9656435525    1.9208870230   -0.5439939886
 H   -0.7579736482    1.7324928474   -0.9267121856
 H   -0.2309365410    1.9617853910    0.7601271562
 H   -0.4655460081   -0.3668280510    0.6614379718
 H    0.1785891479   -2.8872024808   -0.5188035555
 H    2.5028949905    0.1514596277   -4.1565994072