17

 C    0.0197733488    1.4048621140   -0.0435486387
 O   -0.0009964678   -0.0127042951   -0.0025304917
 C    0.5839042538   -0.6638377373   -1.0231352127
 C    0.6954991064   -2.0261881912   -1.1978735414
 C    1.3910200718   -2.1405904988   -2.4246977358
 O    1.7192469510   -3.3165150383   -2.9856493588
 C    2.4192761960   -3.2362742619   -4.2224043143
 N    1.6921452140   -0.9738478647   -2.9752669724
 N    1.1786855677   -0.0637489990   -2.0850046510
 H    1.0476126394    1.7911823711   -0.0393886588
 H   -0.5121905248    1.7884857077   -0.9242451495
 H   -0.4918778859    1.7451431913    0.8570182681
 H    0.3352939471   -2.8050182383   -0.5499223924
 H    1.8228701033   -2.7160664041   -4.9794616207
 H    3.3682542414   -2.7025546488   -4.1038878534
 H    2.6028612007   -4.2667157985   -4.5304892507
 H    1.2858107269    0.9142996720   -2.2785818158