18

 N   -0.1602362135    1.5223997070    0.0017085609
 C   -0.0680193495    0.0773593048   -0.0738875290
 C   -1.4117526995   -0.6273615053   -0.0229396392
 C   -2.2398678418   -0.6639745523   -1.2973643003
 C   -1.3347831411   -1.8104855732   -0.9539112861
 N   -0.0407148516   -1.8548137482   -1.6315216810
 C    0.6217173756   -0.5677705946   -1.3617846697
 C    0.5324108339    0.3361128024   -2.5205158030
 N    0.4702692492    1.0776159868   -3.4055182555
 H    0.7589519438    1.9516207088   -0.0429702043
 H   -0.6922519249    1.8877012364   -0.7829251115
 H    0.5229358418   -0.2559074272    0.7883618027
 H   -1.9174511495   -0.6702637462    0.9339796155
 H   -3.3051998535   -0.8250256770   -1.1761093863
 H   -1.9845920649   -0.0243503333   -2.1351668193
 H   -1.7537690056   -2.7818998545   -0.7212904075
 H    0.5164600860   -2.5984362084   -1.2262773105
 H    1.6884227552   -0.7294330362   -1.1787033858