18

 O    0.0579704523    1.4649419535   -0.1424713692
 C    0.0274211148    0.0627604439   -0.0258244972
 C   -1.3577390994   -0.4734795511   -0.3893409342
 C   -1.6574754577   -1.5476581738    0.6837856724
 O   -0.8036900002   -1.2845010375    1.8112135222
 C    0.3132908460   -0.5630239037    1.3815468721
 C    1.5409523150   -1.2918309850    0.7801943630
 N    1.0579316956   -2.1094666914   -0.3577185768
 C    1.2908895622   -0.6610898658   -0.5516992691
 H    0.9232823251    1.7738811381    0.1479237725
 H   -2.0605223866    0.3611703903   -0.3241799632
 H   -1.4021538185   -0.8903175766   -1.3973595607
 H   -2.6898249512   -1.5039190586    1.0454808087
 H   -1.4567145719   -2.5498288123    0.2955889300
 H    0.6035378002    0.1664328758    2.1453610417
 H    2.4741655325   -1.5347813862    1.2741036035
 H    1.8654246098   -2.6037414269   -0.7357002923
 H    1.9822128623   -0.2933818826   -1.3012928535