21

 C    0.2867527943    1.4880581069    0.1295015728
 C   -0.0242706354   -0.0070742099    0.0034686098
 C    0.5471813456   -0.6032541495   -1.2686800620
 O    1.9944117002   -0.5129959746   -1.3326584457
 C    2.1178687804   -1.8897724138   -1.7550737566
 C    2.9349469842   -2.7481761306   -0.7768076379
 C    1.8776880149   -3.3134810692    0.1446471823
 C    0.6371893513   -2.9991417141   -0.2336171058
 C    0.6137136669   -2.1456400559   -1.4716093092
 H    1.3673966848    1.6547276234    0.1112301787
 H   -0.1542345874    2.0577441936   -0.6961455027
 H   -0.1069904159    1.8960581733    1.0651905973
 H    0.3844459390   -0.5498677569    0.8626052246
 H   -1.1104160623   -0.1712931340    0.0049614795
 H    0.1051469848   -0.1039103783   -2.1454275082
 H    2.4596666314   -1.9552330065   -2.7938457584
 H    3.4981861617   -3.5414173263   -1.2864060874
 H    3.6674624732   -2.1217842771   -0.2535371550
 H    2.1261811202   -3.9173272920    1.0110894119
 H   -0.2655059554   -3.3083833686    0.2819718117
 H   -0.0216584766   -2.5386865500   -2.2693463598