15

 N    0.0282574537    1.2425643316   -0.3934932629
 C    0.0562968140    0.0336395196    0.2051773744
 O    1.0156294221   -0.4733256084    0.7478922833
 C   -1.2763072948   -0.7478713923    0.1051869778
 O   -2.2782836595    0.0283293622   -0.5153312566
 C   -1.0325829067   -2.0335479549   -0.7295344287
 O   -2.2711450137   -2.6665185719   -0.9903273331
 C   -1.7161519797   -1.1509246928    1.4614688730
 N   -2.1228703330   -1.5159841752    2.4795912516
 H    0.8543840924    1.8169470594   -0.3662515082
 H   -0.8288648918    1.5897641343   -0.7900768993
 H   -2.9000620216   -0.6070325970   -0.9029370198
 H   -0.6259014374   -1.7336363048   -1.6993761999
 H   -0.3114700743   -2.6787213300   -0.2200466681
 H   -2.5551520995   -3.1193663898   -0.1866889636