21

 C   -0.1355348772    1.4723539347   -0.1187928932
 C    0.0564313015   -0.0444878622   -0.1204588475
 C    1.1908714203   -0.7430610572   -0.9331703819
 C    2.2213972819   -0.4206587493    0.2094754536
 C    2.8852122436    0.9333661458    0.4568603056
 C    0.9030630356   -0.8647577878    0.9257633453
 C    0.8722814846   -2.0423046042   -0.0927995962
 C   -0.3633837131   -2.8507926665   -0.3636125312
 O   -1.4216029818   -2.7562833793    0.2091673257
 H    0.7400635370    2.0380668592   -0.4352384869
 H   -0.9462811571    1.7301064244   -0.8084310809
 H   -0.4337928582    1.8341031776    0.8718203264
 H   -0.9228274831   -0.5001908650   -0.2669320393
 H    1.3641619547   -0.7047198230   -2.0113526824
 H    3.0029243554   -1.1884346871    0.2560259167
 H    2.2206976314    1.6867537629    0.8769173660
 H    3.7071610250    0.8016697905    1.1685994465
 H    3.3211950573    1.3393365005   -0.4632388047
 H    0.7251766855   -0.9442824368    1.9995993011
 H    1.7223036681   -2.7348398550   -0.0453892953
 H   -0.2225751712   -3.6153752122   -1.1647198173