17

 C   -0.4394895246    1.4751547917    0.4829925502
 O   -0.2530371678    0.0514877171    0.5577600299
 C   -0.9430673676   -0.6706136901   -0.3287630667
 O   -1.6807895279   -0.1909965613   -1.1641551516
 C   -0.7142642859   -2.1642840436   -0.1619824213
 O   -1.9124884795   -2.8001727090    0.3262906331
 C   -2.2047488807   -3.3875769577   -0.9657181413
 C   -0.8180020384   -2.9624171552   -1.5059993781
 O   -0.7206867951   -2.2976268474   -2.7213727356
 H    0.2048411414    1.8972422894    1.2532296322
 H   -0.1554414095    1.8450483371   -0.5048171419
 H   -1.4846022100    1.7312969256    0.6712184828
 H    0.1450877230   -2.3529254312    0.4870787837
 H   -2.4172755560   -4.4588189242   -0.8868591805
 H   -3.0367061068   -2.8790309814   -1.4677945417
 H   -0.1028163821   -3.7873512834   -1.5311736791
 H   -1.2635298024   -1.4978634464   -2.6477157541