21

 C   -0.0030312997    1.5978404467    0.0268140991
 C    0.0189595160    0.0582116316    0.0557337096
 C    0.8130198445   -0.4547662834    1.2716014452
 C   -1.3727609432   -0.5178573762    0.0186082532
 C   -1.9398737971   -1.3365710731   -0.9464822464
 C   -1.4061508965   -1.9097553822   -2.2191516829
 N   -3.2103377389   -1.5838252460   -0.5252234426
 N   -3.5199201460   -0.9887259682    0.6433239341
 C   -2.4077381082   -0.3433283603    0.9731769355
 H    1.0146263797    2.0029347167    0.0131152789
 H   -0.5327342188    1.9692867583   -0.8553388737
 H   -0.5100212870    1.9982640857    0.9114898503
 H    0.5465313738   -0.2791290967   -0.8458814413
 H    0.8651378581   -1.5474734057    1.2775198943
 H    1.8353846755   -0.0615041360    1.2648155510
 H    0.3400748738   -0.1399373627    2.2082181648
 H   -1.3727116246   -3.0054169917   -2.1916206631
 H   -2.0164340766   -1.6205633577   -3.0827586073
 H   -0.3899598061   -1.5546132959   -2.4012290586
 H   -3.9082634745   -2.1431396114   -0.9859012158
 H   -2.3808769540    0.2305576685    1.8887099558