16

 C    0.4593081218   -0.8370997233    1.2811085141
 C    0.0166671974   -0.0951812925    0.0182215934
 C    0.8736698684   -0.4080344601   -1.2197886932
 O    2.2684511638   -0.2025509913   -1.0428597072
 C    0.7477469936   -1.8910038426   -1.6095457547
 O   -0.2937022069   -2.4855115255   -1.6495854672
 C    0.3976201596    0.4247088032   -2.4269315536
 O   -0.7330739856    0.7829429257   -2.6077425893
 H    0.3428645842   -1.9190724804    1.1686725374
 H    1.5083304715   -0.6347143575    1.5157139121
 H   -0.1465212561   -0.5250835058    2.1362184285
 H   -1.0144371327   -0.3438673677   -0.2458329975
 H    0.0399081522    0.9896009823    0.1837621279
 H    2.4053440368    0.6760366830   -0.6729309851
 H    1.7247193731   -2.3590772140   -1.8549428088
 H    1.2302245989    0.6816636968   -3.1196991468