18

 C    0.1016871991    1.4985523596    0.0184853767
 C   -0.0211446483   -0.0225388326    0.0322508037
 C   -1.4607816342   -0.5072461924   -0.0634035939
 O    0.6564056163   -0.5920467481   -1.1133725634
 C    1.9911731070   -0.6892088708   -1.0701733254
 C    2.8071705301   -1.0963536522   -2.0802542542
 O    4.0939374622   -1.0746930543   -1.5910559234
 C    3.9690951932   -0.6528075793   -0.3250066041
 N    2.7528578440   -0.4061584138    0.0513827066
 H    1.1483851368    1.8026802177    0.0882138746
 H   -0.3274201408    1.9088510487   -0.9012783070
 H   -0.4351952391    1.9262089020    0.8712556261
 H    0.4511799945   -0.4189024457    0.9366135009
 H   -1.9296562017   -0.1429065598   -0.9829071948
 H   -1.5014640412   -1.5995832306   -0.0657748471
 H   -2.0398818259   -0.1389676248    0.7883929374
 H    2.6679440924   -1.4123989923   -3.0968017042
 H    4.8739318755   -0.5574076216    0.2541303716