21

 C   -0.1807672660    1.6132494161   -0.0403598751
 C    0.0004682960    0.0955247241   -0.0056409724
 N    0.7801396084   -0.4167970551   -1.1389560987
 C    2.1744092949    0.0166427085   -1.1094676049
 C    0.6276812163   -1.8377337729   -1.3211661298
 C    1.1346642208   -2.4938458731   -2.6495985671
 N    1.9271769683   -3.4041946498   -1.8222754739
 C    1.5924539489   -2.8548381530   -0.6067795620
 O    1.9384620781   -3.0880588528    0.5212862214
 H    0.7564570262    2.1492755296    0.1337375616
 H   -0.5822844449    1.9294166292   -1.0078840162
 H   -0.8799438063    1.9202666779    0.7435334737
 H    0.4434411553   -0.2059806995    0.9599979778
 H   -0.9877331832   -0.3750396758   -0.0562010374
 H    2.7084791709   -0.3163746020   -0.2034318015
 H    2.7077548483   -0.3747231848   -1.9799534739
 H    2.2282913883    1.1060365972   -1.1625678435
 H   -0.4132932550   -2.1073809605   -1.1239367317
 H    0.3619386469   -2.9818183328   -3.2519704520
 H    1.7263282814   -1.8287038033   -3.2850843942
 H    2.5221634964   -4.1829359374   -2.0619220703