23

 C    0.3393644519    1.4738545118   -0.5090585712
 C    0.0162031675    0.0727414709   -0.0560518214
 O    1.1082313033   -0.8417865459    0.0968979706
 C    0.3512431874   -0.4921570342    1.2634186988
 C    1.0649147642    0.2334075296    2.3751661228
 C    0.0983408406    0.8613053371    3.4141678866
 C    0.8344031283    0.7976758066    4.7849960077
 C    2.2100244631    0.1520316199    4.4938394717
 C    1.9747503203   -0.6765918266    3.2238452865
 H    1.1953220567    1.8889920607    0.0262755390
 H    0.5768099009    1.4777933808   -1.5781865710
 H   -0.5230433221    2.1321590502   -0.3566170664
 H   -0.8452523266   -0.3685183940   -0.5636721486
 H   -0.2906648931   -1.3039417510    1.6205406657
 H    1.6908608228    1.0203649636    1.9414890775
 H   -0.1805569177    1.8809638609    3.1345587591
 H   -0.8333580674    0.2851705471    3.4538679787
 H    0.9352836509    1.7840286094    5.2458869637
 H    0.2673109810    0.1810417498    5.4893902335
 H    2.9563350587    0.9292491980    4.2895893814
 H    2.5859573576   -0.4403381011    5.3327775608
 H    1.4404498659   -1.6042628595    3.4714510385
 H    2.8932044458   -0.9577279941    2.7020084661