18

 O   -0.0359082421    1.4442258933   -0.0012395207
 C    0.0531487640    0.0300562196    0.0251891325
 C    0.6673577439   -0.5653628779   -1.2550612152
 C   -0.1016951469   -0.1595029590   -2.5048640376
 C    0.0880156914    1.2601114304   -3.0859427532
 O    0.3984151985    0.7289460568   -4.3902176576
 C    0.4462537240   -0.6156571862   -3.8762965756
 C    0.7868483390   -0.4335639247    1.2210800291
 N    1.3919580186   -0.7796404284    2.1426744161
 H    0.8576708724    1.8062841066    0.0221426515
 H   -0.9831492183   -0.3157834815    0.1166195300
 H    1.7160996298   -0.2494842873   -1.3310073583
 H    0.6773275194   -1.6578338582   -1.1551598559
 H   -1.1606626447   -0.4101667363   -2.3894792467
 H   -0.7885626159    1.9152603094   -3.0997398849
 H    0.9366841447    1.8125494655   -2.6598995070
 H    1.4735580243   -1.0073284287   -3.8442770576
 H   -0.1775444422   -1.3047779535   -4.4565878190