18

 O   -0.0478496000    1.4360995085    0.0390526519
 C    0.0447932464    0.0237358999    0.0428125933
 C    0.6873224205   -0.4767806876   -1.1935744341
 N    1.2251213162   -0.8554800410   -2.1437653556
 C    0.7702208570   -0.5107589338    1.2635531104
 C    0.3705773947   -0.2649941652    2.7477606054
 C    1.6562322688   -1.1417013981    2.7880461052
 C    1.0312826313   -1.9972398483    1.6469274650
 C    2.2454143461   -0.2176699143    1.6826884864
 H    0.8486235570    1.7918681301    0.0505065772
 H   -0.9907475747   -0.3359669252    0.0521536262
 H    0.4589204233    0.7613506068    3.1111728667
 H   -0.5569474896   -0.7348148322    3.0861703379
 H    2.1723242382   -1.5077249473    3.6745522128
 H    0.1523153408   -2.5939582445    1.9053275918
 H    1.7228090858   -2.5513628959    1.0078554670
 H    3.0272082782   -0.6424772011    1.0482982777
 H    2.4780925500    0.8088659292    1.9813390150