21

 C   -0.0625790260    1.5881194648    0.1709546424
 C    0.0339449124    0.0532334532    0.0505967161
 C    0.7097364036   -0.4095244537   -1.2640517977
 C   -0.0673714692   -0.0424034164   -2.5315986506
 C    0.5931438933   -0.6198684726   -3.8007790216
 C   -0.1249027569   -0.2763611116   -5.0220669942
 C   -0.7370619087    0.0216994256   -6.0127164177
 C    0.7403608454   -0.5067934615    1.2025968518
 C    1.3422050823   -0.9582508713    2.1405535884
 H    0.9334084144    2.0399014984    0.1278134728
 H   -0.6686535155    2.0072202553   -0.6364108085
 H   -0.5202760197    1.8706364406    1.1222407720
 H   -0.9888879894   -0.3508252645    0.0565684080
 H    1.7214318288    0.0140957330   -1.3070155124
 H    0.8349659921   -1.4978211272   -1.2188177156
 H   -1.0949701782   -0.4199068522   -2.4644892865
 H   -0.1419736077    1.0440644608   -2.6427847719
 H    1.6272060860   -0.2570764859   -3.8706187381
 H    0.6624310891   -1.7120514873   -3.7119926430
 H   -1.2688480096    0.2780386288   -6.8950936643
 H    1.8621346537   -1.3622531864    2.9735079706