19

 C   -0.4419232937    1.3411631794    0.2519491874
 C    0.1530809298    0.0282057674   -0.2539098261
 O    0.8800889229    0.1923689858   -1.4665511334
 C    1.0449955357   -0.6059125583    0.7974193273
 O    0.4112954780   -1.1798186825    1.9440986355
 C    1.1492973355   -2.0478939907    1.0679696613
 C    0.3708512570   -3.1296272923    0.3502125665
 C   -0.0621353184   -4.2224136606    1.3117747847
 O    0.1366868219   -5.3971737136    1.1430269939
 H    0.3520621130    2.0558211022    0.5043248926
 H   -1.0783430749    1.7897787320   -0.5152549278
 H   -1.0366909991    1.1708694664    1.1539338634
 H   -0.6625003902   -0.6581604731   -0.5001359957
 H    1.4934142000    0.9262306899   -1.3485427363
 H    1.9251567044   -0.0007647850    1.0377254108
 H    2.0909169261   -2.3934721925    1.4992596455
 H   -0.5382056774   -2.7065096206   -0.0923293236
 H    0.9710458060   -3.5773642857   -0.4472055163
 H   -0.5976068167   -3.8485643181    2.2124652803