19

 C   -0.1521256713    1.5284722537    0.0240251627
 C   -0.0193909265   -0.0018850407    0.0110744230
 C   -1.3191282700   -0.5901532138    0.2936518056
 C   -2.4137332672   -1.0334750220    0.5226705672
 C    0.8151112204   -0.6146789827   -1.1956012169
 C    2.1025139466   -0.2102184205   -0.4113438860
 C    1.2093955039   -0.6220240973    0.7805223461
 O    1.0466410646   -2.0292514598    0.5866684895
 C    0.7628836674   -2.1027836614   -0.8358740515
 H    0.7860108360    2.0435830503   -0.1871003059
 H   -0.8867929753    1.8437266124   -0.7229034306
 H   -0.5124784204    1.8648892449    1.0007750204
 H   -3.3720127067   -1.4389867951    0.7342147119
 H    0.6243381402   -0.3269044177   -2.2289180883
 H    2.9930042657   -0.8223076404   -0.5670683945
 H    2.3539291220    0.8459896531   -0.4659728314
 H    1.4233294365   -0.4105268545    1.8272000687
 H   -0.2175107483   -2.5611071121   -0.9935114496
 H    1.5329997024   -2.6949334662   -1.3429884701