15

 O   -0.0328260565    1.4379124863   -0.1154070790
 C    0.0126232629    0.0410775963    0.0199869309
 C    0.2668982701   -0.5656946181    1.4401212257
 C   -1.1160369685   -1.2703831158    1.3691707879
 N   -2.2374022779   -0.4845403141    1.8820777277
 C   -2.4888292388    0.1876659498    0.6952352103
 O   -3.2685612000    1.0494948246    0.4051907660
 C   -1.3900525893   -0.6252653795   -0.0320430646
 H    0.8673302899    1.7775904763   -0.0850925107
 H    0.6800594051   -0.4119124203   -0.7255034539
 H    1.1202514604   -1.2471232704    1.4808529641
 H    0.3522432512    0.1726022940    2.2406998458
 H   -1.1728958928   -2.3414102445    1.5631968480
 H   -2.4408065395   -0.1909089214    2.8284035166
 H   -1.6763596062   -1.1696709633   -0.9292180348