16

 N   -0.0484294348   -1.1419389083   -0.0757159225
 C   -0.0008618426    0.0120374163   -0.0356668478
 C    0.0328194272    1.4710768023    0.0387573882
 C   -0.5046039091    2.0523997654    1.4076243654
 C    0.7742035381    2.8167272046    1.7883129643
 C    1.1713912486    3.4267207102    0.4222067735
 N    1.4359861232    1.9956050531   -0.0192389180
 C    1.8622041578    1.7762366847    1.4258463681
 H   -0.5216842531    1.8668628403   -0.8162053830
 H   -1.3714500743    2.7012751353    1.2628068729
 H   -0.7676743477    1.2702155462    2.1224303604
 H    0.7650135043    3.3805223798    2.7219609309
 H    0.4200910225    3.9636407908   -0.1650918515
 H    2.1107729930    3.9818687698    0.4336207475
 H    2.8846638818    2.1330261433    1.5593897018
 H    1.7676955049    0.7486883062    1.7864942797