16

 C    0.1446320397    1.4413904923    0.0537112678
 C   -0.0592363953   -0.0295377022    0.0202825037
 C   -1.1763681562   -0.8239011449   -0.0151746849
 N   -2.5228445418   -0.4291064238    0.0280774936
 C   -0.7083310601   -2.1733095835   -0.0130752684
 C    0.6586351467   -2.1144241508    0.0236358134
 O    1.0633007776   -0.8104655803    0.0511582819
 C    1.6439910225   -3.1153911076    0.0368981942
 C    2.4801803828   -3.9832784470    0.0477484866
 H    0.9260838410    1.7456556102   -0.6507320630
 H   -0.7773154272    1.9616734817   -0.2230943216
 H    0.4394248312    1.8006345852    1.0479114152
 H   -2.6572858189    0.5413923585   -0.2253394515
 H   -3.1139114321   -1.0064273330   -0.5567472857
 H   -1.3040569675   -3.0724646004   -0.0310219079
 H    3.2170520575   -4.7474080442    0.0584214367