19

 O    0.1252871012    1.2645259493    0.2948749402
 C    0.0135453832   -0.1252601319   -0.0009648402
 C   -1.4662634156   -0.5557625412   -0.0003176957
 O   -2.0792499438   -0.1028343683    1.1998041427
 C   -2.2049308206    0.0607002343   -1.2088219276
 O   -1.5994798758   -0.2307262671   -2.4518643337
 C   -1.5467167252   -2.0753596653    0.0306429167
 C   -2.7539724224   -2.8322632681   -0.3124273964
 O   -1.6498131328   -2.7652578495   -1.2282287886
 H   -0.0085888067    1.7546338094   -0.5226529726
 H    0.4802515188   -0.3770938199   -0.9585506517
 H    0.5416972707   -0.6469572173    0.8037661259
 H   -1.6575265937    0.7469477481    1.3932554698
 H   -3.2637046288   -0.2338592136   -1.1755632891
 H   -2.1881364994    1.1498866331   -1.0892024530
 H   -1.5986589679   -1.1956258941   -2.5226897789
 H   -0.8524518727   -2.5456413638    0.7280576808
 H   -2.9114709173   -3.8093422699    0.1394635163
 H   -3.6557824412   -2.3152394640   -0.6281993951