21

 C   -0.3228479006    1.5233709092    0.0369789306
 C    0.1532037457    0.0643795117    0.0249438102
 C    0.7848975557   -0.3673284757   -1.2798463947
 N    1.8044115517   -1.4447424081   -1.2942883384
 C    2.1920997050   -0.0668227627   -1.6645494079
 C    2.2321103224    0.1821380334   -3.1660447312
 N    0.8536598204    0.0411923413   -3.6962155986
 C    0.2692357273   -1.3069923505   -3.6302290855
 C   -0.0282051093   -0.3187515075   -2.5623541079
 H    0.5086726841    2.2094857915   -0.1528335633
 H   -1.0847654632    1.7074448950   -0.7262298926
 H   -0.7583571196    1.7797927859    1.0073903733
 H    0.8855785959   -0.0818268916    0.8293062242
 H   -0.6889395884   -0.6010102269    0.2563807241
 H    2.1032980305   -1.6330813250   -0.3390899024
 H    2.8647325966    0.4821242591   -1.0102482767
 H    2.5615259174    1.2094198946   -3.3591669217
 H    2.9160517646   -0.4952389449   -3.6875639871
 H   -0.4702740300   -1.5068477225   -4.4019185009
 H    0.9064013851   -2.1419971390   -3.3594829357
 H   -0.9928528313    0.1791968727   -2.5181787079