21

 C   -0.0044749738    1.5177898612   -0.0240041116
 C   -0.1714962963    0.0209915082   -0.2238893976
 O    0.9524173894   -0.4667459534   -0.9332168771
 C    0.9348135677   -1.8537816887   -1.1332119769
 C    0.1326959501   -2.4287757710   -2.3226092402
 C    1.2111885450   -1.9515144825   -3.3612521687
 C    1.3294383103   -3.3557750151   -3.9851998733
 C    1.1436249886   -3.6182912352   -2.4773390688
 C    2.0159422429   -2.3761764314   -2.0803491927
 H    0.9075920208    1.7292298474    0.5414554510
 H    0.0662560779    2.0277953115   -0.9889920008
 H   -0.8577578426    1.9281904367    0.5243791232
 H   -0.2547801665   -0.4921442607    0.7492317562
 H   -1.0989094629   -0.1923195651   -0.7798183024
 H    0.8189507471   -2.3865596358   -0.1749594880
 H   -0.9444277816   -2.4812974855   -2.4886099151
 H    1.2484558390   -0.9760598988   -3.8436458139
 H    0.5152381601   -3.6744555572   -4.6444506424
 H    2.2993175528   -3.6253374145   -4.4162829099
 H    1.1014629196   -4.5666351871   -1.9396419927
 H    3.0999409727   -2.3574784031   -1.9611428785