17

 C   -0.1110488841    1.2733397114    0.1595265372
 O    0.0273238378   -0.1477337700    0.0951143834
 C    0.6002840658   -0.7195500388    1.1774506469
 N    0.9846112778   -0.0492652379    2.1710917277
 N    0.6793620989   -2.1334407785    0.9873908878
 C    0.1966922078   -2.7275982932   -0.1976940887
 N    0.2562300215   -3.9808499321   -0.3904893578
 C    1.2302765909   -2.9870571279    1.9504493572
 N    1.7027503597   -2.5916330304    3.0628590328
 H    0.8658453444    1.7509845806    0.2657292182
 H   -0.5832309607    1.5610981583   -0.7806214605
 H   -0.7327196836    1.5615635829    1.0105417831
 H    1.3892682594   -0.6560822548    2.8837228519
 H   -0.2117837351   -1.9930666924   -0.8843282285
 H   -0.1402990427   -4.2124328587   -1.2982084237
 H    1.1908373292   -4.0186577479    1.6035263992
 H    2.0459310831   -3.3883576204    3.5953383037