21

 C   -0.0317701104    1.6828794990    0.0600909920
 C    1.4595619825    1.3252440579   -0.0373742799
 C    1.7563766871    0.7453144008    1.3791837505
 C    0.5755614913   -0.2639767757    1.4048762207
 C   -0.6257859935   -0.2766307404    2.3521446561
 C   -1.7863260813   -0.8227567291    1.4411883839
 C   -1.3165405852   -0.7073030761   -0.0546162156
 C   -0.0736909134    0.1352386677    0.0688023718
 O    1.0746566622    0.1489077323   -0.8351757907
 H   -0.3944331512    2.2480720654    0.9225789676
 H   -0.4242089327    2.0820634164   -0.8761196302
 H    2.2036937348    1.9571612351   -0.5219615535
 H    2.7318420317    0.2582112822    1.4367824890
 H    1.7104917111    1.5214367624    2.1492495683
 H    0.9574149801   -1.2849633127    1.2949786268
 H   -0.4804907632   -0.8978752925    3.2395531532
 H   -0.8615025688    0.7330592889    2.7048401614
 H   -2.0109412261   -1.8645246987    1.6843697863
 H   -2.7085401704   -0.2604900162    1.6089715891
 H   -1.0551932893   -1.6911570238   -0.4580070988
 H   -2.0806767956   -0.2754349230   -0.7054361880