16

 N   -0.3695208827   -1.1789436649   -0.1840233821
 C   -0.1645989558   -0.0444789945   -0.0811632636
 C    0.0129930365    1.3736050618    0.0227865001
 C    0.5142894920    2.0982721898    1.2736958323
 O    1.2025403507    1.3930562506    2.2594246513
 C    2.5389899033    1.1507756229    1.8540055568
 C    2.7870127537    0.0711331759    0.8448843588
 C    2.6701883866    1.5185925435    0.3949267529
 C    1.3432913167    2.1412123488    0.0227436483
 H   -0.7814084277    1.9145539834   -0.4860816478
 H   -0.0880059145    2.9137456673    1.6608319229
 H    3.2620224142    1.3896843525    2.6259895675
 H    3.7900476320   -0.3428368281    0.8227084309
 H    2.0041516405   -0.6401485642    0.6254851223
 H    3.5509298505    2.0143737811    0.0064321550
 H    1.3744360641    3.0152891440   -0.6158749155