21

 C   -0.0302611184    1.2375100060    0.1571023411
 C   -0.3122260031   -0.1943656245   -0.3124688026
 C    0.6456678308   -0.6595376543   -1.3907766988
 C    2.0351295622   -1.1418597386   -1.0073564255
 C    1.0311480243   -2.1152506053   -1.5341177781
 O    0.5486114360   -3.0603929154   -0.6242744283
 C   -0.6768221723   -3.6388500218   -1.0116400536
 C   -1.0647087541   -4.6626177508    0.0404273332
 O   -2.0838560268   -5.2989969340    0.0071810911
 H    0.9802844917    1.3234774520    0.5693452262
 H   -0.1106174218    1.9490510829   -0.6719976783
 H   -0.7391292284    1.5465383901    0.9315787119
 H   -0.2525027950   -0.8835254830    0.5369248771
 H   -1.3423273374   -0.2551033940   -0.6880651078
 H    0.5796919109   -0.1054519591   -2.3248439877
 H    2.8872473937   -0.8824444434   -1.6252182578
 H    2.2491530747   -1.2126994624    0.0542900448
 H    1.1674592389   -2.5113535678   -2.5414428676
 H   -1.4808854578   -2.8928669319   -1.1017330227
 H   -0.5969898486   -4.1490621681   -1.9863014463
 H   -0.3121195397   -4.7734690567    0.8520702197