15

 O   -0.0608751323    1.3125205683   -0.2456475498
 C    0.0416971673   -0.0246224559   -0.0690590554
 N    1.2142860299   -0.5345947482   -0.1517241941
 C    1.5935767877   -1.8685898183    0.0239133004
 N    2.8032324658   -2.1800267149    0.3187007772
 C    0.6741688143   -2.9971367869   -0.1991589111
 C   -0.6703913245   -3.0224483038   -0.1337692983
 C   -1.5641191438   -1.9205985511    0.1378788778
 C   -1.2680294843   -0.6080614120    0.1892411826
 H    0.8424287809    1.6258733370   -0.4029263886
 H    3.3448770097   -1.3202144844    0.4343093243
 H    1.2015908015   -3.9291304621   -0.3776970324
 H   -1.1535852280   -3.9857974513   -0.2721408753
 H   -2.6048980106   -2.1929611560    0.2945779030
 H   -2.0578624135    0.1133427998    0.3662249797