20

 C    0.0793950704    1.6353816997   -0.2265715209
 N    0.2689716088    0.2004599807   -0.0906030263
 C    1.4991568451   -0.4839283186   -0.4111554522
 C    2.7540544962    0.3064173801    0.0113407826
 C    2.2029002760    0.3084063596    1.4769100403
 C    2.0428917486    1.5936105677    2.2454059349
 O    1.0575064377    1.8997593353    2.8696838334
 C    0.9437066124   -0.4588146904    1.0026920514
 C    0.2148188742   -1.4786557218    1.8261859355
 H    0.9800929019    2.2466091527   -0.0708523762
 H   -0.2907947916    1.8410018813   -1.2360660260
 H   -0.6721686266    1.9632882389    0.4955893348
 H    1.4808713301   -1.2750650216   -1.1541898567
 H    3.6745398652   -0.2709499218   -0.0891952667
 H    2.9005792135    1.2793130660   -0.4680109191
 H    2.8384644084   -0.3379188857    2.0977492640
 H    2.9373888962    2.2613640612    2.2258334083
 H   -0.3311822446   -0.9897340849    2.6404315537
 H   -0.5047182039   -2.0216134449    1.2083620377
 H    0.9102675923   -2.1978007535    2.2731647676