18

 C    0.0644732440    1.5856950355    0.0037621850
 C    0.0172102936    0.0466471251    0.0727190772
 C    0.8430885913   -0.4940551493    1.2564514783
 O   -1.3214301188   -0.4569720662    0.0686300325
 C   -2.1436476653   -0.0991196287    1.1735276548
 C   -3.4564635630   -0.7016103772    0.9900939849
 C   -4.5482216389   -1.1849898708    0.8668649251
 C    0.5932653668   -0.4923258785   -1.1801389572
 N    1.0864225976   -0.8892930666   -2.1457126893
 H    1.0879201023    1.9224662991   -0.1787012908
 H   -0.5726320137    1.9459673022   -0.8069865528
 H   -0.2705210353    2.0254057336    0.9468071277
 H    0.5066986478   -0.0504577323    2.1971753235
 H    0.7475440962   -1.5804282860    1.3170838768
 H    1.8981836294   -0.2418438006    1.1248623500
 H   -1.7117822504   -0.4511630581    2.1215341733
 H   -2.2526659490    0.9923001091    1.2515043668
 H   -5.5117134748   -1.6164584603    0.7501008043