25

 C    0.0364457562    1.5329591247   -0.1779923013
 C    0.0479485428    0.0059102730   -0.0408154669
 C   -1.3523768873   -0.5895318735    0.0542403394
 C   -2.2771969738   -0.5852387032   -1.2026299532
 C   -2.6837005233   -2.0596346306   -0.9177552702
 C   -1.9242119184   -3.1085339743   -1.7578439792
 C   -0.7225840438   -3.0208264681   -0.7701538114
 C   -1.5686604301   -2.1261276152    0.1967532490
 C   -1.7928922970   -2.6801679193    1.5878324596
 H    1.0514373318    1.9347848816   -0.2578977573
 H   -0.5159867797    1.8459023705   -1.0707516139
 H   -0.4422944206    2.0044807248    0.6876172618
 H    0.5792190282   -0.4258100217   -0.8983672588
 H    0.6251892187   -0.2769466216    0.8500335044
 H   -1.8796186107   -0.1019552331    0.8852934182
 H   -3.0910430986    0.1432664548   -1.1842629424
 H   -1.7381943966   -0.4627096906   -2.1490840067
 H   -3.7405915064   -2.2341907014   -0.7060479360
 H   -2.4038298431   -4.0913109841   -1.7416739792
 H   -1.7283493592   -2.8429984324   -2.8015022583
 H   -0.4217966715   -3.9773472776   -0.3345410064
 H    0.1741621403   -2.5464664508   -1.1761211556
 H   -0.8699579250   -2.6437813038    2.1810524500
 H   -2.5564862971   -2.1087287614    2.1280678485
 H   -2.1189418057   -3.7264340466    1.5560204361