22

 C   -0.1969940429    1.4831161626   -0.2725677853
 C    0.0303139622    0.0228969159    0.0503149717
 N    1.2614943226   -0.7386903209   -0.2593426446
 C    2.4327329701    0.1351439095    0.1150200619
 C    2.0290841975    0.1437989229    1.6091041581
 C    1.9649078892    1.4173763392    2.4339500643
 O    3.3063019755    1.8194315681    2.6834661290
 C    0.7548820978   -0.5984356980    1.1870952688
 C    0.1940463462   -1.7585412332    1.9614098760
 H    0.6477643527    2.1279633444   -0.0315646288
 H   -0.4062656927    1.5973885482   -1.3422025743
 H   -1.0682306208    1.8562894650    0.2766900192
 H   -0.8268814561   -0.5812074456   -0.2481141990
 H    3.3642118832   -0.3942032226   -0.0897898413
 H    2.4653408508    1.0998661358   -0.3998440697
 H    2.6760682137   -0.5498956321    2.1562293149
 H    1.4091791097    2.2085861189    1.9126005616
 H    1.4273669644    1.2105533851    3.3749422810
 H    3.2875961440    2.6431548032    3.1792006564
 H   -0.3411613083   -1.4114773074    2.8539355296
 H   -0.5087095445   -2.3333410806    1.3514023066
 H    0.9901059256   -2.4355090183    2.2904647040