17

 C   -0.2740712795   -1.2476626143   -0.0936123391
 C   -0.1300080496   -0.0554186635   -0.0501019870
 C   -0.0007464755    1.3877039988    0.0239092415
 C   -0.6103200211    1.9892110720    1.3240195067
 O    0.1299305908    3.1659207429    1.5771835115
 C    1.4799081252    2.8147088382    1.3515565790
 C    1.4755016566    1.9710290531    0.0432090177
 C    2.5578150653    1.0066961355   -0.0154444865
 C    3.4787755376    0.2353176342   -0.0454381816
 H   -0.3886473107   -2.3022613976   -0.1389701899
 H   -0.5120484026    1.8303528829   -0.8364355015
 H   -1.6629365795    2.2576069701    1.2171623960
 H   -0.5049892386    1.2679745623    2.1482268596
 H    2.0673102986    3.7307758633    1.2664911929
 H    1.8769429587    2.2085145987    2.1795006171
 H    1.5653454521    2.6515737126   -0.8090532495
 H    4.2841861721   -0.4557267890   -0.0791255071