16

 O    0.0566883432    1.4860561182   -0.0052279717
 C    0.0724742200    0.0800298558    0.0363333837
 C   -1.3569657145   -0.5158750111    0.0045338024
 C   -2.0548757927   -0.0800541254   -1.2007419499
 C   -2.5914345086    0.3150873093   -2.2014846666
 C   -1.3645804985   -2.0705501082    0.1057439904
 O   -0.7092428495   -2.7158328497   -0.9641814158
 C   -0.8197404667   -2.5021229254    1.4100863567
 N   -0.3636432886   -2.8344414314    2.4185115994
 H   -0.3986737394    1.7458518238   -0.8154221276
 H    0.6573984630   -0.3424574426   -0.7956506445
 H    0.5579500564   -0.1989765983    0.9763439509
 H   -1.8889677240   -0.1304601200    0.8839799915
 H   -3.0863903645    0.6479959774   -3.0807654714
 H   -2.4056834460   -2.4042831094    0.0528737398
 H    0.2424470203   -2.6021039931   -0.8655781472