22

 C   -0.0574377723    1.5468673003   -0.0776867734
 C    0.0593127624    0.0390917046    0.0030471420
 C    0.1196154486   -0.6426711518   -1.3574674168
 C    0.4309622686   -2.1325018869   -1.2308969594
 O    1.6085329026   -2.3193615629   -0.4635973121
 C    1.4239329678   -1.9901107124    0.8983226457
 C    0.7269333668   -0.6470968065    1.1535910988
 C    1.3128380745    0.1068761792    2.3298565470
 N   -0.7486587574   -0.7005364150    0.9979582493
 H    0.8031342865    1.9796748656   -0.5998006168
 H   -0.9556657281    1.8229225001   -0.6428832147
 H   -0.1261381453    2.0192428148    0.9050778097
 H   -0.8334700812   -0.4976721043   -1.8827742492
 H    0.9031271650   -0.1653154599   -1.9587365470
 H   -0.4180830905   -2.6611915774   -0.7740527427
 H    0.6283476471   -2.5734711146   -2.2121310303
 H    0.8451993911   -2.7768335495    1.4103082264
 H    2.4291003979   -1.9723539081    1.3316352884
 H    2.3495252557    0.4027234649    2.1345540910
 H    0.7451937645    1.0074685348    2.5756194943
 H    1.3162828102   -0.5315599624    3.2219182855
 H   -1.1838739946   -0.0427743527    1.6423452144