18

 C    0.0709528540    1.5680719960   -0.2177027309
 C    0.0452004693    0.0667846333   -0.0251101945
 C    1.3051279170   -0.7613660636   -0.0981484153
 C    0.5771495598   -0.6086833430    1.2170786285
 C    1.1895904125    0.1906741747    2.3551114150
 O    0.2047950144    0.8967672944    3.1111552373
 C    2.0072199068   -0.6712033065    3.2179464192
 C    2.6330117343   -1.4004947156    3.9405283607
 H    1.0143348278    2.0100215426    0.1156799521
 H   -0.0475560734    1.8208890017   -1.2768051585
 H   -0.7349557282    2.0531236777    0.3419007066
 H   -0.8432403128   -0.4068855386   -0.4356618307
 H    1.2853215623   -1.7254782361   -0.5937258705
 H    2.2449573844   -0.2280181813   -0.2095175153
 H    0.0258912715   -1.4797605276    1.5633119695
 H    1.8292264789    0.9774843458    1.9410505957
 H   -0.3048002218    0.2426572971    3.6023013089
 H    3.2024310031   -2.0320181810    4.5768708724