17

 N   -0.0158534894   -1.1836808847    0.0536944518
 C   -0.0282079082   -0.0270564843    0.0509276431
 C   -0.0347228568    1.4208492640    0.0324746078
 C   -0.6455663913    2.4161959812    1.0302742281
 N   -0.0349835217    3.3584702203   -0.0063181120
 C    1.1793372579    2.3998029357   -0.0422788943
 C    1.7484681843    2.4494439357   -1.4499979218
 C    0.4161538854    2.4332645906   -2.2494619962
 C   -0.5572928664    2.3787056779   -1.0843559391
 H   -1.7350579010    2.4709610785    1.0903650976
 H   -0.1871349056    2.4897663780    2.0192277273
 H    1.8513478458    2.4767979772    0.8135149015
 H    2.3285415702    3.3618417013   -1.6092680510
 H    2.3925916362    1.5921722095   -1.6624847344
 H    0.2675425801    3.3368180453   -2.8459757114
 H    0.3159733924    1.5669589526   -2.9085809809
 H   -1.6298154919    2.4345085112   -1.2753819162