18

 C   -0.5318842467    0.4756117777    1.0668552928
 C   -0.0144031742   -0.5088488917    0.1335478012
 C    0.4173948300   -1.3313849320   -0.6368484453
 C    0.9265009956   -2.2835157977   -1.5970705346
 O    0.6522436971   -2.2207479998   -2.7778079481
 C    1.8730714512   -3.3621611582   -1.0667886659
 N    1.5265697340   -3.8064582410    0.2721360023
 C    0.6003931293   -4.9324480360    0.3583776829
 C    2.0454650556   -5.1100261326    0.6711937591
 H    0.2837162509    0.9500262727    1.6234027248
 H   -1.0960074227    1.2604044753    0.5525667654
 H   -1.1968465349    0.0023579092    1.7977550687
 H    1.8937843235   -4.1670675267   -1.8195676295
 H    2.8779182924   -2.9178879606   -1.0318449323
 H   -0.1351547602   -4.8764242569    1.1551394561
 H    0.2359831022   -5.3663114292   -0.5714922335
 H    2.6449422935   -5.6649811530   -0.0486945500
 H    2.3836978434   -5.1864709594    1.7005759160