16

 C    0.1167074347    1.5018420423    0.0774253155
 C    0.0367974965    0.0501478390    0.0520461821
 C   -0.0296337093   -1.1525982325    0.0375055010
 C   -0.0624670786   -2.5858362353   -0.0012037252
 O   -0.5800571419   -3.2898594346    1.1419896424
 C   -1.3464980572   -3.3484631820   -0.0593241102
 C   -2.6950523853   -2.6678097458   -0.0504426750
 C   -1.3092125121   -4.6390117737   -0.7331426463
 N   -1.2990760797   -5.6540442884   -1.2857715725
 H    1.1112798118    1.8464724113   -0.2245627775
 H   -0.6154288972    1.9514642659   -0.6018131500
 H   -0.0797052922    1.8863525612    1.0839230758
 H    0.8089901556   -3.0659476877   -0.4444930626
 H   -2.6031681497   -1.6779907271    0.3985116076
 H   -3.0767576710   -2.5659796496   -1.0703254069
 H   -3.4095968144   -3.2605507428    0.5273239718