23

 C    0.5574388059    1.4639115161   -0.3920834282
 C    0.0992069114    0.0671666011    0.0242049374
 C    0.5231115156   -1.1246511068   -0.8932503025
 C    1.2912311456   -1.7623056261    0.2825937605
 C    2.7245387677   -1.1913711872    0.4895849990
 C    2.1910942707   -0.3320166974    1.6710166578
 O    2.6374049295    0.9849880414    1.8834983795
 C    0.7253811086   -0.6648997101    1.2714881333
 C   -0.2439639424   -0.9450751530    2.4017631812
 H    1.6093676642    1.4823405719   -0.7026335410
 H   -0.0194290732    1.8076080275   -1.2581248172
 H    0.4177892368    2.1960703108    0.4100925555
 H   -0.9880904268    0.1003843922    0.1479987011
 H   -0.3269332557   -1.7205306149   -1.2364102201
 H    1.1296239936   -0.8640022405   -1.7675816127
 H    1.1691833066   -2.8308155940    0.4647956568
 H    3.5086408968   -1.9074042913    0.7463089379
 H    3.0754252885   -0.5988931415   -0.3626825592
 H    2.3993026832   -0.8493605255    2.6145296913
 H    2.5408584259    1.4734934457    1.0617928145
 H   -0.5068976777   -0.0178611488    2.9265240753
 H   -1.1753035578   -1.3927227593    2.0361063894
 H    0.1881807528   -1.6307285603    3.1394694406