21

 C   -0.3150833556    1.6553828972    0.3157560379
 C    0.0070704837    0.1778168701    0.0797593229
 C    0.8318942101   -0.4448542018    1.2121102124
 C    1.1011628648   -1.9233570649    0.9990734030
 C    1.6660813852   -2.7392121576    2.1810704004
 C    0.3578404849   -3.5672308696    2.0608065086
 O   -0.1206091313   -2.7131871688    0.9920190906
 C    0.4991216450   -4.9614279794    1.6693780779
 C    0.6252685034   -6.1149456249    1.3552461341
 H    0.5988954477    2.2533153096    0.4071311716
 H   -0.9032457113    2.0708704757   -0.5083458479
 H   -0.8916889451    1.7921136514    1.2373993950
 H   -0.9208002470   -0.3948151631   -0.0294371307
 H    0.5515871800    0.0654821402   -0.8671447065
 H    1.7972859880    0.0728590437    1.3061273928
 H    0.3080535658   -0.3140426569    2.1685445582
 H    1.6495603032   -2.0756999853    0.0587914742
 H    2.5831840767   -3.2947288702    1.9886506666
 H    1.7586116938   -2.1843274383    3.1164718706
 H   -0.3032340593   -3.4976819301    2.9338724308
 H    0.7293937574   -7.1341319270    1.0752561574