19

 C    0.0308500295    1.5427603873   -0.0694039459
 O    1.3426773721    2.0801157922    0.0656557823
 C    2.3297799608    1.1146001972    0.4172496700
 C    1.8193842263    0.1980281634    1.5339440731
 O    0.5790310291   -0.4327176831    1.2035889611
 C    0.0189955294    0.0162309346   -0.0194344106
 C    0.7055015772   -0.6768090999   -1.2264177989
 O    2.0933307376   -0.8605805036   -1.0564652250
 C    2.8206444553    0.3253136136   -0.8130240846
 H   -0.5974237937    1.9211577550    0.7487100066
 H   -0.3960806321    1.8994066920   -1.0159118417
 H    3.1742608161    1.6988216154    0.8000315277
 H    2.5583468756   -0.5835671638    1.7475916698
 H    1.6747299376    0.7946450251    2.4444274203
 H   -1.0297177639   -0.3039676708   -0.0096246587
 H    0.2988089949   -1.6851970990   -1.3403114957
 H    0.4834012863   -0.1112357638   -2.1477271483
 H    2.7962518031    1.0014923477   -1.6824200689
 H    3.8548157188    0.0019983404   -0.6555589827