16

 N    0.1136567747   -1.0924584856    0.0806191567
 C    0.0122609903    0.0575957726    0.0291652823
 C   -0.0599018719    1.5009143009   -0.0129868337
 N   -1.1978177007    2.0910312186    0.0142118412
 C   -1.0883050323    3.5540494515    0.0268098440
 C   -0.0858081331    4.0209739891   -1.0738896057
 C    1.0191520247    3.6206160248   -0.0567677739
 C   -0.0014482236    3.9965117584    1.0571640385
 N    1.1466695122    2.1625634405   -0.1231871926
 H   -2.0819765600    3.9966907181    0.0725885429
 H   -0.1067338367    3.5027763178   -2.0339327408
 H   -0.1179008176    5.1020679719   -1.2179600893
 H    2.0053544753    4.0816934837   -0.0971942541
 H   -0.0283066942    5.0746442926    1.2229504407
 H    0.0484560852    3.4613479260    2.0076375843
 H    1.9715937478    1.7209612089    0.2539695695