17

 O   -1.0404473882    1.2166802476    0.0058467216
 C    0.0967669407    1.0028631661   -0.3393569442
 C    1.2478374172    1.9701158424   -0.2423260265
 C    1.1165600771    3.4422327732   -0.8110036073
 C   -0.0689701334    4.0323159502   -0.0156980991
 C    0.2648981781    3.4909753358    1.4186337637
 C    1.5658568043    2.7137943625    1.1191465034
 C    2.2699800308    3.7114003627    0.1769170258
 O    3.3036844765    4.3064616781    0.1608723697
 H    0.3725627098    0.0163324798   -0.7755743610
 H    2.1487472999    1.4898618190   -0.6332752420
 H    1.1951354363    3.6491617553   -1.8760848099
 H   -0.0704859901    5.1241001869   -0.0683863590
 H   -1.0290699398    3.6619772595   -0.3733846559
 H    0.4442904479    4.2893687542    2.1433102124
 H   -0.5234701724    2.8421784764    1.7986673501
 H    2.0820596053    2.2111675305    1.9341879181