15

 O    0.0789552403    1.2614702649    0.6575026916
 C   -0.0773393020   -0.0979624878    0.4054266274
 C   -1.5197500975   -0.4258492473    0.0471949393
 N   -2.3652097949    0.5163979889    0.0197917017
 N   -1.7354709788   -1.7852635090   -0.2173343719
 C   -2.9267472193   -2.3837530135   -0.5650485554
 N   -4.0267361462   -1.7481836405   -0.6957550537
 C   -2.8037201783   -3.8191834850   -0.7696654154
 N   -2.7407999898   -4.9609362370   -0.9397365461
 H   -0.8086743319    1.6424625504    0.5312945185
 H    0.5724854058   -0.4246702263   -0.4252830654
 H    0.2100552761   -0.7003101010    1.2850778837
 H   -3.3021984834    0.2039508523   -0.2288442979
 H   -0.9349218116   -2.3954177879   -0.1457929070
 H   -4.7877659185   -2.3699967613   -0.9565711796