21

 C    0.0546136097    1.5159046556   -0.0535870953
 C    0.1976931264    0.0075394701    0.0445175351
 O    0.5007156431   -0.4969411986   -1.2541642303
 C    0.6257088158   -1.8663165865   -1.2941201834
 C    1.8792674492   -2.5862890403   -0.8724970869
 C    1.3785501364   -2.6879519739   -2.3038617080
 C    0.1364908435   -3.6109640158   -2.4750997127
 C   -0.3581384897   -4.2457328671   -1.2017884368
 C   -0.6281375621   -2.7869036739   -1.4533780341
 H    0.9810691638    1.9659398605   -0.4217872085
 H   -0.7516903038    1.7823896441   -0.7428890290
 H   -0.1725269675    1.9417412028    0.9283834176
 H    1.0005065689   -0.2682492294    0.7448390682
 H   -0.7319771865   -0.4485675833    0.4176965214
 H    2.7281146138   -1.9149070265   -0.7780102577
 H    1.9098070836   -3.4280203677   -0.1888448128
 H    1.9817432594   -2.3547159942   -3.1379102902
 H   -0.2031004665   -3.9426406286   -3.4477198733
 H   -1.2248071207   -4.8875209641   -1.3357705711
 H    0.3088159343   -4.5907390763   -0.4194964474
 H   -1.6255575611   -2.3755400671   -1.5406441149