18

 O   -0.6212459156    0.6433796102    0.5523668987
 C    0.1017200056    1.0840370029   -0.3056586354
 C    1.2807358740    1.9939613251   -0.0762021431
 C    1.2475119263    3.3428472954   -0.8131878087
 C    0.2182999909    4.2370780771   -0.2414702431
 N    1.5098998529    4.1163133867    0.4647267854
 C    1.4349140732    2.8244977129    1.2035875040
 C    0.8106396298    2.6828246398    2.5543163731
 C    2.3123789927    2.5539974032    2.3778809176
 H   -0.0709247302    0.8384523540   -1.3803960899
 H    2.1934260370    1.4352567162   -0.3186931583
 H    1.7816647447    3.5658926326   -1.7301935265
 H    0.0828193812    5.2043309826   -0.7149396166
 H   -0.6723381361    3.8213761078    0.2238289914
 H    0.4383454062    3.5890443685    3.0209226517
 H    0.2282974743    1.7909267200    2.7466173490
 H    2.7626525236    1.5707048740    2.4700261721
 H    2.9326584195    3.3754424809    2.7194417587