18

 C   -0.0860649185    1.5114095798    0.0099078670
 C   -0.0058691868    0.0140911789    0.0178383639
 C    1.0512267248   -0.7742900792   -0.8386120225
 C    0.2650826297   -1.9050364119   -1.4897700141
 C   -0.9069832591   -2.0430688376   -0.5362759650
 C   -0.7013241141   -1.7586639058    0.9083677926
 C    0.5474473110   -0.8861618885    1.1294009933
 O    1.7009250472   -1.2765265900    0.3662539898
 N   -1.3408675833   -0.7274224551   -0.0180616969
 H    0.9017537748    1.9542547970    0.1726779980
 H   -0.4715939186    1.8716178592   -0.9506018122
 H   -0.7608084402    1.8672842330    0.7940828217
 H    1.7490202567   -0.2351028916   -1.4831054548
 H   -0.0954369077   -1.6240461107   -2.4864762582
 H    0.8715338147   -2.8105123587   -1.5766651896
 H   -1.7248575535   -2.7105220160   -0.7921146179
 H   -1.2803124762   -2.2509396998    1.6831901961
 H    0.7730028890   -0.5800251431    2.1519980286