17

 C    0.0406315695    1.5057388660   -0.0353614660
 C   -0.0080826192    0.0030307467    0.0377075145
 O    0.9567758135   -0.6379509688   -0.8933125074
 C    1.2265289613   -1.6116970177    0.0898471097
 C   -0.0470898181   -2.4872588527    0.5566827987
 O    0.0081484683   -1.8031145228    1.8633030006
 C    0.7409487494   -0.7611596224    1.2524592158
 C   -1.2972768883   -1.9971137753   -0.1061518723
 C   -1.3194344329   -0.6684946986   -0.2635907168
 H    1.0515831953    1.8715031379    0.1632984062
 H   -0.2608055266    1.8549571693   -1.0284952194
 H   -0.6410773841    1.9404388687    0.7034045707
 H    2.1778909372   -2.1307716141   -0.0316056153
 H    0.0591919875   -3.5663513606    0.6659379671
 H    1.3168674138   -0.1425859779    1.9434098993
 H   -2.1126992491   -2.6632658872   -0.3622670342
 H   -2.1668215574   -0.1034640605   -0.6371453711