21

 C   -0.1493748996    1.5837307103   -0.0231192130
 C   -0.0068424558    0.0592933028   -0.0281527096
 C    0.7101815258   -0.4817419952    1.2124061953
 C    0.8521045536   -2.0155932431    1.2123734911
 C    1.5420735507   -2.5537299949    2.4314313942
 C    2.8465114969   -2.9933400102    2.5496152835
 N    3.0223867358   -3.3567926729    3.8444821551
 N    1.9182210832   -3.1896397438    4.5945309779
 C    1.0221880119   -2.7021583542    3.7412821613
 H    0.8304624954    2.0726799590    0.0151317110
 H   -0.6646364457    1.9408370836   -0.9203619220
 H   -0.7210730097    1.9247827462    0.8471761821
 H   -1.0008773457   -0.4020138915   -0.1021908772
 H    0.5386382017   -0.2550780338   -0.9282256653
 H    1.7080400896   -0.0303804771    1.2904721198
 H    0.1685123563   -0.1710597514    2.1155298787
 H   -0.1466528724   -2.4631057350    1.1253841974
 H    1.4007902876   -2.3248903183    0.3142678577
 H    3.6402874100   -3.0757722402    1.8232534077
 H    3.8509924154   -3.7312321379    4.2736488017
 H    0.0241455750   -2.4753176423    4.0894059026