19

 O    0.2704315523    1.2461532757   -0.3836569037
 C   -0.0040818938   -0.1206864550   -0.1250331887
 C   -1.4824283559   -0.3918642319    0.1881796763
 C   -2.3833876103   -0.1838746688   -1.0382588792
 O   -2.3321876896   -1.4179696368   -1.7522553575
 C   -2.3714613721   -2.4488981716   -0.7695365420
 C   -1.7209658651   -1.8879721459    0.5142169568
 C   -3.8197136785   -2.9032593589   -0.5743982224
 O   -4.2869054021   -3.2891887743    0.4647830082
 H    0.0145106440    1.4415344723   -1.2892871611
 H    0.3185698102   -0.7622762154   -0.9593719835
 H    0.6016062200   -0.3903217566    0.7469843740
 H   -1.7832721202    0.2611164958    1.0119253736
 H   -3.4154722556    0.0509007986   -0.7344824288
 H   -2.0468093595    0.6051646160   -1.7170196114
 H   -1.8305244188   -3.3100881972   -1.1847051395
 H   -0.7841502931   -2.4017213258    0.7456300046
 H   -2.3938965053   -2.0336801991    1.3617323215
 H   -4.4201121765   -2.8487296509   -1.5100308871