15

 O    0.0556715594    0.0352120314    0.2282810174
 C   -0.0023481893    1.2185383070    0.0486000767
 C   -1.2530842202    2.0597586900   -0.2390029373
 C   -0.7091367576    3.3489600129   -0.8783585964
 N    0.7362481654    3.4811170027   -0.5370655459
 C    1.0083277892    3.3895493927    0.8802644320
 C    1.1786060657    2.1721553854    0.0056340284
 C    2.4823942258    1.6658632881   -0.3248368365
 N    3.5298419174    1.2477636634   -0.5754840898
 H   -1.9212243370    1.4992761021   -0.8948063000
 H   -1.7940560095    2.2276757796    0.6984458658
 H   -0.7705662413    3.2979622634   -1.9682742370
 H   -1.2271151051    4.2544697529   -0.5533437695
 H    1.9088141419    3.8950975035    1.2137149831
 H    0.1866126451    3.3843579149    1.5933888489