23

 C   -0.1065694610    1.5662693847   -0.0185801377
 C    0.0055611878    0.0429492460   -0.0013033078
 C   -1.3601910593   -0.6036882939   -0.2438187175
 C    1.0760805743   -0.5938545963   -0.9202148488
 C    2.4803002703   -0.2373195395   -0.5186221533
 C    1.7414827155   -1.2800446527    0.2745345442
 C    0.7557298619   -0.6052478605    1.2063878040
 C    1.0570269469   -0.0097417358    2.5524184024
 C    0.1422246679   -1.2096358831    2.4318068069
 H    0.8615280057    2.0503363757    0.1364683865
 H   -0.5070543949    1.9145436960   -0.9775963753
 H   -0.7841997246    1.9203649057    0.7675557587
 H   -1.7624252760   -0.3005408797   -1.2177592566
 H   -1.2884953123   -1.6955267716   -0.2318953671
 H   -2.0853074454   -0.3037748755    0.5206365974
 H    0.8554786138   -1.0112796252   -1.8964533951
 H    3.2529639006   -0.6141192286   -1.1820415215
 H    2.7131386130    0.7247878534   -0.0697338768
 H    2.0917168471   -2.3018984682    0.3645636049
 H    2.0491654572   -0.1553762000    2.9682950710
 H    0.6040224347    0.9442018253    2.8041048815
 H   -0.9181093999   -1.0629502292    2.6115721277
 H    0.5155843568   -2.1736118471    2.7641751624