11

 O    0.0119719818   -0.0069290605    0.0032960395
 C   -0.0207383442    1.1988625011    0.0104363583
 C   -1.2632418476    2.0886423382    0.0321295373
 C   -0.7003043610    3.5095905933    0.0312448456
 O   -1.3255374853    4.5410605097    0.0456277375
 C    0.7890528489    3.3913951603    0.0106689252
 C    1.1674294181    2.1047861090   -0.0012903102
 H   -1.8988140298    1.9096424802   -0.8404610720
 H   -1.8740403259    1.9009531000    0.9204609174
 H    1.4265498937    4.2672938698    0.0065798429
 H    2.1775554113    1.7136183589   -0.0171328613