14

 N    0.1175698086    1.3994818382    0.3585287678
 C   -0.0624271207    0.0225541790   -0.0610068435
 C   -1.5204419646   -0.4143080734   -0.2405402402
 C   -1.4518286978   -1.4334311575   -1.3517778268
 N   -2.3122058637   -2.2993559905   -1.6419084276
 O   -0.2583612350   -1.2625189717   -2.0526869216
 C    0.5607098161   -0.3511657505   -1.4151926816
 O    1.5768947554    0.0397353082   -1.9001558442
 H    1.1116579568    1.6068922473    0.4042718768
 H   -0.2645010893    2.0271978863   -0.3447934731
 H    0.4256370413   -0.6234617349    0.6812336078
 H   -1.9891374316   -0.8287579666    0.6509591485
 H   -2.1305205672    0.4350720565   -0.5714416234
 H   -2.0207782383   -2.8547470303   -2.4479700790