15

 C    0.1724622234    1.1856749409   -0.5568490070
 C    0.1877628898   -0.1995162756    0.0562586102
 O    1.1918572611   -0.7175113598    0.4820672727
 C   -1.1412324566   -0.9133347221    0.0846288450
 C   -1.3945967535   -2.1712840963   -0.6994543514
 O   -0.1894454952   -2.9466395916   -0.8429584512
 C   -0.1508875167   -3.1432832571    0.5469467293
 O    0.5370422714   -3.8906337720    1.1503704600
 C   -1.3509887290   -2.2513671973    0.8001002914
 H    1.1868340719    1.5828919205   -0.5976129594
 H   -0.2575144036    1.1537874562   -1.5642347965
 H   -0.4594487428    1.8544080967    0.0395416133
 H   -2.0161861565   -0.2682327123    0.1302933642
 H   -2.1865349532   -2.3389258300   -1.4158019498
 H   -2.1182274004   -2.4029856901    1.5450635493