21

 C   -0.1243183421    1.5659596304    0.0926677481
 C    0.1376464028    0.0661893367   -0.0676989256
 C    0.7611316240   -0.5695525490    1.1789326146
 C    1.0270844058   -2.0734970855    1.0205927935
 C    1.6570128091   -2.6646644097    2.2594456880
 O    0.8151448358   -2.9541938109    3.3678012081
 C    1.4749707128   -4.0596733985    2.7382539279
 C    0.5933410455   -5.0304800622    2.0235470893
 O    0.9212744147   -6.1649972940    1.7848428986
 H    0.8042010597    2.1106092124    0.2969197757
 H   -0.5676770427    1.9920555386   -0.8124790592
 H   -0.8107784524    1.7611090070    0.9238395716
 H   -0.8035383641   -0.4479150594   -0.3029492732
 H    0.7979600316   -0.1021475755   -0.9289112703
 H    1.7035573898   -0.0571621258    1.4174188085
 H    0.1016991551   -0.4145525100    2.0423603886
 H    0.0907072642   -2.5914129903    0.7910418739
 H    1.7030250898   -2.2449879312    0.1722891988
 H    2.6062130583   -2.2045570943    2.5464215005
 H    2.2824017932   -4.5206849940    3.3059403224
 H   -0.4022760908   -4.6273743847    1.7398100302