13

 C   -0.0597450133    1.4793802906    0.0341708241
 C   -0.0084502501   -0.0093807195   -0.0291761797
 N   -0.0516329568   -0.7437560452   -1.1126622622
 C    0.0256035059   -2.0629947737   -0.6975558253
 C    0.1158425828   -2.1065580496    0.6658373188
 O    0.2133478130   -3.0858653742    1.5982170218
 N    0.0941891918   -0.8035206425    1.0940716741
 H    0.8432090774    1.9046342031    0.4888900328
 H   -0.1450352708    1.8630615016   -0.9833484051
 H   -0.9199997934    1.8385210225    0.6119639414
 H    0.0112387840   -2.8851155827   -1.3962250642
 H    0.2171217793   -3.9348270019    1.1454650518
 H    0.1454929900   -0.5107378187    2.0554891717