20

 C   -0.0308695214    1.4259602452   -0.0912860600
 C    0.1111842102   -0.0953382398    0.0380472596
 C    0.8551520721   -0.4912785906    1.3238820425
 O    0.1269332234   -0.1234941744    2.4771149315
 N   -1.2197620086   -0.7107811632    0.1328388075
 C   -1.7785605188   -1.1544281989   -0.8927956719
 C   -3.0939925016   -1.8407350310   -1.1966101436
 C   -2.5636102616   -1.8437525372   -2.6449726001
 O   -1.3431902107   -1.1696873984   -2.2083002548
 H    0.9561371897    1.8936345467   -0.1683064129
 H   -0.6054140003    1.6882873078   -0.9838377434
 H   -0.5360400456    1.8315100710    0.7885377253
 H    0.6675765173   -0.4829805145   -0.8263776108
 H    1.0508125106   -1.5759969710    1.3028914951
 H    1.8223181653    0.0212880200    1.3724996693
 H   -0.7759696479   -0.4238458006    2.3041606004
 H   -3.2211079638   -2.8178730819   -0.7279904188
 H   -3.9803618849   -1.2312678791   -1.0132195030
 H   -2.3362692880   -2.8216127850   -3.0757330165
 H   -3.1108129054   -1.2303091852   -3.3643584452