12

 O    0.0224057865   -0.0950034211   -0.1487527168
 C    0.0287338412    1.0938448110    0.0363484509
 C    1.2583090081    1.9609420083    0.0369152547
 C    1.1277058109    3.2641158451   -0.7968584609
 O    1.1354158192    4.0888387675    0.3815126009
 C    1.3496311478    2.9484324296    1.2314451725
 H   -0.9176882407    1.6542940724    0.2277309254
 H    2.1413987461    1.3520015662   -0.1545214144
 H    1.9820703975    3.4644771568   -1.4541079675
 H    0.2001091055    3.3756689392   -1.3724914116
 H    0.5686835450    2.8513632179    1.9962560930
 H    2.3296293029    2.9701022172    1.7225606038