14

 O    0.0481822630    0.0734884014   -0.0040325905
 C    0.0125698651    1.2668226161   -0.0420655307
 C   -1.0870388111    2.2936208629    0.0219750134
 C   -0.1142253333    3.2262521983    0.7477628143
 C    1.0673893238    2.3865114067    0.1075162218
 C    0.8941226777    3.2060797074   -1.2014572390
 C   -0.5050711743    3.5563564838   -0.6681645098
 C   -1.3781544989    4.5864831887   -1.1295408146
 N   -2.0703325529    5.4299683284   -1.5142585310
 H   -2.1520018289    2.1825091155    0.1688388948
 H   -0.2413737194    3.7501725549    1.6818304524
 H    2.0421949653    2.1891542965    0.5418149448
 H    1.5291999572    4.0939274462   -1.2194168311
 H    0.9677468367    2.6656541331   -2.1497743949