18

 C   -0.1374290694    1.5307620034    0.0797151344
 C    0.0811359852    0.0248480706    0.0179426594
 C    0.8642498107   -0.4635306884   -1.2513638992
 C    1.4836194016   -1.7624052256   -0.7193500004
 N    2.8258353589   -2.2588110036   -1.0782439888
 C    3.4243759328   -2.4128416854    0.0426171208
 N    2.7147734599   -2.0574684445    1.2088488299
 C    1.6021025591   -1.3786107489    0.7336794058
 N    0.8852612280   -0.4381943192    1.1910440498
 H    0.8224090946    2.0575400794    0.0900406699
 H   -0.7103688641    1.8754572204   -0.7876947707
 H   -0.6836116724    1.8048008814    0.9864445573
 H   -0.8981764113   -0.4767728686    0.0474437123
 H    0.2249779968   -0.5945345776   -2.1272399513
 H    1.6517553852    0.2578318831   -1.4966014532
 H    0.7758113780   -2.5948639727   -0.8521071898
 H    4.4287817707   -2.8110324689    0.1470815986
 H    3.1823323655   -1.7963532347    2.0638860350