17

 C    0.2622963828    1.6100382741    0.7895559731
 C   -0.1708582223    0.3996130371   -0.0394022977
 C    0.5495302942   -0.8949609467    0.3932359925
 C   -1.6705112193    0.1992534944    0.0446970473
 O   -2.4207039712    0.7183611624    0.8248973059
 O   -2.0775243981   -0.7000667897   -0.9183806991
 C   -3.4079048708   -1.0295491024   -0.9770873879
 N   -3.7715783522   -1.8569425354   -1.8520261919
 H    1.3420164298    1.7590937901    0.6991418445
 H   -0.2411513241    2.5219489658    0.4583591196
 H    0.0200853833    1.4637364607    1.8456557619
 H    0.0573911163    0.5681131201   -1.0989941918
 H    0.3383326501   -1.1242585268    1.4430517180
 H    0.2387131912   -1.7457839281   -0.2169117771
 H    1.6308035491   -0.7697664282    0.2872471236
 H   -4.0070786551   -0.5111750576   -0.2282426914
 H   -4.7772166038   -2.0080266398   -1.7845570196