16

 C    0.0363598969    1.4793808666    0.0324112426
 C    1.3517078211    1.7761115219   -0.1318125699
 C    2.3116493875    1.8111312066    1.0276476085
 C    2.1212170220    0.3025778532    1.5400799224
 C    3.1128818561    0.6726705720    0.4617626320
 C    2.1231988518    0.5734118291   -0.7285779338
 N    1.2181937531   -0.5876200943   -0.5284913810
 C   -0.0552618176    0.0292521076   -0.0368448815
 C    1.0451619770   -0.5572444563    0.9258799170
 H   -0.6616582610    2.0565530910    0.6294725579
 H    2.6010860072    2.5830761452    1.7304656759
 H    2.4467234591    0.1006826985    2.5534835752
 H    4.1799648623    0.4890516208    0.4635170673
 H    2.5192490722    0.6534712183   -1.7401260869
 H   -0.9606388398   -0.5507129596   -0.1893462217
 H    0.8024250622   -1.5013801307    1.4033018561