16

 O   -0.7268824049    0.9843963754   -0.5637497534
 C    0.1481433967    1.0654010611    0.2586611016
 C    1.3906020724    1.9325516046    0.1066832230
 C    1.4628328483    2.7709086949   -1.1734357137
 C    1.4055462706    4.2179692346   -0.6822887010
 C    0.2295897909    4.6679470324    0.0893692354
 N    1.4900389535    4.2792544715    0.7920053122
 C    1.4217968848    2.9434402803    1.2875697251
 O    1.3859314857    2.6455315848    2.4472920663
 H    0.1032422585    0.5158181276    1.2206886558
 H    2.2505386164    1.2666430926    0.2445008092
 H    2.4002073029    2.5970286833   -1.7059758837
 H    0.6385517954    2.5263251497   -1.8485001653
 H    2.0061474504    4.9582763105   -1.2007527701
 H   -0.0125720975    5.7220305724    0.1743041419
 H   -0.6209897043    3.9954461941    0.1711406568