19

 C    0.1903226639    1.5103704704   -0.2401479810
 C    0.0578339371    0.0057068483   -0.1136897402
 C    1.3358681458   -0.8404994592   -0.0498997542
 C    0.5211273791   -0.6659021690    1.1837844571
 O    0.9469486170    0.1862409925    2.2003175334
 C   -1.1007956382   -0.6803833519   -0.7514382388
 O   -1.2222949854   -1.8945573165   -0.7419707807
 C   -2.1887877351    0.1449310206   -1.4284118751
 O   -3.1784127533   -0.6768505312   -1.9673207979
 H    1.0085314321    1.8655564633    0.3875466382
 H    0.3927834237    1.8094677708   -1.2737180855
 H   -0.7156830062    2.0267982509    0.0925116180
 H    1.3058198260   -1.8021826515   -0.5486237794
 H    2.2662868010   -0.2870134260   -0.1199666096
 H   -0.0853554887   -1.5117070094    1.5025755725
 H    1.7344934782   -0.1967602842    2.6005098136
 H   -2.6073110542    0.8435177525   -0.6843657451
 H   -1.7214902702    0.7721246099   -2.2052485423
 H   -2.9002062127   -1.5793890005   -1.7383002729