17

 N   -0.0035661978   -1.1625807194   -0.3291357755
 C   -0.0240768405   -0.0220721059   -0.1429414452
 C   -0.0358425749    1.4121779204    0.0954764445
 N   -1.1455058363    2.0096398235    0.0455239498
 C   -1.3038219529    3.4533648595    0.1141607903
 C   -0.6078595987    4.1942674031    1.2626081815
 C    0.9184337491    4.1709507683    1.1771738516
 C    1.5075645907    2.7804563340    1.3587933539
 O    1.2326471642    1.8651486368    0.2826846218
 H   -0.9546462819    3.8686795976   -0.8437314053
 H   -2.3788099889    3.6493249446    0.1626535925
 H   -0.9613929837    5.2314674668    1.2473668053
 H   -0.9346820788    3.7653597930    2.2186526717
 H    1.2540420116    4.5813988161    0.2165057768
 H    1.3448158417    4.8083539726    1.9613334662
 H    2.5982894943    2.8203891825    1.3926343109
 H    1.1503599128    2.3318619265    2.2950993492