18

 N    0.2206745961    1.2489179348   -0.3871847656
 C   -0.0488140618   -0.0859441068   -0.1099039728
 C   -1.1829077184   -0.7770828287    0.1932867986
 C   -0.7855488875   -2.1581211505    0.2522872789
 C    0.5443832385   -2.2105340644   -0.0061668084
 C    1.5498310906   -3.3010798641   -0.0905775642
 C    2.1018985195   -3.5101303360   -1.5039797943
 O    3.0601391634   -4.5549759258   -1.4359996514
 O    1.0067410165   -0.9248578833   -0.2373568603
 H    1.1419909480    1.5310108335   -0.0752151623
 H   -0.4836207318    1.8690927854   -0.0116884436
 H   -2.1652770530   -0.3648435427    0.3579951067
 H   -1.4178990622   -3.0045863604    0.4730440327
 H    2.3977802153   -3.1048733802    0.5782043201
 H    1.0849949710   -4.2316997115    0.2490464417
 H    1.2741171009   -3.7623328362   -2.1848172274
 H    2.5511781644   -2.5720357869   -1.8626319552
 H    3.4271708406   -4.6834412762   -2.3152415133