23

 C   -0.4225098387    1.4646242888   -0.0752872854
 C   -0.0051771042   -0.0006962621   -0.0560772424
 C    1.1864865778   -0.3642902368   -1.0685309046
 C    2.1409025348   -0.1396163548    0.1556624070
 C    3.0111944909   -0.7851788189    1.2989511929
 C    1.9345831793   -0.0739941456    2.2559566847
 C    0.9858363924   -0.4706498642    1.0685560940
 C    1.0302605235   -2.0209286599    1.2052136463
 C    2.5624318271   -2.2479927561    1.3594397635
 H    0.4342511140    2.1384493064    0.0265794231
 H   -0.9274812203    1.7117859043   -1.0155152571
 H   -1.1164509968    1.6832548206    0.7433164455
 H   -0.8957130364   -0.6305194855   -0.1557503106
 H    1.1165958533   -1.3871105270   -1.4414003869
 H    1.3254317005    0.3110282371   -1.9173366236
 H    2.3360596728    0.9368381717    0.1919858889
 H    4.0773598523   -0.5741286283    1.4059951175
 H    1.7759552345   -0.5240865427    3.2426311161
 H    2.1063741526    0.9997426773    2.3488812601
 H    0.4633802524   -2.3429097070    2.0845357898
 H    0.6106990704   -2.5435697395    0.3428150899
 H    2.9852480328   -2.8470663557    0.5475820908
 H    2.8349429051   -2.7271863421    2.3045368803