17

 O   -0.1318328370    1.4131665204   -0.0599912104
 C   -0.0544501945    0.0224480996    0.0053998614
 C   -0.4800536283   -0.6965844829    1.2516264651
 C   -1.3809344768   -0.7075900770    0.0204585885
 C   -2.7057803581    0.0410839262   -0.0374757715
 C   -3.6138541546   -0.8528363379   -0.9037713699
 O   -4.7643384782   -0.6208129938   -1.1944161963
 C   -2.8080547700   -2.0321493589   -1.2974978734
 C   -1.5751030888   -1.9405962590   -0.7774971289
 H    0.5582685162    1.7812219055    0.5020290273
 H    0.7470455443   -0.4205906596   -0.5865768348
 H    0.0324150572   -1.6120754561    1.5291762311
 H   -0.8177390608   -0.0867959238    2.0832525767
 H   -3.1662192692    0.1813378169    0.9449619253
 H   -2.6065220800    1.0303826562   -0.4918425307
 H   -3.1987488966   -2.8281138115   -1.9175780708
 H   -0.7798848948   -2.6682374341   -0.9069112486