20

 C    0.0770199885    1.6204135246   -0.0037141227
 C    0.1237688296    0.0975796937   -0.0262949429
 N    0.8040521390   -0.4810049761   -1.1947755849
 C    2.2678796039   -0.3147053780   -1.1690921708
 C    1.6697593932   -1.6052401100   -0.7350200414
 C    1.7263080879   -2.8352802828   -1.6048783006
 C    1.5394643330   -1.7725491495    0.7693006021
 C    0.7733529774   -0.5256211851    1.2245375047
 O    0.6816156015   -0.1091752001    2.3493215403
 H    1.0824735675    2.0496146824   -0.0476507344
 H   -0.4963412368    2.0014644843   -0.8521856398
 H   -0.3910670708    1.9546726534    0.9255350876
 H   -0.9090875512   -0.2835338912   -0.0446667432
 H    2.7320522235   -0.2302024721   -2.1474240682
 H    2.7108415150    0.3278738425   -0.4087289339
 H    1.7122613736   -2.5594722480   -2.6623181004
 H    2.6379659049   -3.4110265540   -1.4092797833
 H    0.8685448046   -3.4898818808   -1.4131489172
 H    0.9414671560   -2.6583464330    1.0215236661
 H    2.4888147897   -1.8604873803    1.3039488829