16

 C   -0.0511626890    1.4942097454    0.0320273066
 C    0.0067330623    0.0038589175   -0.0245560703
 N    0.0255045406   -0.6894063542   -1.0987465964
 C    0.0814849551   -2.1094936323   -0.6810018183
 C    1.2339924629   -2.8015911102   -1.2442061805
 C    2.1854307333   -3.3689117825   -1.7065303460
 C    0.0845021120   -2.0958527601    0.8640892118
 N    0.1047993584   -3.1133080194    1.6169394507
 N    0.0353603673   -0.7367624154    1.1583952568
 H    0.8193321269    1.8972183370    0.5615495592
 H   -0.0669889496    1.8901296899   -0.9830195902
 H   -0.9477092019    1.8306757572    0.5642833951
 H   -0.8360264156   -2.6091255754   -1.0195185809
 H    3.0239907771   -3.8765106659   -2.1145914218
 H    0.0885810967   -2.8613754251    2.6064685417
 H    0.0510151336   -0.3519318065    2.0880766324