11

 N    0.1128688707   -3.7045645840   -0.0190121564
 C    0.0687945897   -2.5427187949   -0.0120862148
 C    0.0162260549   -1.1819964210   -0.0039639291
 C   -0.0329005020    0.0289303588    0.0032560869
 C   -0.1156686104    1.4214536937    0.0119324040
 C   -1.1577222585    2.3081125922    0.0312753726
 N   -0.6652973547    3.5944099293    0.0313420836
 C    0.6226565961    3.4416894044    0.0125311938
 O    1.0456677993    2.1647967225   -0.0002732058
 H   -2.2141236230    2.0933565148    0.0448711886
 H    1.3854822979    4.2047217141    0.0059971768