11

 N   -0.0797015005    1.2829395398    0.1708656935
 C   -0.0175686738    0.0443913510   -0.0224445460
 O   -1.1380708864   -0.7034263203    0.2483013057
 C   -1.0673296580   -2.0415361344    0.1173446584
 C   -2.0915057910   -2.9161854912   -0.0656801420
 O   -1.5684629712   -4.1447974484   -0.0904503033
 N   -0.1751130639   -4.0075116134    0.0742756627
 N    0.0863689147   -2.7756912438    0.1997057536
 H    0.8053338612    1.7205227370   -0.0776652024
 H    0.8202830673   -0.5528758998   -0.3868020949
 H   -3.1558727884   -2.8096826566   -0.1787387452