17

 N   -0.0630820443    1.4369589118    0.0123676712
 C    0.0356616805   -0.0211174693   -0.0324741590
 C    0.1912621477   -0.5702353139    1.4231605578
 C   -1.3502306482   -0.6717071721    1.5324648726
 C   -1.4186818924   -0.6426722840   -0.0234261373
 C   -2.4717408893    0.1050343049   -0.6840225204
 N   -3.2970629723    0.7151266857   -1.2171804874
 C    0.9451573627   -0.5382019985   -1.0472790696
 C    1.7025012983   -0.9482454397   -1.8875826618
 H    0.8620059154    1.8295592656    0.1641504812
 H   -0.3868958633    1.7901466858   -0.8848346424
 H    0.6760155946   -1.5483619073    1.4288175754
 H    0.7037408300    0.0984733794    2.1159819941
 H   -1.7696826252   -1.5555368289    2.0133771505
 H   -1.7900113252    0.2271055821    1.9628424138
 H   -1.3812802553   -1.6548718265   -0.4329283608
 H    2.3703549963   -1.3070749750   -2.6316489379