17

 C   -0.2046465055    1.2499658788   -0.0230048128
 N    0.0904514612   -0.1751672713    0.1013775400
 C    1.5002907308   -0.5064004745   -0.1403914445
 C    0.9492412472   -0.5004551710    1.2485478686
 C    1.0520147046   -2.0449350278    1.3444516979
 C    1.6393873976   -2.0620767709   -0.0981270686
 N    0.5028580182   -2.8857048407   -0.5043068023
 C   -0.1473858949   -2.8192009645    0.7260593274
 O   -1.2092932086   -3.2283330276    1.0990690333
 H    0.6154388240    1.9070277549    0.3112539583
 H   -0.4224749960    1.4787646529   -1.0706227181
 H   -1.0940573397    1.4794534985    0.5709202091
 H    2.1578847251    0.1975950013   -0.6364348921
 H    1.0885321926    0.2113107055    2.0524840136
 H    1.5785129299   -2.4636695915    2.1986854476
 H    2.6274609688   -2.4603237905   -0.3276621059
 H    0.0588470547   -2.9497682616   -1.4104699815