18

 N   -0.1597374628   -1.1763968813   -0.2619276988
 C   -0.1029879634   -0.0286225538   -0.1314254070
 C   -0.0134131760    1.4148756251    0.0321524766
 C   -0.5866027513    1.9610415471    1.3870061484
 C    0.6186874565    2.7829084085    1.8989981546
 C    1.7047458563    1.8388219764    2.4573011576
 C    2.2872230876    1.2435481127    1.1390583057
 C    1.4437027221    1.9874704566    0.0832645422
 O    1.2107570286    3.2615013703    0.6795822956
 H   -0.5342493017    1.8827609249   -0.8072326226
 H   -1.4543330565    2.5965559055    1.2032411347
 H   -0.8813784855    1.1635315753    2.0711355453
 H    0.3582135120    3.6294785866    2.5335019217
 H    2.4598023953    2.4061434369    3.0054333554
 H    1.2966422219    1.0799167126    3.1289474955
 H    3.3426136869    1.4949118958    1.0179524406
 H    2.1871427560    0.1586731876    1.0700687001
 H    1.9039373940    2.1092329234   -0.8962669656