19

 O   -0.1493681633   -0.1166812431   -0.2892507661
 C    0.0450772598    1.0339655679    0.0040397356
 C    1.3499292528    1.7717396196   -0.1957520536
 C    1.1633923354    3.0420624704   -1.0483691057
 C    2.4500037712    3.8378644841   -1.1533191327
 C    3.4478576898    3.5830154068   -2.2322127348
 C    2.6881631461    4.9063842488   -2.2231286349
 C    1.6999965938    5.1690693081   -3.2932993122
 O    1.4481283482    6.2653619919   -3.7297359773
 H   -0.7653979904    1.6544162273    0.4557121910
 H    1.7220547223    2.0602211473    0.7984130421
 H    2.0761756073    1.0893739303   -0.6457956929
 H    0.8083448317    2.7532700637   -2.0430693487
 H    0.3765834435    3.6670052791   -0.6064076443
 H    2.8644629813    4.1162880543   -0.1870037482
 H    4.5078121336    3.6176624818   -2.0094223815
 H    3.1760552042    2.8747114890   -3.0099473750
 H    3.2241743674    5.7945650537   -1.9066834836
 H    1.1953194752    4.2633165491   -3.7017973270