16

 C   -0.0033629584    1.4494817188   -0.1124554719
 C    0.0679308570   -0.0427228445    0.0775115743
 N    0.2345281985   -0.7041982064    1.1451867047
 O   -0.0769922492   -0.6571768520   -1.1239991961
 C   -0.0555435040   -2.1051322396   -1.1198206745
 C   -1.4164252828   -2.6355399322   -1.0139410338
 C   -2.5270165372   -3.0812646283   -0.9217953467
 C    0.6150871105   -2.5461892360   -2.3412413671
 C    1.1811772950   -2.9331084263   -3.3260934567
 H    0.1391337317    1.9703353217    0.8354622108
 H    0.7616385066    1.7745517389   -0.8235933514
 H   -0.9749433414    1.7255718260   -0.5329867525
 H    0.3399484072   -0.0875994891    1.9461210401
 H    0.5146810098   -2.4233108558   -0.2388030762
 H   -3.5095299252   -3.4761175193   -0.8390708991
 H    1.6774237119   -3.2744757959   -4.2009231639