18

 O   -0.0453074310    0.0098042344    0.1292738488
 C   -0.0486198012    1.2090437762    0.0042183803
 C   -1.2766216800    2.0686991076   -0.1835237657
 N   -1.3154284752    3.1748074192    0.8189725647
 C   -0.8327377774    3.4476328549   -0.5408129332
 C    0.6921783475    3.5009450670   -0.6263765083
 C    1.4314870603    4.2073464733    0.5488156440
 C    1.7032853361    2.8225365310    1.2036208893
 C    1.1746155445    2.1192416512   -0.0948933558
 H   -2.2028585933    1.6141427859   -0.5151685405
 H   -2.2813167261    3.4818095514    0.9083249075
 H   -1.4344422204    4.0749442511   -1.1907454069
 H    1.0058142626    3.7773549118   -1.6356541732
 H    2.3441047156    4.7127358481    0.2241077864
 H    0.8291545524    4.9033028676    1.1352679741
 H    2.7445601047    2.6014812876    1.4454328763
 H    1.0840596465    2.6280939285    2.0793247481
 H    1.9581576644    1.6200562534   -0.6667760757