19

 C    0.1237345585    1.3752609073    0.1850187763
 O   -0.2815192055    0.0608132906   -0.1413550364
 C    0.4678644153   -0.5347334132   -1.1655037572
 C    1.8275800953   -1.2063460338   -0.8614368671
 N    2.9762432066   -0.9047174694   -0.4483021189
 N    1.4189253206   -2.5044102978   -1.3527274113
 C    0.2619707980   -2.8782014283   -0.4818632191
 C    0.0031558517   -1.9289507332   -1.5755772744
 C   -0.8029768160   -2.2393243731   -2.7992603591
 H    1.1232702877    1.3992640353    0.6410136684
 H    0.1269587040    2.0286314797   -0.7009068383
 H   -0.5973305998    1.7619900320    0.9085268779
 H    0.5568092186    0.1409739882   -2.0319312944
 H    3.0278806045    0.0850603820   -0.2037949673
 H   -0.0458215256   -3.9080504269   -0.6323065246
 H    0.2599226619   -2.5443048785    0.5512422853
 H   -1.8493377775   -1.9497950713   -2.6508149637
 H   -0.4224816386   -1.7011284409   -3.6734796837
 H   -0.7748881395   -3.3098383389   -3.0199683424