23

 C   -0.0689092711    1.5565210037   -0.0150743962
 C    0.0635230794    0.0291396640   -0.1152822109
 C    0.9420776753   -0.3472053206   -1.3182786483
 C    0.5971444413   -0.5810829783    1.1981889960
 C   -0.0665248959   -0.1095897794    2.5083818915
 C    0.2780604292   -1.2068366560    3.5353555785
 C    0.1534743507   -2.5074350517    2.7310158416
 C    0.4948928217   -2.1175241024    1.2883493898
 O    0.6382652343   -2.9014499045    0.3831487100
 H    0.9031863838    2.0210689861    0.1908638458
 H   -0.4363883570    1.9693414761   -0.9602884980
 H   -0.7612503570    1.8649739271    0.7733934268
 H   -0.9405735956   -0.3866953587   -0.2830359841
 H    1.9492970064    0.0733822755   -1.2043363177
 H    1.0328922203   -1.4288820763   -1.4190602025
 H    0.5192780914    0.0598413098   -2.2429114869
 H    1.6761481907   -0.3601149260    1.2666221338
 H    0.2669394327    0.8812561361    2.8239635562
 H   -1.1551361769   -0.0587581631    2.3717074832
 H    1.3091901152   -1.0768364281    3.8844930341
 H   -0.3679415444   -1.1799183893    4.4162246655
 H    0.7811710622   -3.3352071325    3.0697138408
 H   -0.8812103867   -2.8754250415    2.7273894109