20

 N    0.0599178467    1.3940927097    0.2096533848
 H   -0.0123558458    0.4726805484   -0.2302959786
 H    1.0516014065    1.6209111345    0.3140654543
 H   -0.3644955373    2.0833933932   -0.4147734013
 C   -0.6142425189    1.3893714348    1.5843646438
 C   -2.1082192738    1.0544443390    1.4943224038
 C   -2.4091875399    0.4093106943    2.8847351852
 C   -1.0585620040    0.4398884890    3.6436819921
 C   -0.0059695133    0.3601108787    2.5252730509
 C   -0.9374410188    1.8133404001    4.4509564410
 O   -1.7617441442    1.9228146318    5.3638055874
 O   -0.0586445306    2.6124010870    4.0321844842
 H   -0.4177028776    2.3673472247    2.0380031389
 H   -2.7158327985    1.9400860345    1.2887565385
 H   -2.2932108423    0.3366633646    0.6816714376
 H   -3.1557855390    0.9645316745    3.4539923992
 H   -2.7850934149   -0.6089576919    2.7393135271
 H   -0.9772766513   -0.3806627003    4.3584851875
 H    0.0374137456   -0.6359287098    2.0534123439
 H    0.9810304115    0.6637062632    2.8793101296