14

 C   -0.0230401612    1.4539763036   -0.0184389524
 N   -0.0058131789   -0.0072715964   -0.0019125620
 C   -0.0076807531   -0.6599688619    1.2281893209
 O   -0.0218951720   -0.0812757829    2.2895973065
 C    0.0121034730   -0.7457623367   -1.1937506727
 N    0.0347363707   -2.0255215918   -1.1829290513
 C    0.0036107572    0.0314607578   -2.4052592826
 C   -0.0020412754    0.6133807780   -3.4582026670
 H    0.8649161526    1.8498790222   -0.5177263943
 H   -0.9135015981    1.8289292009   -0.5292889869
 H   -0.0335920650    1.7774775446    1.0213868626
 H    0.0047339054   -1.7505681153    1.1150117794
 H    0.0437671697   -2.3851411640   -2.1339980003
 H   -0.0070766050    1.1281856320   -4.3880953700