12

 C    0.0086224305    1.4138435377    0.0501874435
 N   -0.0053688764   -0.0311458289   -0.0178343658
 C   -0.0921523851   -0.8134061973   -1.1222281359
 C   -0.0056077105   -2.1222790971   -0.6942015923
 C    0.1365077295   -2.0202431087    0.7038842996
 N    0.1388326554   -0.7524971398    1.1110164833
 H    1.0214215231    1.7887457599    0.2293412856
 H   -0.3622205739    1.8197348132   -0.8927440114
 H   -0.6376018773    1.7435649220    0.8659525572
 H   -0.2089751615   -0.3845666113   -2.1051481380
 H   -0.0482528034   -3.0118290626   -1.3010793791
 H    0.2313827597   -2.8137314170    1.4307448634