17

 N    0.0216262367   -1.1130944546    0.0162527547
 C    0.0047298123    0.0428355313    0.0198601521
 C   -0.0587235389    1.4968334541    0.0200246240
 C   -0.4919233038    2.1814314331   -1.3152358412
 C    0.8474152097    2.9675184920   -1.2473635265
 N    1.2528954288    2.2423818052    0.0079747490
 C    0.9045662323    2.8743527412    1.3020305973
 C   -0.4033589039    3.6164045067    1.3213187154
 C   -0.4175230851    2.1149797953    1.3888638935
 H   -0.5715576022    1.4879015162   -2.1528024823
 H   -1.4093881367    2.7686184835   -1.2499037022
 H    1.5414316380    2.7565983751   -2.0641355890
 H    0.7618209438    4.0509889848   -1.1301032481
 H    1.6763922159    3.0338636909    2.0455374163
 H   -0.6219925538    4.0983110939    2.2692370432
 H   -0.7830006279    4.1579223438    0.4614638253
 H   -0.8522774352    1.5586007878    2.2083865784