21

 C   -0.0621598707    1.5876268347    0.1329614955
 C    1.4703457086    1.4158240717    0.0440462537
 O    1.3030443816    0.1404071761    0.7423759253
 C    0.0158851682    0.0470724070    0.0518277420
 C    0.2764404282   -0.4666524616   -1.4160066177
 C   -0.1798963328    0.5531559334   -2.4926090825
 C    0.9627291064    1.6283622609   -2.4987527294
 C    1.9590196152    1.1167240015   -1.4249981563
 C    1.8066947310   -0.4081724887   -1.6104685858
 H   -0.3506396916    1.8998765004    1.1382102279
 H   -0.6107280050    2.1663286554   -0.6066002435
 H    2.1258781487    2.0976031467    0.5901252625
 H   -0.7012885132   -0.5629609409    0.6052434459
 H   -0.1600729261   -1.4572926148   -1.5629474173
 H   -0.2449843797    0.0555717370   -3.4649563768
 H   -1.1667160796    0.9783909576   -2.2913227095
 H    1.4578259090    1.6578551922   -3.4740968574
 H    0.5993520475    2.6402640296   -2.3008563479
 H    2.9734762678    1.4914980867   -1.5796758178
 H    2.3657064353   -0.9981106927   -0.8886792220
 H    2.0883297310   -0.7132090320   -2.6238764590