22

 C    0.3026787746    1.5333701673    0.1289816509
 C    0.0264911925    0.0602962309    0.1166621349
 C   -1.3398822535   -0.6056402854   -0.1326012555
 C   -0.9458555122   -1.7412202056    0.8600584238
 C   -1.7755703549   -2.0191521633    2.1415446905
 C   -1.3693803843   -3.5142778459    2.0356171215
 C   -0.9751719832   -3.2628308149    0.5545878112
 C    0.4101334225   -1.0457554678    1.0613195191
 N    1.1091744893   -0.8663780088   -0.2100203685
 H    1.3155807250    1.7286768041    0.4906719006
 H    0.2197289160    1.9551246280   -0.8801526423
 H   -0.4088318679    2.0636171366    0.7711688058
 H   -2.1847685218   -0.0182757560    0.2405578457
 H   -1.5462495577   -0.8940995794   -1.1705894206
 H   -1.4940835477   -1.4734767907    3.0469806171
 H   -2.8463570158   -1.8731844359    1.9669990788
 H   -0.4991318703   -3.7462077189    2.6554318211
 H   -2.1421504328   -4.2606753110    2.2319146297
 H   -1.7889705500   -3.5200170490   -0.1312391849
 H   -0.0522320497   -3.7200963559    0.1847653544
 H    0.9957562783   -1.0259998058    1.9757175620
 H    0.8442533037   -1.5673106126   -0.9015023956