21

 C   -0.0871897238    1.4490434240    0.0307095597
 C    0.0393029090   -0.0441748425   -0.0242316563
 C    0.9555880365   -0.8808083420   -0.9142015455
 C    0.1112438274   -2.1022072964   -0.4627453993
 C    0.4338277600   -2.2591848501    1.0519274401
 C   -0.2952393845   -0.9301081154    1.2078759356
 O   -0.8128571779   -0.3809437110    2.3668486641
 C   -1.0616503268   -1.1009241420   -0.0758260206
 C   -2.5183634071   -1.0471800741   -0.3965466137
 H    0.8558357895    1.9171894816    0.3413386884
 H   -0.3515326572    1.8681922586   -0.9468955179
 H   -0.8581172239    1.7507816130    0.7466049310
 H    0.8055430846   -0.6456981863   -1.9732961667
 H    2.0315332976   -0.9038357544   -0.6971756402
 H    0.0084571162   -2.9812216837   -1.0956141126
 H   -0.1368396441   -3.0733702906    1.5083335511
 H    1.4899752481   -2.3377067430    1.3393638207
 H   -0.1152323500    0.1155014819    2.8099510006
 H   -2.9938946852   -0.2107454024    0.1262495499
 H   -2.6962103158   -0.9155746377   -1.4703005525
 H   -3.0331736725   -1.9636032476   -0.0845743960