25

 C    0.0060195997    1.4997015974    0.0693744182
 C    0.0162211882   -0.0301223319   -0.0347938934
 C   -1.4245111782   -0.5651102547   -0.0085101317
 C    0.7256608475   -0.4853787376   -1.3353666913
 C    2.2640872966   -0.4502090021   -1.3133358795
 C    2.8997068166   -1.7017616341   -0.6858249072
 C    2.6551359579   -1.8702303569    0.8186705684
 C    1.1860420999   -1.7752978223    1.2376238998
 O    0.7082053884   -0.4429705492    1.1524364291
 H    1.0188461273    1.9049094454   -0.0055108049
 H   -0.6049678230    1.9409528604   -0.7237843571
 H   -0.4055556413    1.8014857984    1.0363455875
 H   -1.9768156128   -0.2440043755   -0.8980136940
 H   -1.4410311941   -1.6593882199    0.0129650161
 H   -1.9499209475   -0.1971397999    0.8774943232
 H    0.4028980849   -1.5021615692   -1.5939676199
 H    0.3516573249    0.1536510760   -2.1437244616
 H    2.6228511322   -0.3666857717   -2.3458957967
 H    2.6173434031    0.4483842322   -0.7935166369
 H    2.5160288193   -2.5859704879   -1.2145808731
 H    3.9809997595   -1.6865021086   -0.8684203342
 H    3.0554522060   -2.8387183250    1.1462793791
 H    3.2010756732   -1.0980535976    1.3748822166
 H    0.5659146504   -2.4711219027    0.6542053788
 H    1.0859118715   -2.0676653828    2.2897950548