25

 C   -0.5674219672    1.3513282134    0.0176416779
 C   -0.0704828438   -0.0779289529    0.0187708706
 C   -0.5824626391   -1.0038372387    1.1024282447
 C    0.8719754504   -0.5946858741    1.0872889640
 C    1.8476542227   -1.5698051261    0.4492828605
 C    1.1650764694   -1.9767779269   -0.8755483355
 C    0.3133248234   -0.7516104798   -1.3189941478
 C   -0.9130960383   -1.1807526951   -2.1368968109
 C    1.1843644959    0.1987191418   -2.1647831618
 H    0.1756045432    2.0470438037   -0.3852137411
 H   -1.4816959743    1.4596536779   -0.5785221625
 H   -0.8042511044    1.6779966219    1.0351358635
 H   -1.2144303236   -0.5555920203    1.8622069521
 H   -0.8489834963   -2.0297419996    0.8695206034
 H    1.2284194619    0.0605533307    1.8760377118
 H    2.8012548678   -1.0638112839    0.2569961257
 H    2.0694523380   -2.4368696982    1.0817379072
 H    1.8850746581   -2.2684704103   -1.6458496647
 H    0.5165969276   -2.8438819184   -0.7144523366
 H   -1.5629161952   -1.8449156922   -1.5582319271
 H   -1.5094516925   -0.3154208399   -2.4470594569
 H   -0.6124067131   -1.7131977216   -3.0465035337
 H    1.5370123726   -0.3126756182   -3.0669672623
 H    0.6270532137    1.0836863621   -2.4869922567
 H    2.0635117527    0.5420774546   -1.6092067940