22

 C   -0.0212154441    1.5690642833    0.0979687809
 C   -0.0008678071    0.0386257115    0.0288724112
 C    0.7140383459   -0.5118610520   -1.2053172371
 C    2.2241958461   -0.1579948258   -1.3232130358
 C    2.8217970576   -1.2950430062   -2.1442637161
 N    3.0496384025   -2.5237484157   -1.3512204542
 C    1.8505641705   -2.4170668413   -2.2107447541
 C    0.6251833010   -2.0632551452   -1.3539684176
 O    0.6366682309   -2.7601239334   -0.1235265559
 H    0.9907073118    1.9850901414    0.1492076770
 H   -0.5112533506    2.0021031965   -0.7819394603
 H   -0.5639640199    1.9159995024    0.9829386314
 H    0.4744840780   -0.3731425992    0.9255266823
 H   -1.0302465948   -0.3412533806    0.0391529181
 H    0.2275389866   -0.1027319212   -2.1032566869
 H    2.3776593829    0.8095026695   -1.8089878727
 H    2.7056212682   -0.1107664111   -0.3397829709
 H    3.5061478709   -1.0836897813   -2.9596953641
 H    3.7461583446   -3.1123076118   -1.7999707864
 H    1.7611169543   -3.0732290846   -3.0695665059
 H   -0.3062805909   -2.3420247476   -1.8576234092
 H    1.5763834258   -2.8630840175    0.0933589264