13

 N   -0.1665606198    1.3039554285    0.0089176242
 C    0.0105519139    0.0448958086    0.0010629589
 N   -1.1375788213   -0.7785728925    0.0028001415
 C   -1.0558201303   -2.1281230000   -0.0051573514
 N    0.0862894501   -2.7655338758   -0.0148807777
 C    1.1848231750   -1.9366188796   -0.0162499357
 N    1.2229295278   -0.6413981673   -0.0092984845
 C   -2.2899321328   -2.8488170489   -0.0023688116
 C   -3.3428069373   -3.4279043909    0.0001941170
 H    0.7426504945    1.7632294612    0.0064896010
 H   -2.0334734282   -0.3103238885    0.0102786743
 H    2.1394869413   -2.4596768806   -0.0243033094
 H   -4.2650780031   -3.9568428542    0.0022749334