14

 N    0.1104021654    1.3453331587   -0.1785880052
 C   -0.0676481266    0.0072636439    0.0154240073
 C   -1.2108384721   -0.6941686286   -0.1561831614
 C   -1.2099170041   -2.1277517422    0.0235595473
 O   -2.1573178714   -2.8768151037   -0.1021308200
 N    0.0499735537   -2.6420060224    0.3829045477
 C    1.2109837539   -1.9409739030    0.5759427661
 N    2.3007318877   -2.4835139137    0.9112828005
 O    1.1091386872   -0.5715210610    0.3758038123
 H    0.9101959773    1.7589923850    0.2745476645
 H   -0.7181938135    1.9165451033   -0.2061943394
 H   -2.1336915694   -0.2088381439   -0.4368857153
 H    0.1075416379   -3.6403121663    0.5239606590
 H    3.0418204541   -1.7931961261    0.9985141265