14

 N   -0.0260481348   -1.1407651350    0.2801939370
 C   -0.0156425862    0.0103147280    0.1830760118
 C    0.0033808522    1.4646887376    0.0425935926
 C    1.4175786813    2.0219531839   -0.1500235518
 C    1.5675176825    3.5585127511   -0.1279915496
 C    2.5241845333    3.2967348684    1.0534090444
 O    2.2265135054    1.8821951659    1.0318335374
 H   -0.6146875955    1.7433704703   -0.8197090148
 H   -0.4464669426    1.9164583044    0.9333655202
 H    1.8890937409    1.5333047366   -1.0126061008
 H    2.0046625952    4.0100146246   -1.0188903350
 H    0.6532822568    4.0947186837    0.1360587012
 H    3.5828267411    3.4909176259    0.8441875518
 H    2.2601619904    3.7555478848    2.0122907355