16

 C    0.1057919528   -1.2515660489   -0.0440149261
 C    0.0358384954   -0.0490514591   -0.0242772110
 C    0.0128070399    1.3652026814    0.0137260730
 C   -1.0321189042    2.1514984409   -0.2796694755
 C   -0.7110773484    3.6175683900   -0.0574149808
 C    0.8448932038    3.6215623242    0.0541555075
 C    1.2154728187    2.1803516474    0.4663204940
 C   -1.2202900056    4.5022901431   -1.1065765933
 N   -1.6199466438    5.2014427281   -1.9355996962
 H    0.1496337864   -2.3124626607   -0.0666045878
 H   -2.0104054750    1.8111238848   -0.5923420532
 H   -1.1650928278    3.9527241986    0.8873127724
 H    1.2670170338    3.8474332765   -0.9280475388
 H    1.2029792575    4.3794050902    0.7531717161
 H    1.3459361357    2.0807689756    1.5513857221
 H    2.1457154607    1.8372570978    0.0050376278