17

 N   -0.0710326111    1.4004122874    0.0673319289
 C   -0.0166891983   -0.0259022082   -0.0458127212
 C    0.9062279347   -0.7309364532   -1.0375671865
 O    0.3788710050   -2.0344459687   -1.2190236960
 C   -1.0294719400   -2.0008640377   -0.9978429688
 C   -1.2646880134   -0.8683563316   -0.0199044919
 C   -0.3668181203   -0.8151027658    1.2100347569
 C    0.4002026998   -1.9395407207    1.6703748764
 N    1.0129504858   -2.8268700769    2.0895536129
 H    0.8134149975    1.7694768606    0.4048433597
 H   -0.2453614254    1.8254467032   -0.8393222976
 H    0.9084517139   -0.1540897845   -1.9789446265
 H    1.9402157401   -0.8380220056   -0.6933097620
 H   -1.5790774099   -1.7991512058   -1.9311590341
 H   -1.3222175575   -2.9877075591   -0.6273608379
 H   -2.2454663094   -0.4172337992    0.0637446286
 H   -0.7502302214   -0.1896481544    2.0092756991