20

 O   -0.0414617598    1.4904099490    0.2356388553
 C    0.0093009436    0.0788638439    0.3716535975
 C   -1.3469618921   -0.5047947536    0.0092460600
 C   -2.5629370181    0.2767209354    0.3425901255
 N   -2.1130956308    0.1459963560   -1.0599758161
 C   -1.3625999150   -2.0163683122    0.0149611516
 C   -2.6194928838   -2.7619269696   -0.4857363710
 O   -1.8388788203   -3.5385727254   -1.4195232407
 C   -0.6602709298   -2.7583958789   -1.1496807823
 H    0.8430538814    1.8428547954    0.3640428105
 H    0.7750952455   -0.3506606717   -0.2947870752
 H    0.2678055581   -0.2151581258    1.4015966621
 H   -3.4920512884   -0.2372938293    0.5750403246
 H   -2.4288481037    1.2361121470    0.8312539364
 H   -1.6337505759    1.0051883784   -1.3214707939
 H   -1.0303708748   -2.3807165226    0.9925853149
 H   -3.1365798417   -3.3965636105    0.2429483707
 H   -3.3415710255   -2.1191863814   -1.0015863034
 H   -0.3982271447   -2.1083684234   -1.9957879745
 H    0.2009975660   -3.3874778807   -0.8949687019