19

 C    0.8032668652   -0.2432159805    1.2261504585
 C    0.0429858600    0.1929743171   -0.0269799635
 C    0.6787568023   -0.4029666361   -1.3073993405
 C    0.0339536270    0.0860549171   -2.6208015729
 O   -0.0658201330    1.4836408372   -2.6519287344
 C    0.8339862285   -0.4103830186   -3.8083773476
 O    1.2866358102    0.3503333309   -4.6290633556
 C   -1.4332338034   -0.1493956585    0.0631407085
 O   -1.9279507568   -0.8242117951    0.9310250166
 H    0.7582803348   -1.3285981722    1.3535197569
 H    1.8538090242    0.0556449155    1.1635509014
 H    0.3682680042    0.2067937652    2.1218721653
 H    0.0905228576    1.2844108057   -0.1441099127
 H    1.7385520996   -0.1215570034   -1.3122147246
 H    0.6345202910   -1.4990383302   -1.2693101815
 H   -0.9672850465   -0.3721237254   -2.7191102067
 H    0.3879312744    1.7622733618   -3.4636355627
 H    0.9820389540   -1.5068607826   -3.8817986649
 H   -2.0648713432    0.2836109520   -0.7444869796