19

 O   -0.1600071584    0.1176952502    0.6372643605
 C   -0.1168655194    1.2588287704    0.2567070124
 C   -1.2869724686    2.1109113418   -0.2399199455
 C   -0.6542073433    3.4507940874   -0.6636685076
 C    0.6397420781    3.5469426401    0.1796362136
 C    1.1639903928    2.1220405443    0.1906550007
 C    2.3574992540    1.6425816327    1.0283495529
 C    2.9479086384    1.1864240682   -0.3194789139
 O    1.8495478692    1.7794891685   -1.0548488787
 H   -1.8400018125    1.5948828519   -1.0287559302
 H   -1.9798667532    2.2349527064    0.6020035940
 H   -0.3885995762    3.4208332862   -1.7246386259
 H   -1.3195726133    4.3036190802   -0.5132062175
 H    1.3722251412    4.2490760021   -0.2254202236
 H    0.4047901396    3.8511158097    1.2085570824
 H    2.9084814580    2.4412875243    1.5276571286
 H    2.1192590814    0.8468928761    1.7350441110
 H    3.9069334095    1.6269667357   -0.6129342880
 H    2.9882598228    0.1007945437   -0.4597990555