16

 O    0.1264086307    1.3604030473    0.1332570347
 C    0.0873989199   -0.0207970583    0.1030705576
 C    0.8936394109   -0.7729518751    1.1307680537
 N    0.5797637239   -2.1663496579    0.7539229233
 C    0.3682559173   -2.1869455900   -0.7142189749
 C   -0.8014276476   -2.1741657096    0.2127629445
 C   -1.2977669919   -0.7429053886   -0.0555726095
 O   -1.1926937481   -0.5682553561   -1.5046308122
 C    0.2395887883   -0.7597005697   -1.2739367249
 H   -0.4396610581    1.6725637609   -0.5853747094
 H    1.9700349949   -0.5938435694    1.0507442717
 H    0.5723368778   -0.5785739690    2.1584319213
 H    0.7269438455   -3.0400375636   -1.2750272398
 H   -1.4407225932   -3.0163550139    0.4428669748
 H   -2.2368035818   -0.3922633114    0.3699063915
 H    0.8729338113   -0.4262395255   -2.0945770625