19

 C    0.1345053175    1.6223085704    0.0777270891
 C    0.0382041016    0.0899811984    0.0255308599
 C    0.6601655684   -0.5213373133   -1.2204253069
 C    1.5851961214   -1.4405143030   -0.9381989067
 C    1.7452798462   -1.5742101879    0.5443009030
 C    2.2820139473   -2.8181203952    1.1936220230
 O    3.6398636705   -3.0363341171    0.8434468625
 O    2.2161910157   -0.3318875566    1.1558396075
 C    0.8114025700   -0.6094053092    1.1471115452
 H    1.1829278996    1.9303863678    0.0960614040
 H   -0.3455425362    2.0750853590   -0.7953677681
 H   -0.3573938278    2.0165001880    0.9726775303
 H   -1.0205233420   -0.1993245798    0.0939428568
 H    0.3883152379   -0.1862370891   -2.2160013255
 H    2.1735330257   -2.0101986660   -1.6460517095
 H    2.1495407666   -2.7449520759    2.2830023177
 H    1.7319352787   -3.6974500587    0.8418458738
 H    4.1250663347   -2.2490588120    1.1159162019
 H    0.3605560442   -0.7432116296    2.1279428219