17

 O    0.0566265619    1.3824713496   -0.1142763856
 C    0.0657658975   -0.0222488546    0.0554294084
 C   -1.3510150392   -0.5799013203    0.0853989292
 O   -2.0052078556   -0.1884592849   -1.1448020426
 C   -2.7756028047   -1.2806618521   -1.5822806896
 C   -2.0610176522   -2.6037384717   -1.8080760634
 O   -0.8006298836   -2.5808276662   -1.1407203518
 C   -1.4732383454   -2.1001672039    0.0698198526
 C   -2.8646928843   -2.3670244915   -0.5502530715
 H   -0.4476172040    1.5490788160   -0.9190115012
 H    0.6255026917   -0.5311768163   -0.7399818840
 H    0.5614437647   -0.2216078846    1.0119738434
 H   -1.9036684807   -0.1535327927    0.9374543595
 H   -3.6216097135   -1.0068844574   -2.2010560510
 H   -2.1841934196   -3.2721589490   -2.6524827268
 H   -1.1518199870   -2.6334352671    0.9648236287
 H   -3.7379679760   -2.8244346932   -0.1069092945