18

 O   -0.0717989400    0.0110126082   -0.4151881907
 C    0.0154899549    1.1531147546   -0.0367429294
 C    1.2713981751    1.9292165298    0.0408222440
 C    1.1907216888    3.4618051579   -0.1737733446
 C    1.4549066045    2.9165130665    1.1619829928
 C    0.8712700868    3.0808076992    2.5676818916
 C    2.0212238671    2.1298300698    2.9757116743
 N    2.7290985674    3.0676022794    1.9702064636
 C    1.9435884571    4.1886751236    2.6919010332
 H   -0.8881467856    1.7196690610    0.2948856124
 H    2.1576519330    1.4224356136   -0.3266902156
 H    2.0104064898    3.9038536845   -0.7295307979
 H    0.2104840793    3.8768322756   -0.3910932522
 H   -0.1754340415    3.0872369440    2.8864497571
 H    2.4164666610    2.2156750284    3.9906872001
 H    1.9760170238    1.0911387939    2.6425451727
 H    1.8260834117    5.0930131580    2.0912530594
 H    2.3344575967    4.4087792119    3.6883827892