18

 C    1.0645557751    1.0325185521    0.4498147420
 C   -0.0100290127    0.0758635358   -0.0745935282
 N   -0.5524760989   -0.8692862864    0.9178425121
 C    0.2859053067   -1.9129065391    1.3321781387
 C    1.2898356366   -2.0607315007    2.2622816057
 O    1.7758384898   -1.0927478673    3.0789048739
 N    1.7658376981   -3.3366469228    2.3026648754
 C    1.0668247344   -3.9942786978    1.3935025312
 N    0.1640098812   -3.1912265051    0.7871391526
 H    1.9147270656    0.4836430208    0.8628614118
 H    1.4266830898    1.6845328943   -0.3528002614
 H    0.6630347885    1.6709393276    1.2447893957
 H   -0.8554587223    0.6473786304   -0.4767430590
 H    0.3879733458   -0.5201162945   -0.9032162443
 H   -0.9300050366   -0.3683971208    1.7142237834
 H    2.4527699874   -1.5167258856    3.6200724878
 H    1.1881730756   -5.0366858911    1.1420727280
 H   -0.5167721840   -3.4437821198    0.0902640645