20

 C    0.2707507838    0.9901372507    0.4005289896
 O   -0.6225007927    0.3040711669   -0.4672254101
 C   -1.2032322829   -0.7986720803    0.0540252716
 N   -2.0548180593   -1.4300836929   -0.6209352114
 C   -2.6835264795   -2.6441353335   -0.1308663696
 C   -2.4359366720   -3.7557868830   -1.1611900983
 C   -2.2861786318   -3.1438524816    1.2862625718
 C   -2.6873475610   -2.2667405630    2.3793839829
 C   -3.0345941249   -1.5437443228    3.2754539538
 H    0.6928589793    1.8117934706   -0.1794599344
 H   -0.2514285725    1.3984993280    1.2742738262
 H    1.0849060523    0.3379161151    0.7406900539
 H   -0.8610454282   -1.0416942239    1.0669390097
 H   -3.7628069943   -2.4418609265   -0.1084886386
 H   -3.0211001168   -4.6502603450   -0.9250660558
 H   -2.7126720766   -3.4048626440   -2.1575043154
 H   -1.3756723943   -4.0311343690   -1.1832389885
 H   -2.7523036166   -4.1257759220    1.4323685463
 H   -1.2024107389   -3.3195115756    1.3208849419
 H   -3.3440117432   -0.9094317181    4.0686928545