18

 C   -0.0264928571    1.5559521372    0.1916393008
 C   -0.0421500253    0.0346252110    0.0419689941
 O    0.6108536802   -0.6068580100    1.1209403673
 C   -1.4783729394   -0.5269068691   -0.0646608502
 C   -1.6284738840   -2.0725234764   -0.0019051779
 C   -2.4493216302   -1.8012580820    1.2712504903
 O   -2.1624988384   -0.3780296956    1.2052554258
 C   -2.2271578208    0.0986491756   -1.1635458974
 N   -2.7991302249    0.5756741539   -2.0475613420
 H    1.0009147032    1.8936022159    0.3455607504
 H   -0.4310980260    2.0499325348   -0.6957258833
 H   -0.6277340962    1.8596198768    1.0553826771
 H    0.5028551615   -0.2649816871   -0.8607520529
 H    0.1114884251   -0.3720374611    1.9137690883
 H   -2.1583099683   -2.5324767037   -0.8345116268
 H   -0.6747212248   -2.5676725065    0.1731047317
 H   -3.5241657881   -1.9910773410    1.1836179612
 H   -2.0741659965   -2.2419595627    2.1995158234