21

 C    0.7412187032    1.3830785665   -0.0994225522
 C    0.0350302282    0.0327725080   -0.0158068854
 C    0.3552917332   -0.9235842913   -1.1862553780
 C    1.4948571954   -1.7925953160   -0.6303924713
 O    2.7707475211   -1.1640822850   -0.7336417977
 C    1.1117131912   -1.8592548044    0.8302161985
 C    0.6168054001   -3.1330953256    1.4686309708
 C    1.9447311825   -2.5149145203    1.8766240522
 O    0.4695288016   -0.6522997441    1.1713592246
 H    1.8169498561    1.2340080796   -0.2212795889
 H    0.3616198201    1.9663528869   -0.9458378669
 H    0.5680245485    1.9553698512    0.8163186608
 H   -1.0479417243    0.1904110721    0.0674830248
 H   -0.5071652680   -1.5581224000   -1.4137976669
 H    0.6358234390   -0.3947871920   -2.1017474656
 H    1.5215355797   -2.7901060268   -1.0883613973
 H    2.9563586826   -1.0295073026   -1.6687806735
 H   -0.2096394214   -3.0324143724    2.1630931428
 H    0.6247470177   -4.0537114715    0.8935575727
 H    2.8669777208   -2.9952265290    1.5696820402
 H    1.9870983425   -2.0187115933    2.8394211565