17

 C   -0.1409638539    1.6146746594   -0.0035783471
 C   -0.0426742821    0.0972594994    0.0021482973
 C    1.1548982056   -0.5822779027   -0.7020184277
 C    2.1176994827   -0.3419216071    0.5160684265
 N    2.5307358558   -1.7750836018    0.6845607683
 C    1.0943329996   -1.8308398353    0.2583626516
 C    0.3545843791   -3.0508068587    0.0655292405
 N   -0.2448623848   -4.0245209754   -0.1079822432
 C    0.7147037838   -0.6014068639    1.1552560865
 H    0.8198932976    2.0871742075    0.2255236796
 H   -0.4681980213    1.9808358410   -0.9823539484
 H   -0.8682289379    1.9615271204    0.7380326392
 H   -1.0100663241   -0.3612885229   -0.2309935545
 H    1.4261036804   -0.6118887271   -1.7590624865
 H    2.7975201835    0.4883505394    0.6950280362
 H    3.1337923533   -2.0641408634   -0.0915633140
 H    0.4934605228   -0.6580788688    2.2205483756