14

 O   -0.0384201787    0.0192146257    0.2769704709
 C   -0.0548327550    1.2029791021    0.0352415533
 C   -1.2541299883    2.0563196409   -0.1914624441
 C   -0.9024370321    3.3235247301   -0.4427111683
 C    0.5943166168    3.5091891677   -0.4401306710
 O    1.0757490928    4.1002508414    0.7978548999
 C    1.6021532823    2.8300997295    1.2377264502
 C    1.1581206109    2.1262786477   -0.0735462807
 H   -2.2595275720    1.6598240964   -0.1214194726
 H   -1.5837366912    4.1536316562   -0.5942631556
 H    0.9794106612    4.0419118998   -1.3154131625
 H    2.6865966030    2.8739780570    1.3821774835
 H    1.1268804180    2.4736045278    2.1588349220
 H    1.9586145724    1.6958426177   -0.6726744650