14

 C   -0.0496807334    1.5113680214    0.0252887234
 C   -0.0141904509    0.0580357056    0.0240775642
 C    0.0146880829   -1.1450733091    0.0185262601
 C    0.0807930155   -2.5770925784   -0.0111357044
 C   -0.5491788272   -3.4001240616    1.0591152775
 O   -1.1537234912   -3.3097136162   -0.2119194443
 C    1.2349738174   -3.2313726565   -0.7285897947
 O    2.2141230101   -2.6621010785   -1.1236027758
 H    0.8256942627    1.9228589562   -0.4881223143
 H   -0.9434043684    1.8817724721   -0.4883444108
 H   -0.0599118066    1.9097450762    1.0454861072
 H   -0.1208729850   -4.3692128292    1.3160313917
 H   -1.0461681277   -2.8678935812    1.8675605684
 H    1.0770371517   -4.3252167708   -0.8571255083