21

 C   -0.0996875061   -1.1980528839   -0.0871262188
 C   -0.0742562361    0.0023985222   -0.1467471108
 C   -0.0069446581    1.4567970355   -0.2047784929
 C    1.3887843031    2.0083633540    0.1902634056
 C    1.4642871840    3.5048731031    0.1242544314
 C    1.6179927400    4.3407796651    1.1540273609
 C    1.7107332607    5.7856560435    0.7298608708
 C    1.2550205622    5.7410652158   -0.7518241992
 C    1.4335180215    4.2666408865   -1.1898334594
 H   -0.1363277463   -2.2579316366   -0.0394315647
 H   -0.2640783987    1.7933633500   -1.2165018526
 H   -0.7624330223    1.8897643468    0.4623363985
 H    1.6268134492    1.6633540514    1.2011913311
 H    2.1333955603    1.5612864789   -0.4809922988
 H    1.7175103444    4.0274078868    2.1886498285
 H    1.0901594414    6.4533910088    1.3384435996
 H    2.7422720080    6.1537003560    0.8304368484
 H    0.1958211404    6.0105858903   -0.8123664713
 H    1.8021001216    6.4419974695   -1.3872645823
 H    2.3768860678    4.1099262045   -1.7338091476
 H    0.6378198631    3.9348668218   -1.8669609261