15

 O   -0.1320153796   -0.0889816648    0.3277714830
 C   -0.0936909715    1.0974289865    0.0925260671
 N    1.0390475109    1.8208404824   -0.1576095945
 C    2.3487966172    1.2366286725   -0.1694591195
 C    3.4059027519    1.5808357515   -1.2634240931
 C    3.6162134755    2.9838933954   -0.6401443906
 C    3.5771539498    1.9303196978    0.4955721094
 O    4.4320018614    1.0584383510   -0.3369661429
 H   -0.9979617472    1.7369198101    0.0546419225
 H    0.9286053322    2.8055209762   -0.3394796322
 H    2.2636025345    0.1748816579    0.0495643727
 H    3.4572151538    1.2658440727   -2.3056582192
 H    4.5982630457    3.4210414984   -0.8225698513
 H    2.8175168600    3.7287788303   -0.7104911372
 H    3.8326695955    2.0320154720    1.5503202158