18

 O    0.1357778095    1.3822592159   -0.0686489826
 C    0.0580865844   -0.0239345614    0.1318757546
 C   -1.3567742043   -0.5217360398    0.1321775120
 C   -2.3926071724   -0.2071840670    1.2237772944
 C   -2.9516984974   -1.6588700390    1.1075114699
 C   -1.9275758687   -1.9607366666    0.0064581767
 C   -2.0547533722   -0.9683566105   -1.1140900203
 O   -3.2686224375   -0.3767892410   -1.4835723896
 H   -0.3646832519    1.5853855434   -0.8663236596
 H    0.6476937896   -0.5730229418   -0.6214993923
 H    0.5295425364   -0.2043316442    1.1048987287
 H   -1.9227869840   -0.0152089791    2.1909491755
 H   -3.0873753268    0.6032677265    0.9957629934
 H   -2.7827630766   -2.2463218114    2.0119311322
 H   -4.0019389214   -1.7545301809    0.8171922946
 H   -1.3983066023   -2.8983144094   -0.1266774043
 H   -1.3787686753   -1.1617606477   -1.9499064187
 H   -3.8230414290   -1.0556982658   -1.8826575347