25

 C   -0.1864227960    1.5471604503    0.1550511676
 C   -0.0249463662    0.0399385832   -0.0126023292
 C    0.8481738342   -0.5690227333    1.0896308029
 O   -1.3389866802   -0.5052702724   -0.0178236028
 C   -1.4504897377   -1.8199415023   -0.5199100776
 C   -2.9304616527   -2.1601528828   -0.6472378618
 C   -3.1637130571   -3.5774505505   -1.1757820956
 C   -4.6413971296   -3.9214685321   -1.3062302591
 O   -4.7404732978   -5.2486752682   -1.8012826443
 H    0.7862066611    2.0473139628    0.1262240712
 H   -0.8143890287    1.9542237165   -0.6417252780
 H   -0.6630208344    1.7724624231    1.1145587364
 H    0.4460950091   -0.1636696123   -0.9902326124
 H    0.3917126990   -0.3979078227    2.0700906327
 H    0.9813934263   -1.6463343120    0.9563286395
 H    1.8422545429   -0.1104561863    1.0861655530
 H   -0.9553468890   -1.8965629512   -1.5037365346
 H   -0.9571047294   -2.5475417218    0.1446499301
 H   -3.3991167636   -2.0388094895    0.3371747676
 H   -3.4004335680   -1.4224968579   -1.3091137948
 H   -2.6930166196   -3.7010007978   -2.1590636446
 H   -2.6955422663   -4.3146078745   -0.5117580801
 H   -5.1331409471   -3.8241809626   -0.3242546926
 H   -5.1307751773   -3.2046466281   -1.9860922984
 H   -5.6725192218   -5.4691712073   -1.8854135451