18

 C   -0.0841750788    1.4166731682   -0.0234003379
 C    0.0569839033   -0.0671616926    0.0809577515
 C    0.9948699307   -0.9355911601   -0.6837532620
 C    1.0522696690   -2.1480208650    0.2720153881
 O    1.0706168413   -1.6377571585    1.6251827483
 C   -0.1884359486   -1.0120221002    1.2891751189
 C   -0.5034234938   -2.0705534132    0.1927105989
 C   -1.5015034345   -3.1795328027    0.2133827324
 N   -0.4856068525   -1.0286306519   -0.9424501828
 H    0.6401981948    1.9214337408    0.6253271030
 H    0.0873792109    1.7469998505   -1.0521552592
 H   -1.0885263982    1.7409768237    0.2691047302
 H    1.6935307262   -0.5895751327   -1.4351847198
 H    1.7032397033   -3.0023299012    0.0959223091
 H   -0.7936931107   -0.7120951302    2.1434784985
 H   -2.5215868517   -2.7819127821    0.2371080859
 H   -1.4052126746   -3.8040355236   -0.6809037832
 H   -1.3535093361   -3.8102809090    1.0962167100