21

 C   -0.1194652042    1.5339007278    0.0067215863
 C    0.0271693539    0.0161463965   -0.0161799072
 C    1.0998451985   -0.5950059126   -0.9686765320
 C    2.3862057903   -0.0434283100   -0.2807345925
 O    2.0681724287   -0.0710137575    1.1116119459
 C    0.7110814148   -0.6262839564    1.2193592945
 C    0.1911307740   -0.3469185458    2.6080273078
 C    0.8097155491   -2.0768696042    0.7636537353
 C    1.0361213511   -2.0526584782   -0.5539737229
 H    0.7893065714    2.0269572153    0.3598556383
 H   -0.3551386665    1.9182429288   -0.9916844950
 H   -0.9376785330    1.8317546051    0.6707361744
 H   -0.9406347676   -0.4552806786   -0.2063616222
 H    1.0195925554   -0.3723926328   -2.0329636283
 H    3.2651410899   -0.6659107405   -0.4854650807
 H    2.6053034233    0.9865290834   -0.5891108064
 H    0.1681379046    0.7275218887    2.8077636309
 H   -0.8200939883   -0.7486057179    2.7248169525
 H    0.8356143028   -0.8155361980    3.3579130282
 H    0.8047247644   -2.9326781616    1.4274833111
 H    1.2555938175   -2.8903858016   -1.2043826783