19

 C    0.0053082218    1.4303964950    0.0170772785
 C    1.4826749702    1.9260647978   -0.0048132882
 C    2.2035488630    0.6717575114    0.4690940387
 O    3.5576811568    0.5014256812    0.1114357312
 C    3.9619166203   -0.7781382669    0.5632760631
 O    3.1962598717   -1.8364817356    0.0423136927
 C    1.8050971357   -1.7588102094    0.3727240688
 C    1.3386930050   -0.4150319311   -0.1622363772
 O    0.0256689280   -0.0087344439    0.1511918178
 H   -0.5554496774    1.8304882384    0.8670873654
 H   -0.5237731731    1.7078615907   -0.9026438443
 H    1.8062547634    2.1773931021   -1.0190305658
 H    1.6410478929    2.7974056893    0.6333671104
 H    2.1013586818    0.5851329457    1.5658507080
 H    4.9837590265   -0.9309128015    0.2132898959
 H    3.9226041620   -0.7983702733    1.6686089489
 H    1.3229525680   -2.6155169400   -0.1030470230
 H    1.6489561143   -1.8208469595    1.4610704196
 H    1.5139646091   -0.4114392005   -1.2512735707