16

 O   -0.0428492995    1.4991538110   -0.1923632371
 C    0.0527132624    0.1023576231   -0.1092869053
 C   -1.3259880674   -0.5680769011    0.0320519321
 C   -1.3251590772   -2.1003345112    0.0872190074
 C   -2.3110717489   -2.4477039144    1.1892998277
 O   -2.7849057287   -3.4942558032    1.4924701479
 O   -2.6151122939   -1.2850783887    1.8952019224
 C   -2.0010946086   -0.1879331281    1.3342726547
 N   -1.9992717180    0.9616870861    1.8515205376
 H   -0.5607504431    1.7854411422    0.5771959908
 H    0.5275096354   -0.2467097308   -1.0328668324
 H    0.6900040023   -0.2249267117    0.7310287750
 H   -1.9582855538   -0.2081989587   -0.7876316442
 H   -1.6132971227   -2.5964671825   -0.8402467500
 H   -0.3462577463   -2.4993590854    0.3805333032
 H   -2.5012854621    0.9880096534    2.7390792803