22

 C   -0.0173923144    1.5788157438    0.0068665571
 N    0.0168853649    0.0910658074   -0.0258175547
 H    0.4895305011   -0.2775744062    0.8026983714
 H   -0.9305733504   -0.2926939283    0.0019890959
 C    0.7192528101   -0.5266104211   -1.2597249471
 C    0.6925065347   -2.0400744685   -1.1831870174
 C    1.4617559493   -2.5749497363    0.0305080709
 C   -0.7350899532   -2.5988106477   -1.2083695463
 C    1.4540188431   -2.5336644683   -2.5238436816
 O    1.8489440092   -1.5936719233   -3.2417486492
 O    1.5258827314   -3.7617889995   -2.6268981834
 H    1.0087834390    1.9466736518   -0.0082571059
 H   -0.5414690231    1.9301612383   -0.8822253467
 H   -0.5287499420    1.9235586585    0.9073984656
 H    0.1898083696   -0.1450036849   -2.1318632430
 H    1.7331190477   -0.1283410865   -1.2617856466
 H    0.9419076856   -2.4303882854    0.9947373494
 H    1.5962915913   -3.6500419361   -0.1116122875
 H    2.4600218957   -2.1270990354    0.1055317315
 H   -1.3230553353   -2.1681938789   -2.0278817032
 H   -0.6653616693   -3.6746031456   -1.3870394329
 H   -1.2935981549   -2.4546206477   -0.2659545863