19

 C   -0.0125798507    1.5600351804   -0.0474142782
 C    0.0382623828    0.0342977586    0.0442720595
 C    0.7989297616   -0.6225681108   -1.1323373195
 O    1.3635130746   -1.8409052879   -0.6528148806
 C    1.5374137514   -1.7304711687    0.7434720747
 C    2.2785158878   -0.5065672442    1.2551696907
 C    0.7649681831   -0.5330836676    1.2553657592
 C    1.6197901461   -2.9869750180    1.4232824755
 C    1.6990462244   -4.0336236096    2.0094185759
 H    0.9950897554    1.9882825920   -0.0220282846
 H   -0.4929242296    1.8840436564   -0.9771135888
 H   -0.5792735025    1.9880976989    0.7850460552
 H   -0.9863337078   -0.3570602796    0.0670191065
 H    0.1545948806   -0.8651658898   -1.9818802479
 H    1.5917822072    0.0491700772   -1.4944556547
 H    2.7762327438   -0.6016501722    2.2129198221
 H    2.8071865656    0.1023980360    0.5293858124
 H    0.2456695079   -0.5806573415    2.2049494228
 H    1.7655446783   -4.9607560995    2.5224712297