12

 N   -0.4807813886   -1.0297665253   -0.5293507895
 C   -0.1718850775    0.0476558039   -0.2493331194
 C    0.1953266076    1.4158798871    0.1181340146
 C   -0.1542171788    1.8549160819    1.5638867634
 C    1.3816842258    1.9795005678    1.7388637864
 O    1.6114036146    1.5604064384    0.3738588108
 C    1.8952657036    3.3233652850    2.0074587510
 N    2.2852856048    4.3871443819    2.2331154408
 H   -0.1386121250    2.1010350712   -0.6681917999
 H   -0.7081701114    2.7891625702    1.6326055738
 H   -0.6204760110    1.0908056470    2.1828644303
 H    1.8259949260    1.2760172610    2.4508595577