17

 C    0.1270008191    0.9166670461    0.5389452068
 O   -0.2789596774   -0.0605716109   -0.4197765335
 C   -1.2173824778   -0.9187930611   -0.0055678000
 N   -1.5586926869   -1.8872217002   -0.7427831534
 C   -2.5942576402   -2.7536104277   -0.2900418308
 C   -2.3162592994   -4.2063532231   -0.1036939725
 C   -2.6661538384   -3.3680213329    1.1258339303
 C   -1.6540822393   -3.0978790126    2.1026707122
 N   -0.8433043573   -2.8636534444    2.8959353246
 H    0.8740617881    1.5365638175    0.0431016811
 H   -0.7166716823    1.5450226246    0.8472890746
 H    0.5717936617    0.4423381588    1.4202083073
 H   -1.6344819828   -0.7037303052    0.9862234733
 H   -3.5725978088   -2.5110237321   -0.6997315054
 H   -3.0466995853   -4.9390925062   -0.4262165815
 H   -1.2803988152   -4.5130316959   -0.1913153749
 H   -3.6573942377   -3.4977943545    1.5475489019