20

 C   -0.1719913187    1.5540902007    0.0181639568
 C    0.0252397587    0.0396047600    0.0030677943
 C    0.8746018776   -0.5026253516   -1.1977214852
 C    2.0099905261   -1.3061255413   -0.4954153664
 C    1.2587858873   -1.9055961690    0.7146723880
 C    0.8242971478   -0.5179165773    1.2028939548
 O    2.0915911583    0.1929193145    1.2676216765
 C    2.8563206600   -0.2799176552    0.2226330816
 N    4.0210870386    0.1076360513   -0.0666618782
 H    0.7889544624    2.0742754008    0.0552812938
 H   -0.7037055514    1.8838298911   -0.8799498558
 H   -0.7586036031    1.8692901011    0.8879421145
 H   -0.9582466029   -0.4449209645    0.0081098075
 H    0.2872661952   -1.1613472327   -1.8432000752
 H    1.2769425660    0.3015347792   -1.8189596896
 H    2.5852246550   -1.9685882803   -1.1374457316
 H    0.4210363896   -2.5498160729    0.4369144636
 H    1.9073262688   -2.4234378987    1.4252626414
 H    0.3464822186   -0.4342194202    2.1786909386
 H    4.3282932562    0.8320581652    0.5859817709