22

 C    1.4871279385   -1.6428437845   -0.9986706520
 C    0.4550175539   -0.8521771099   -0.1863634175
 C    0.7199663430   -0.7213452440    1.3305394756
 O   -0.2554244990    0.1608701820    1.8871066529
 C    0.5953394645   -2.0697638082    2.0597724787
 O   -0.7689849064   -2.4749740228    1.9491956503
 C    2.0902074540   -0.1246977832    1.6251714530
 C    2.3008849341    1.3407965941    1.5935637674
 N    2.3130988484    0.6107781832    2.8781132931
 H    1.5818298578   -2.6770551618   -0.6517732961
 H    1.1872533595   -1.6824507949   -2.0503634070
 H    2.4792115574   -1.1829299218   -0.9599166171
 H    0.3797232246    0.1674942537   -0.5779171025
 H   -0.5325573819   -1.3108095972   -0.3082036681
 H   -1.0422607124   -0.3821288921    2.0267150098
 H    1.2682397053   -2.8177454729    1.6188974446
 H    0.8792150213   -1.9281515295    3.1108684896
 H   -0.9380580241   -3.1695814804    2.5911761662
 H    2.9196108759   -0.7708175810    1.3472973349
 H    3.2602886408    1.7446460260    1.2827809186
 H    1.4405530289    1.9657781152    1.3759746640
 H    1.3990282260    0.7472673601    3.3080849316