16

 O   -0.0881500769    0.3614602930    0.9392870091
 C   -0.0691606453    1.2869524575    0.1868518929
 O   -1.2254646037    1.8686351258   -0.2184262297
 C   -1.2212948415    2.8563696143   -1.2585043472
 C   -0.0478530517    3.7724373275   -1.0783078325
 C   -0.0919659231    5.1754321139   -1.5475932671
 N   -0.1129440517    4.8737939887   -0.1065911370
 C    1.2201094253    2.9680578304   -1.0805647083
 O    1.1000419707    1.7806185222   -0.2734046083
 H   -1.1854366136    2.3531643780   -2.2340384826
 H   -2.1777902031    3.3794239627   -1.1757584026
 H    0.8143501734    5.6579056142   -1.9033937821
 H   -1.0038925752    5.5200032617   -2.0296300321
 H   -1.0552695601    4.9692820122    0.2657728222
 H    1.4782064979    2.6475870836   -2.0972764109
 H    2.0496367688    3.5428363743   -0.6638328237