17

 C   -0.0108380897    1.4956018109   -0.0124357004
 C    0.0424739869   -0.0198172857   -0.0457949179
 C    1.3965265652   -0.6940090916   -0.2041513301
 C    0.6945676101   -0.7480346141    1.1194080800
 C   -1.1179054682   -0.6779589538   -0.6880550188
 N   -1.2409636870   -1.9772669014   -0.8063362423
 O   -2.4302140232   -2.1937519345   -1.4459627862
 N   -3.0600359732   -1.0203677116   -1.7323375409
 C   -2.2750740753   -0.0841159472   -1.2777705239
 H    0.8807054065    1.8952774497    0.4779880523
 H   -0.0510988435    1.9203156108   -1.0219256108
 H   -0.8835667052    1.8565703733    0.5435513019
 H    1.4280850958   -1.5993695621   -0.7986358468
 H    2.2589826216   -0.0442574787   -0.3078179557
 H    1.0711092678   -0.1357497729    1.9318407369
 H    0.2512213788   -1.6899528717    1.4199625439
 H   -2.5417393177    0.9558800605   -1.3770175612