17

 O    0.5607576806    0.7146985045   -0.6482058436
 C    0.2122307712   -0.3822637446    0.1421080652
 C    0.0309202567   -0.2341862620    1.6896772845
 C   -1.2610484441   -1.1056297190    1.5981656175
 C   -1.2582208628   -0.8320822365    0.0949265637
 O   -2.1836045192    0.0793846056   -0.4752690885
 C   -2.1256405980   -1.2608686771   -1.0185739764
 C   -1.5565718751   -1.3674574757   -2.3962799914
 O   -1.8373851297   -2.2572222887   -3.1585914610
 H   -0.2336290854    1.2585475844   -0.7335489399
 H    0.9034896638   -1.1968960494   -0.0959843806
 H    0.8429896085   -0.5987235353    2.3202331223
 H   -0.1962696507    0.8016542157    1.9538655476
 H   -1.0842286215   -2.1590530292    1.8296730223
 H   -2.1441437687   -0.7596596641    2.1373817029
 H   -2.9938057113   -1.8845052488   -0.8127001052
 H   -0.8386898242   -0.5596003597   -2.6502048993