18

 C   -0.0202418398    1.5422948020   -0.2168547755
 O    1.2971008046    2.0118906013    0.0924539066
 C    1.9737373022    1.0217795400    0.8562418744
 C    1.6392427363    1.1367419290    2.3663518211
 N    0.2697634631    1.6321795980    2.6295601117
 C    0.5480512863    0.1815640831    2.6585823333
 C    0.2660187084   -0.6031185409    1.3916895046
 C   -0.0131684140    0.0385740219    0.0327950295
 C    1.3874623207   -0.3415070832    0.4083607588
 H   -0.7612556245    2.0797150693    0.3786407883
 H   -0.2037278800    1.7338371727   -1.2825008687
 H    3.0449142552    1.1278079085    0.6707255491
 H    2.4281095744    1.3654344379    3.0755199398
 H    0.2209653330    1.9875084829    3.5822153659
 H    0.4777286578   -0.3486224826    3.6033849333
 H   -0.1328491634   -1.6042045869    1.5155107064
 H   -0.5788651041   -0.5766296082   -0.6589384912
 H    1.9852600036   -1.0956515349   -0.0882666073