19

 O   -0.1391585886    1.4397139335    0.2489891561
 C    0.0337858963    0.0587125122    0.0499607182
 C   -1.3557508980   -0.5678067736   -0.0035175180
 C   -2.2332325296    0.0078645957   -1.1279722558
 C   -3.6549901879   -0.4939318458   -1.0436905193
 O   -4.2529665552   -1.0376178936   -1.9358011190
 C    1.0044658379   -0.4053391068   -1.0706979071
 O    1.6862044183   -1.2830474685   -0.1552277813
 C    1.0239367333   -0.6921976188    0.9793748209
 H    0.7250258953    1.8645580565    0.2447504114
 H   -1.2449782353   -1.6509458819   -0.1241108832
 H   -1.8408851956   -0.3978809225    0.9661311714
 H   -2.2551887820    1.0999264351   -1.0188780078
 H   -1.8386683364   -0.2312492478   -2.1197618716
 H   -4.1402908554   -0.3200192085   -0.0534131511
 H    0.5853104242   -0.9427407900   -1.9282815439
 H    1.6568890277    0.4020072879   -1.4376784589
 H    1.6838604092   -0.0142145106    1.5413567237
 H    0.6135547815   -1.4441645424    1.6627715952