20

 C   -0.0109256188    1.5105513148    0.0638739690
 C    0.0315828329   -0.0074179746   -0.0003712143
 C    0.7335474459   -0.5316926579   -1.2540683449
 O    0.8352644406   -1.9450029726   -1.2283105508
 C    1.5198766086   -2.3874395802   -0.0689965070
 C    0.8291793206   -1.8897685716    1.2016855430
 C    1.5847982651   -2.2553913078    2.4687795106
 O    0.7205915886   -0.4695944152    1.1581796650
 H    1.0019936544    1.9246470733    0.0472154917
 H   -0.5694247497    1.9184459235   -0.7842402514
 H   -0.4961418815    1.8353503501    0.9878323180
 H   -0.9942378040   -0.4152883615    0.0076428248
 H    0.1680790730   -0.2744461415   -2.1549778771
 H    1.7360153302   -0.0753424547   -1.3237207134
 H    1.5268134497   -3.4810836838   -0.1072332967
 H    2.5629519191   -2.0269226070   -0.0774514906
 H   -0.1850690447   -2.3249498697    1.2271479380
 H    2.5953407828   -1.8356868335    2.4485200846
 H    1.0677524026   -1.8554333072    3.3447505818
 H    1.6595386445   -3.3419988829    2.5750551397