18

 C   -0.3330672073    1.4327079118    0.0209504528
 C    0.0601773663   -0.0577921133   -0.0425696634
 C    0.8402754072   -0.3516638804   -1.2535757381
 N    1.4223368142   -0.6048295679   -2.2189964662
 C    0.7876759136   -0.5508760003    1.2091268654
 C   -0.0520373502   -1.0015151987    2.4004721001
 C    0.6734991180   -2.0221999121    1.5933134286
 C    2.0867798254    0.0854298065    1.5501812903
 O    2.6197599451    0.9626060227    0.9183166122
 H    0.5563275296    2.0605030990    0.0674405765
 H   -0.9166671067    1.7093291253   -0.8603342158
 H   -0.9428952034    1.6109091714    0.9112364900
 H   -0.8602199249   -0.6496145220   -0.1295211635
 H    0.3163673078   -0.7656751869    3.3931634713
 H   -1.1274980547   -0.9153558950    2.2915918081
 H    0.1108621185   -2.6519919386    0.9136071616
 H    1.5480642864   -2.4984410500    2.0230220208
 H    2.5565386152   -0.3270307715    2.4738879894