17

 N   -0.0249767271    1.2820201374   -0.0579956360
 C    0.0857341819   -0.0673257733    0.0520710048
 O    1.1273239234   -0.6669930726    0.2303295942
 C   -1.2433307443   -0.8067945156   -0.0209071708
 C   -2.2450382209   -0.5087292404    1.0214354126
 O   -2.3947265127    0.0024661641   -0.3092694177
 C   -1.1840543781   -2.1426103385   -0.7016282486
 C   -2.4255027614   -2.8250062145   -1.1291257630
 N   -1.5213745697   -2.2352705395   -2.1343551335
 H    0.8173234866    1.8326366467   -0.0742349288
 H   -0.8999740907    1.6863149204   -0.3477809024
 H   -2.9551936161   -1.2832651832    1.3013128125
 H   -2.0262919088    0.2394208781    1.7806317048
 H   -0.3132142888   -2.7220833419   -0.4136673139
 H   -2.4695771946   -3.9100968500   -1.1278404951
 H   -3.3714301399   -2.3239423595   -0.9436261660
 H   -1.9190813389   -1.3468414977   -2.4351208131