21

 C    0.4589509641    1.5273021303    0.0629061401
 C   -0.0360946760    0.1039196298   -0.0963887056
 C    0.4622541635   -0.7173771138   -1.3034378997
 C    1.0344528157   -1.6800521414   -0.2440955085
 C    0.5961086839   -3.1695566796   -0.0698680408
 C    2.0739360161   -3.5761024231   -0.0061961670
 C    2.7729108997   -3.1300520661   -1.2563608824
 C    2.4958971428   -2.1152573334   -0.1765583515
 O    0.6080503620   -0.8117115990    0.8266755827
 H    1.5417982761    1.5807565737   -0.0878413337
 H   -0.0283477740    2.1857720603   -0.6649119204
 H    0.2335061118    1.9014419435    1.0666615327
 H   -1.1264255146    0.0673278291    0.0348529536
 H   -0.3082737012   -1.1295823067   -1.9574130839
 H    1.2211522087   -0.2159898704   -1.9095277132
 H    0.0761437160   -3.2750870965    0.8847906096
 H   -0.0052330925   -3.6225549945   -0.8664290178
 H    2.4922536156   -4.3301171224    0.6486307671
 H    3.8127560206   -3.4263720850   -1.3512974238
 H    2.2368840541   -3.0898303289   -2.2028352286
 H    3.2807019176   -1.5529322559    0.3148568612