18

 C    0.0690132538    1.5407790482    0.2459580582
 C   -0.0187415976    0.0422909507   -0.0922382367
 C   -1.4173231298   -0.4616861563   -0.1946518343
 C   -2.1576849214   -0.9806583206   -1.2109453126
 C   -3.4636140381   -1.2737801628   -0.6799800673
 C   -4.6327683652   -1.8600987937   -1.4080775161
 C   -3.4053007342   -0.9031625589    0.6256265212
 O   -2.1741077701   -0.4085598701    0.9404172263
 H    1.1126522050    1.8589866997    0.3289545377
 H   -0.4134653415    2.1445423592   -0.5286913260
 H   -0.4293400018    1.7521150415    1.1959339399
 H    0.4807026383   -0.1588991898   -1.0453845730
 H    0.5219226360   -0.5314700100    0.6720127460
 H   -1.8197610761   -1.1417742881   -2.2238564599
 H   -4.3964116167   -2.8482543981   -1.8192993117
 H   -5.4950802458   -1.9737643194   -0.7450108447
 H   -4.9409246871   -1.2286495480   -2.2494064391
 H   -4.1215644476   -0.9269707436    1.4309893020