18

 C    0.0777504245    1.6014169605   -0.1611882923
 C    0.0233892069    0.0926909710   -0.0302574086
 C    0.4795478656   -0.7890824556   -1.2329469635
 C    1.3464478471   -1.5861211150   -0.2249097977
 C    2.8838852919   -1.6130426879   -0.3148997433
 O    3.3243735581   -0.5913957134    0.5871166096
 C    2.2613643519    0.0874287883    1.1309350292
 O    2.3963638113    1.0872051899    1.7778358481
 N    1.0770621969   -0.5764600864    0.8182688599
 H    1.0291547159    1.9385620333   -0.5820407939
 H   -0.7289854428    1.9310134139   -0.8243551870
 H   -0.0467274981    2.0855058876    0.8101156968
 H   -0.9589924514   -0.2136264367    0.3433277472
 H   -0.2960513112   -1.3446335429   -1.7631403916
 H    1.0787744007   -0.2256571869   -1.9552264711
 H    0.9348492306   -2.5688960063    0.0223097611
 H    3.3029544588   -2.5686422426    0.0119935043
 H    3.2596672634   -1.3887288407   -1.3194638672