14

 N    0.0182618708    1.4269810279    0.1165419434
 C   -0.0317979448    0.0438478891    0.0317601858
 C   -1.1913824015   -0.6739819064   -0.0224623076
 N   -2.4497345263   -0.0585815878   -0.0724802656
 C   -1.1093728587   -2.1126080380   -0.1471850331
 O   -2.0994792658   -2.8132552993   -0.2985943663
 N    0.1871732018   -2.7041567013   -0.0867690257
 N    1.2396665238   -2.0102668613    0.0245497793
 N    1.1410458552   -0.6600578135    0.0571187026
 H    0.8411181391    1.8510200571   -0.2928590686
 H   -0.8271610805    1.8436755352   -0.2584442286
 H   -2.6637141704    0.4923514225    0.7523566378
 H   -3.1467732407   -0.7919458596   -0.1815506690
 H    2.0310265580   -0.2041726546    0.1878045156