21

 C    0.0486260366    1.6372038201   -0.1278800654
 C   -0.2838954049    0.1453953365   -0.2551171578
 C    0.5796389697   -0.5498755966   -1.2905016064
 C    1.9590219500   -1.1090677812   -1.0116654583
 C    2.3732134067   -1.3657922155    0.4239079390
 C    1.3373150778   -2.3477629902    0.9980036015
 O    1.2196720020   -2.6385318830    2.1593637697
 C    0.4748463723   -2.8954920072   -0.1518235789
 C    0.8018011537   -2.0438920121   -1.3622271352
 H    1.0868598773    1.7853730679    0.1870094254
 H   -0.0804426146    2.1520061855   -1.0863620719
 H   -0.5994359274    2.1273987623    0.6048814981
 H   -0.1860386362   -0.3298474548    0.7267043417
 H   -1.3386820850    0.0289319371   -0.5365104847
 H    0.5024353286   -0.0850001926   -2.2719569403
 H    2.7411187876   -0.9164906313   -1.7370115864
 H    3.3569439181   -1.8504655547    0.4668535035
 H    2.4338774675   -0.4797021577    1.0637742184
 H    0.7593543298   -3.9421073926   -0.3190429646
 H   -0.5778022126   -2.9009388445    0.1482317588
 H    0.7587159828   -2.5136384755   -2.3382395161