19

 C   -0.3996059298    0.1193657216   -1.0873398437
 O    0.7030153307   -0.4075213228   -0.3455314448
 C    0.4197420114   -0.8740893232    0.9134563316
 N   -0.4964487964   -1.9278966128    0.9378359674
 C   -0.2966811254   -3.0684025361    0.0336052735
 C    0.7312604287   -4.0127709140    0.4771623364
 C    1.5659976523   -4.7800618363    0.8756613525
 N    0.9134388653   -0.4158086024    1.9832075191
 C    1.7192498997    0.7887711784    1.9565482253
 H   -0.8210835371    0.9970971460   -0.5833757969
 H    0.0007962034    0.4169152175   -2.0581597378
 H   -1.1927001675   -0.6218185850   -1.2267569467
 H   -0.6357167232   -2.2162555633    1.8986907801
 H   -1.2535826048   -3.5915095296   -0.0751943208
 H   -0.0340796251   -2.6773032051   -0.9526057593
 H    2.3108409687   -5.4542785545    1.2198630481
 H    2.7256563764    0.5570401505    2.3251335389
 H    1.8132759077    1.2464272137    0.9649732962
 H    1.2937913152    1.5242406975    2.6498611910