18

 C    0.0124281157    1.5830436307    0.1623388327
 O    1.4781346642    1.5249448289   -0.0748028193
 C    1.1505364961    0.3432544564   -0.9230237521
 C    1.2127523385   -1.2083375807   -1.2272206992
 C    1.7649178781   -2.1105544645   -0.1334453276
 C    1.1883737879   -1.6895423822    1.1910308658
 C    0.3506141260   -0.6587900349    1.2114879186
 C   -0.0126230064    0.0377812895   -0.0842229556
 N   -0.3368148441   -1.1316301993   -1.0796271106
 H   -0.2134029887    1.9425519597    1.1704611396
 H   -0.4820829637    2.1948373578   -0.6011616977
 H    0.8557588652    0.7846671598   -1.8863037061
 H    1.5481078028   -1.5000219955   -2.2256415437
 H    1.5054066103   -3.1539124983   -0.3552200956
 H    2.8618468293   -2.0580762265   -0.1255792773
 H    1.4641136507   -2.2354307778    2.0879371360
 H   -0.0958004043   -0.2880499745    2.1292131687
 H   -0.6872790475   -0.7303835985   -1.9517223065