19

 O   -0.1033561992   -0.0215516956    0.0127524726
 C   -0.0229882826    1.1789251522    0.0498203842
 C    1.2748852554    1.9638017315    0.0403178559
 C    1.4240016043    2.7518843423   -1.2810190191
 C    2.5305209421    3.7952487568   -1.1394899527
 O    2.1851114802    4.7795294302   -0.1759132525
 C    1.9180117722    4.2778917215    1.1027927212
 C    0.4731502044    4.0846555289    1.4736525863
 C    1.3715843244    2.8789742964    1.2571387114
 H   -0.9363891485    1.8168983427    0.0904048632
 H    2.0870042716    1.2306267805    0.0959596643
 H    1.6513715878    2.0575974731   -2.0963742917
 H    0.4900856299    3.2656798257   -1.5410020495
 H    3.4815189559    3.3050352808   -0.8757175222
 H    2.6786511833    4.3404898320   -2.0755464347
 H    2.6118860851    4.6486656022    1.8538519627
 H    0.1493797435    4.2987861408    2.4860316487
 H   -0.2432731990    4.3479934145    0.7037116105
 H    1.6644738592    2.3603428136    2.1650327117