14

 C   -0.0270750484    1.5367034767    0.0413606347
 C   -0.0747608001    1.5221431186   -1.5056557920
 C    1.4723592280    1.5650329911   -1.5108240345
 C    1.4723166222    0.0175117120   -1.5396260861
 C    1.5200044787    0.0320767252    0.0073906203
 C   -0.0271151981   -0.0108169771    0.0125613716
 N   -0.0634794424   -0.0137702728   -1.5230477850
 N    1.5087172634    1.5679883922    0.0247821073
 H   -0.5632153040    2.1960988770    0.7239833263
 H   -0.7637768499    2.0543282230   -2.1616316811
 H    2.1236570519    2.2470787529   -2.0575235677
 H    2.0084505925   -0.6418796474   -2.2222572433
 H    2.2090243819   -0.5001008889    0.6633685804
 H   -0.6784043056   -0.6928780224    0.5592517993