16

 N    0.1669064556   -1.3046447491    0.2142875677
 C    0.0536240025   -0.1565730910    0.1547423681
 C   -0.1092639763    1.2973811088    0.0794973839
 C    1.2044629610    2.0454472848    0.2941457487
 C    2.3786929210    1.4613514001    0.9485772418
 O    2.3144261530    1.6052794477   -0.4763745481
 C   -0.7170336515    1.6963127647   -1.2634283724
 C   -2.1656160989    1.8133426176   -1.4435871494
 O   -1.3424397591    2.9741608745   -1.2745549777
 H   -0.8092494732    1.6052359104    0.8666756683
 H    1.0639147829    3.1259946273    0.3216279426
 H    3.0877157306    2.1171510498    1.4501585795
 H    2.3405097376    0.4364119419    1.3105223559
 H   -0.0856774862    1.4807438925   -2.1242146307
 H   -2.5959629009    1.6865031885   -2.4345797076
 H   -2.8309991778    1.5878160415   -0.6116208906