17

 C    0.0716006381    1.4938244070    0.0685587126
 C   -0.0344895313    0.0076726357    0.0159295231
 C   -1.0879388856   -0.8075431111    0.1018630578
 C   -0.6435301607   -2.2337996734   -0.0227708452
 C   -1.1956635755   -2.9859897326   -1.2387825665
 O   -0.6705093687   -4.2902859859   -1.3193295858
 O    0.7845543771   -2.1543517514   -0.1619865837
 C    1.1793322290   -0.8383070387   -0.1591596736
 O    2.3235923621   -0.5035684382   -0.2820088782
 H    0.7166865075    1.8024822438    0.8980863754
 H    0.5396633927    1.8765586819   -0.8445308938
 H   -0.9065493992    1.9646315736    0.1882858169
 H   -2.1257542860   -0.5270981105    0.2330409603
 H   -0.8569226724   -2.8218180613    0.8796605341
 H   -2.2824596948   -3.0835174493   -1.1443101760
 H   -0.9831864097   -2.3943821812   -2.1428671368
 H    0.2895304372   -4.2026979784   -1.3477389406