18

 C    0.4411474805    1.3686124279   -0.6760439114
 C    0.1697872553   -0.0239896139   -0.2118321666
 C    0.1778181548   -1.1608756146   -0.9037608213
 C   -0.1975594968   -2.3213217844   -0.0333605840
 O   -0.4274806495   -1.7501806806    1.2613266291
 C   -0.2080052420   -0.3402912894    1.2226009095
 C    0.8736197343    0.1038817672    2.2278666912
 N    1.4642974697   -0.9165229433    2.8931597524
 O    1.1493718886    1.2811546414    2.3724534999
 H    1.2107179039    1.8398066267   -0.0581942277
 H    0.7526543357    1.3818878465   -1.7235311715
 H   -0.4559731228    1.9923310625   -0.5757888156
 H    0.4034710314   -1.2642425479   -1.9578122930
 H   -1.1121124165   -2.8312353417   -0.3724061627
 H    0.5929366506   -3.0844677852    0.0352398458
 H   -1.1272716688    0.1882719549    1.5197634576
 H    1.0996196811   -1.8473813403    2.7788719933
 H    2.1347284803   -0.7068818857    3.6134708651