21

 C   -0.0292315319    1.5472758746    0.0180710584
 C   -0.0005549574    0.0071809805    0.0557811314
 C    0.7112881614   -0.5025099203    1.3237404664
 C   -1.3746618803   -0.5697878678   -0.0706050601
 C   -1.9739336915   -1.3742286694   -0.9891010181
 C   -3.3299186948   -1.5848618669   -0.5519042405
 C   -4.3879744396   -2.4001236678   -1.2277149635
 C   -3.4405110866   -0.8835195806    0.6061680260
 O   -2.2672690475   -0.2611030514    0.9159890997
 H    0.9855149234    1.9532104635    0.0817041509
 H   -0.4879291249    1.9109855630   -0.9060431209
 H   -0.6069374140    1.9421344384    0.8593168778
 H    0.5571774941   -0.3485603210   -0.8189765229
 H    1.7258480578   -0.0958604154    1.3858319977
 H    0.1660402662   -0.1949997687    2.2212556800
 H    0.7775338149   -1.5944224533    1.3271882613
 H   -1.5109242032   -1.7757490841   -1.8782172794
 H   -4.0852556720   -3.4488949208   -1.3273581135
 H   -5.3253249005   -2.3767975032   -0.6647376255
 H   -4.5968829906   -2.0298709590   -2.2380274123
 H   -4.2504842429   -0.7314319704    1.3011206772