15

 O   -0.7121815562    0.9128875021    0.7136784388
 C    0.1064912236    0.9688149870   -0.1687225703
 C    1.3454100135    1.8083278253   -0.0802559256
 C    1.7658828222    2.8148548713    1.0053259824
 N    2.9492187903    2.9071355570    0.0127694444
 C    2.8369534126    1.3696042834   -0.0477481722
 C    1.8446628386    2.9072792326   -1.0741176042
 C    2.2531190244    2.5505270979   -2.4237286744
 N    2.5463895474    2.2691683793   -3.5059736689
 H   -0.0071258217    0.3878332226   -1.1109403374
 H    1.1968938667    3.7419459436    1.0995707121
 H    2.0566124440    2.4168620544    1.9776180102
 H    3.1863046259    0.8761445201    0.8604794231
 H    3.2732831579    0.9284368938   -0.9449390686
 H    1.2724256008    3.8380149397   -1.0902380794