17

 N    0.0090446153    1.3548917883    0.1030385299
 C    0.0405973562   -0.0191892285    0.0272944765
 O    1.1182058407   -0.6205919348   -0.0087181614
 C   -1.2420494084   -0.7032553149    0.0393458070
 C   -1.3507835993   -2.0563801530    0.0014784150
 N   -0.3574465887   -2.9612460640   -0.1247896001
 C   -2.8043642034   -2.4412351995    0.0667551574
 O   -3.5179435579   -1.2237248846    0.1839314035
 C   -2.6222668622   -0.1082338863    0.1358792223
 H    0.8861534320    1.8225747070   -0.0639740754
 H   -0.8275754577    1.8597250210   -0.1383085166
 H    0.5781950715   -2.5767608492   -0.0415841617
 H   -0.5201633483   -3.9250028743    0.1100578366
 H   -3.1152219280   -2.9894984780   -0.8373422167
 H   -3.0160166077   -3.0907750127    0.9316079910
 H   -2.7677998370    0.5037930508    1.0401590829
 H   -2.8883972472    0.5237323028   -0.7292848104