16

 N   -0.2192234621    1.2057009508   -0.0738174242
 C   -0.1544464531   -0.0444489930   -0.0618358219
 O    0.9628614224   -0.8904396151   -0.1260834355
 C    0.1133044086   -2.0460352013    0.0759448196
 C   -1.1321171185   -1.1611264145    0.0444110919
 C   -0.8115489126   -2.1616756401   -1.0733284111
 C   -0.6198508946   -2.0056062828   -2.5752981947
 C   -1.5434810010   -3.2433832184   -2.6439739317
 O   -1.6540904008   -3.2914233178   -1.1937150395
 H    0.7087314138    1.6250056126   -0.1503763940
 H    0.4413574610   -2.8187825929    0.7577859574
 H   -2.0623003656   -1.1944637869    0.5916553272
 H   -1.0271528103   -1.0891095759   -3.0029867173
 H    0.4013538863   -2.1549445080   -2.9268567349
 H   -2.5207289638   -3.0874653874   -3.1107205414
 H   -1.0892535897   -4.1583645493   -3.0363489801