14

 O    0.1948360231    1.0280045756    0.8149972839
 C   -0.0188726334    0.0347453414   -0.2094122424
 C   -1.4034298692   -0.5202386571   -0.1173373282
 C   -2.1481559036   -0.5901181853    1.0337704335
 O   -1.9068707224   -0.2022021109    2.3017345001
 N   -3.3385425676   -1.1719147859    0.6875822734
 C   -3.2694136152   -1.4330499504   -0.6622529513
 N   -2.1259781332   -1.0497669984   -1.1699013589
 H   -0.3390758588    1.7943026197    0.5758584397
 H    0.1681817744    0.4437216577   -1.2101844519
 H    0.7502247418   -0.7232707110   -0.0196840499
 H   -1.0615342487    0.2779811876    2.2565711549
 H   -4.1080279106   -1.3452700294    1.3125159071
 H   -4.0841070365   -1.8965581037   -1.1967503099