23

 C    0.1296640912    1.4995582585   -0.1360244843
 C    0.0935072367   -0.0246572860    0.0411139792
 C    0.8492911344   -0.4520770487    1.3068245354
 C   -1.3425962378   -0.5443203456    0.0544772822
 C   -2.2086312446   -0.4025351667   -1.2281401983
 C   -2.7892274073   -1.8351191629   -0.9698131446
 C   -1.5908612320   -2.0778318629    0.0105568522
 C   -4.0924225719   -1.8440560582   -0.3319679151
 C   -5.1681566474   -1.8422946908    0.2069032035
 H    1.1597569801    1.8670922874   -0.1895067459
 H   -0.3844025520    1.8113528715   -1.0509591101
 H   -0.3583061475    2.0019851596    0.7078487472
 H    0.5990021627   -0.4787239062   -0.8251821245
 H    1.8913415944   -0.1169812779    1.2772590989
 H    0.3869888511   -0.0191187446    2.2020862114
 H    0.8513918004   -1.5402666951    1.4269302043
 H   -1.8775046068   -0.1102733282    0.9082867459
 H   -2.9286582458    0.4156532630   -1.2771532463
 H   -1.5932820453   -0.3926296336   -2.1335471454
 H   -2.8067669930   -2.4895781645   -1.8461976834
 H   -0.7772018237   -2.6056880026   -0.4972251816
 H   -1.8200278278   -2.5907830812    0.9457780248
 H   -6.1208378680   -1.8471082443    0.6754468945