12

 C    0.0411479838   -3.7234232407   -0.0178788321
 C    0.0291327316   -2.5155450660   -0.0113527372
 C    0.0163973674   -1.1578350887   -0.0039296996
 C   -0.0019732307    0.0531637417    0.0028683348
 C   -0.0005241369    1.4665544101    0.0104846576
 N   -1.1280192837    2.1810270149    0.0295599362
 N   -0.6580018466    3.4429783099    0.0301675607
 C    0.6926333269    3.4502342305    0.0121964000
 N    1.1496605721    2.2184083494   -0.0006087192
 H    0.0508957532   -4.7852057300   -0.0236300283
 H   -1.3052618335    4.2148433634    0.0430502928
 H    1.2812855065    4.3552718555    0.0093357143