14

 C   -0.2592146702    1.6417636059   -0.0271715746
 C    0.0418063524    0.1497041672   -0.0499815993
 C    0.8418664163   -0.4116795330   -1.2624216601
 C    1.8636493718   -0.8565071859   -0.1996732347
 O    1.1146615006   -0.2026745278    0.8537741473
 C   -1.1721607693   -0.6318967910    0.2552823355
 N   -2.1249292396   -1.2462864134    0.4799813810
 H    0.6517743874    2.1976208187   -0.2624865035
 H   -1.0330708814    1.8903101203   -0.7596193212
 H   -0.6083331155    1.9417079962    0.9643918426
 H    0.3541810505   -1.2013656139   -1.8323401710
 H    1.1890662504    0.3709429710   -1.9382992779
 H    1.9240560392   -1.9386504336   -0.0396244203
 H    2.8747126574   -0.4470452808   -0.2877679338