19

 C   -0.0217373019    1.4977105087   -0.2160404028
 O    1.3697414290    1.5961256365    0.1574854817
 C    1.3994526773    0.2195285032    0.6022906079
 C    1.5482513213    0.0799962373    2.1186648135
 C    0.8601421007   -1.1915539358    2.6389268542
 C   -0.6046133273   -1.2257035737    2.2473396539
 O   -1.2802770083    0.0380951500    2.2193584708
 C   -1.0444566317   -0.6326089268    0.9730990290
 C   -0.0264034227   -0.0264619977    0.0435567523
 H   -0.6687156075    2.0697912995    0.4597138818
 H   -0.1939656123    1.8206882671   -1.2487149342
 H    2.1882757815   -0.3395194542    0.0830768106
 H    2.6061076944    0.0833811817    2.3985447446
 H    1.0813181526    0.9496145124    2.5870810427
 H    1.3448285258   -2.0973958588    2.2493157160
 H    0.9475535268   -1.2403077623    3.7303728150
 H   -1.1964703839   -2.0371093369    2.6719328519
 H   -1.9536404046   -1.0139760798    0.5068623203
 H   -0.0109981192   -0.6045634205   -0.8844289093