23

 C   -0.0093583599    1.5188037708   -0.2086030499
 C    1.4026230343    2.1048846884   -0.0120959165
 C    2.1185671012    1.5654086166    1.2442151569
 C    1.4363264574    1.9697291087    2.5613142240
 O    0.1327391909    1.4245030368    2.7030963725
 C    0.0942815373    0.0118029706    2.5634057042
 C    0.7161499550   -0.4805829279    1.2463972224
 C   -0.0465049811   -0.0092378174   -0.0098354456
 C    2.1665184597    0.0288406584    1.1856671793
 H   -0.6938653293    1.9887587977    0.5010439145
 H   -0.3723450235    1.7665387807   -1.2130810790
 H    2.0248606132    1.8577341881   -0.8830572721
 H    1.3475736262    3.1997082290    0.0256181960
 H    3.1372510472    1.9731202723    1.2703823768
 H    2.0708462307    1.6510415588    3.4077186415
 H    1.3120868744    3.0557157124    2.6273430691
 H    0.6212343516   -0.4638210048    3.4099754401
 H   -0.9633444716   -0.2639394497    2.6308952593
 H    0.7033454815   -1.5777131767    1.2741605814
 H   -1.0874500314   -0.3527272677    0.0294245059
 H    0.4075665519   -0.5017117049   -0.8805387145
 H    2.6583778813   -0.3092806379    0.2657727754
 H    2.7477382332   -0.3686584322    2.0273346583