22

 C   -0.4500443571    1.5473257821    0.3440709668
 C   -0.1169013530    0.0677472455    0.1821967603
 C    0.3154494298   -0.4451640967   -1.1985418275
 C    1.6561345255    0.1181874081   -1.5906072835
 C    1.6081691591   -1.0291276794   -0.6184008428
 C    2.2759549701   -2.3494724788   -0.8810600301
 C    1.2208891835   -0.5224108329    0.7856030241
 C    2.1930280477    0.3774993518    1.5416763312
 H    0.3440330650    2.1959258409   -0.0375236315
 H   -1.3667940243    1.7959966037   -0.2022594889
 H   -0.6121797205    1.8055885396    1.3965384153
 H   -0.9611136792   -0.5224983496    0.5530446312
 H   -0.3494750106   -0.8799489418   -1.9372827912
 H    1.9880882468   -0.1476397000   -2.5900204698
 H    1.9600601990    1.1167578674   -1.2874368424
 H    2.2564694431   -2.5996718110   -1.9472333187
 H    3.3274381820   -2.3374497048   -0.5675933032
 H    1.7801694177   -3.1631576184   -0.3381369182
 H    0.9717360439   -1.3785411786    1.4226099644
 H    2.5032513377    1.2443999135    0.9507719385
 H    1.7455953356    0.7523192605    2.4689429765
 H    3.0993070582   -0.1750951511    1.8142829096