15

 O   -0.2223489818    0.0515886185    0.1980528288
 C   -0.0387441794    1.2301194149    0.0500883750
 C    1.2839157372    1.8863949872   -0.0411269060
 C    1.4722365996    3.3362735302    0.3586992408
 C    1.5817330609    2.9607576742   -1.0893095234
 C    2.9421295449    2.5892157687   -1.6308443192
 C    3.4057890530    1.4075711812   -0.7678937934
 O    4.4582658149    0.8502789120   -0.7850891459
 O    2.4042035244    1.0548326721    0.1039011741
 H   -0.8792389478    1.9576951596   -0.0384727566
 H    0.5893673567    3.8859486303    0.6668443360
 H    2.3722924410    3.5569618725    0.9232474948
 H    0.8021938196    3.2783947831   -1.7710564365
 H    2.8968099454    2.2626479087   -2.6739122693
 H    3.6876502113    3.3865745667   -1.5699108091