19

 C    0.3131320934    1.4325212744   -0.2010001580
 C   -0.1130611251    0.0024583685    0.1447182294
 O    0.0516025126   -0.9042496638   -0.9409923015
 C    1.2857143089   -1.6150591994   -0.7971319049
 C    1.5452095834   -1.6779197869    0.6947339285
 C    1.6668988462   -2.9652647400    1.4963522614
 C    2.8504687278   -2.0657853369    1.3455868563
 C    0.7321469376   -0.5730018099    1.2862541530
 O    0.7383197283   -0.1977190229    2.4334615130
 H    1.3688628785    1.4730694260   -0.4879373367
 H   -0.2846363147    1.8102104839   -1.0342937649
 H    0.1676343841    2.0810793226    0.6676812671
 H   -1.1708658815   -0.0089995722    0.4316619339
 H    1.1577096392   -2.5953886163   -1.2654042344
 H    2.0984856667   -1.0883819762   -1.3219055579
 H    1.1623083947   -2.9847140316    2.4562833161
 H    1.6412483619   -3.8938010765    0.9359142113
 H    3.6565583701   -2.3751233755    0.6882644567
 H    3.1483343581   -1.4728133973    2.2040908414