21

 C   -0.1979680605    1.5458689646    0.0225451998
 C    0.0237021710    0.0232015570    0.0068330211
 C    0.7524981599   -0.4671858456   -1.2188433511
 C    2.0188503542   -0.8888286278   -1.2052721885
 C    2.7151093407   -1.4271944549   -2.4252525608
 O    1.8235976350   -1.7244609672   -3.4848941456
 C    0.9122370023   -0.6584681008   -3.7079925766
 C   -0.0349592307   -0.5308662057   -2.5169548451
 O   -0.9706935589   -1.6097680269   -2.4826748666
 H    0.7574518376    2.0800404929    0.0130818027
 H   -0.7762976881    1.8801790123   -0.8446673119
 H   -0.7475748080    1.8473659142    0.9195882248
 H    0.5802787748   -0.2699847181    0.9039366110
 H   -0.9481622513   -0.4837856910    0.0547291638
 H    2.6041083286   -0.8624732984   -0.2877938373
 H    3.4882563326   -0.7129488216   -2.7670139049
 H    3.2337944639   -2.3638891828   -2.1901323494
 H    1.4510271437    0.2882656500   -3.8785875035
 H    0.3483107972   -0.9123791769   -4.6093556739
 H   -0.6469156071    0.3704861647   -2.6384576216
 H   -0.4390621573   -2.4152567279   -2.4617435264