19

 C   -0.0151020145    1.4933679812    0.1024989691
 C    0.0013017211   -0.0038956353   -0.0721465243
 C    0.9808001123   -0.6968378471   -0.9455206727
 C    0.5695049111   -1.9456264530   -1.2058981272
 C   -0.6819979314   -2.2060878084   -0.4028940105
 C   -1.5479499840   -3.3959084773   -0.7063007303
 O   -0.1907943663   -2.2405762991    1.0225327938
 C   -0.5200458234   -0.8831518925    1.1398109825
 C   -1.2892829387   -0.7928489109   -0.1268274223
 H    0.9445083238    1.8606186254    0.4825423337
 H   -0.2182108921    2.0048829505   -0.8455357224
 H   -0.7897379059    1.8004483006    0.8136092204
 H    1.9307977689   -0.2609267146   -1.2331586589
 H    1.1210287631   -2.7216870687   -1.7214626306
 H   -0.9665341000   -4.3197618738   -0.6238567186
 H   -2.3873264195   -3.4546983882   -0.0086654291
 H   -1.9400859182   -3.3265598132   -1.7264548263
 H   -0.6386371581   -0.4676849688    2.1340834591
 H   -2.2712461381   -0.4138657768   -0.3861064556