16

 O    0.2131107030    1.3811864369   -0.1607005358
 C    0.0585898906    0.0120804020   -0.0195705799
 C   -0.0284972376   -0.6675528382    1.3714906603
 O    0.9925666606   -0.6195221753    2.2881473546
 C   -1.4923805874   -0.1159656124    1.5100821865
 C   -1.3754271138   -0.6652421883    0.0556679385
 C   -0.6412612179   -1.9064437614    0.6436998512
 C   -2.3960463700   -0.6637161572   -0.9501426105
 N   -3.2149887427   -0.6544303863   -1.7671802783
 H   -0.1184776031    1.8362973403    0.6199691745
 H    0.7288041226   -0.4617444811   -0.7403384900
 H    0.7355155801   -1.1080772262    3.0778847331
 H   -2.1632464813   -0.6677828491    2.1723847440
 H   -1.6387425852    0.9605343037    1.6232115728
 H    0.0106951282   -2.4571403053   -0.0374787648
 H   -1.2626206259   -2.5688779522    1.2487700637