13

 N   -0.0631229240   -1.1104698346    0.4345045402
 C   -0.0243621303    0.0132624191    0.1711309231
 C    0.0210406392    1.4547113200   -0.1626280792
 O   -0.7519705561    2.2155368932    0.7473496757
 C    0.0991891676    2.9926013421    1.5931395508
 C    1.4585117095    2.8933486940    0.9744809294
 C    1.4343567728    2.0229203265   -0.0363372468
 C    2.5001479210    1.6366610984   -0.8860450686
 N    3.3488542979    1.3121749208   -1.6035828912
 H   -0.3867864662    1.5802129967   -1.1736538185
 H   -0.2813816142    4.0212828941    1.6226477697
 H    0.0916489279    2.6026359657    2.6225270745
 H    2.3222280149    3.4454734042    1.3193980808