25

 C   -0.3149273363    1.3752699975   -1.0377440185
 C   -0.0572546568    0.0251478099   -0.3531917846
 C    0.7292821420    0.2026492240    0.9528941213
 C   -1.3816266826   -0.6824828581   -0.0917440264
 O   -2.2008637146   -0.8106941074   -1.2785020479
 C   -2.6007904707   -2.1486614447   -0.9027192618
 C   -2.6350068981   -3.1005240540   -2.0806299298
 C   -1.4781058029   -2.2150173894    0.1715714057
 C   -0.2635343153   -3.0768817983   -0.1585555363
 H    0.6284285096    1.8723472514   -1.2859375856
 H   -0.8898241328    1.2396421325   -1.9566676905
 H   -0.8823855742    2.0447825428   -0.3800311073
 H    0.5327652056   -0.5945316044   -1.0395892825
 H    0.1737374279    0.8290592076    1.6609493144
 H    0.9335770372   -0.7535634302    1.4447607714
 H    1.6899941424    0.6917026496    0.7633881578
 H   -1.9329078768   -0.1174532386    0.6797757420
 H   -3.5953115248   -2.1218507424   -0.4297309558
 H   -1.6654890903   -3.1618673925   -2.5810415351
 H   -2.9286761487   -4.1049919147   -1.7570404823
 H   -3.3716048285   -2.7530113869   -2.8121789618
 H   -1.8420538302   -2.4674417174    1.1712790827
 H    0.1508564473   -2.8517765084   -1.1449356573
 H    0.5337149139   -2.9348690154    0.5775500596
 H   -0.5328384420   -4.1384139825   -0.1474725814