17

 C   -0.0324353838    1.4030902301   -0.1491140072
 C    0.1249034104   -0.0827723204    0.0606622304
 N    1.4666324061   -0.6458913455    0.0375355272
 C    0.7254851568   -0.7021551966    1.3033721412
 C    1.2457121515    0.1390520026    2.4615198819
 C    2.3293891704   -0.5277348114    3.1866294757
 N    3.1715694445   -1.0730494668    3.7593599520
 C    0.1438607651   -2.0341995771    1.6639848626
 O   -0.0203297089   -2.9164462001    0.8560617912
 H    0.8227576620    1.9620731173    0.2360718252
 H   -0.1026035814    1.6130676851   -1.2214344868
 H   -0.9465591795    1.7749502378    0.3247742682
 H   -0.6615702226   -0.6928231590   -0.3813483588
 H    1.4466461631   -1.5799049853   -0.3734882394
 H    1.6134513861    1.0979659706    2.0911989282
 H    0.4354117009    0.3532157498    3.1691916878
 H   -0.1365039607   -2.1660068210    2.7302120507