12

 C    0.0756055885   -3.7528210971   -0.0190043867
 C    0.0525210808   -2.5448253020   -0.0120867041
 C    0.0257108875   -1.1877260366   -0.0043061026
 C   -0.0077230713    0.0243230469    0.0027738359
 C   -0.0425772567    1.4312409081    0.0109419128
 C   -1.1328877326    2.2517866182    0.0302969071
 O   -0.6977425908    3.5382226138    0.0313957857
 C    0.6555325559    3.4370119706    0.0123902658
 N    1.1099083673    2.2320630383   -0.0003916084
 H    0.0977762206   -4.8143654775   -0.0251059719
 H   -2.1962522031    2.0898544524    0.0439107293
 H    1.2090842738    4.3627294747    0.0099041569