19

 C    0.0481645468    1.5333582873    0.0724303974
 C    0.0079172102    0.0194666061   -0.0493425856
 C    0.7528713065   -0.5133094766   -1.2743895251
 C    0.9131974388   -2.0251498184   -1.2042371256
 N    2.1260062827   -2.4835832343   -0.5198866381
 C    0.8075814932   -2.6802768649    0.1305506019
 C    0.5767226956   -1.8527163919    1.3480118489
 N    0.4448049896   -2.3985654579    2.4828514821
 O    0.5694861810   -0.4987921933    1.1786572329
 H    1.0824206817    1.8800972482    0.1574966856
 H   -0.4033851480    1.9972665553   -0.8096570121
 H   -0.4998920719    1.8626790343    0.9587413354
 H   -1.0382719824   -0.3176718427   -0.0978266205
 H    0.1942068388   -0.2283014425   -2.1721426797
 H    1.7431494694   -0.0503044146   -1.3350511755
 H    0.5671142074   -2.5967739924   -2.0614631070
 H    2.4385623653   -3.3734719015   -0.8999546790
 H    0.4219754271   -3.6902912144    0.2103271255
 H    0.2995017380   -1.6803350256    3.1963552585