18

 C   -0.0629144877    1.5442566751    0.0593210903
 C    0.1386628053    0.0616237022    0.0107765783
 C    0.6521534800   -0.7630168907   -1.1789688497
 C    1.2710086393   -1.7804878217   -0.1598767933
 C    0.7294830234   -0.9097558482    0.9837144264
 C    1.3258075431   -0.7390120534    2.3462281371
 N   -0.7445988398   -0.8709931262    0.7667964571
 H    0.7983729782    2.0743780937   -0.3619971967
 H   -0.9489654826    1.8419616199   -0.5147312781
 H   -0.2019716233    1.8945970271    1.0883950852
 H   -0.1221082327   -1.1486640865   -1.8471132199
 H    1.4139348229   -0.2412271905   -1.7640739031
 H    0.8834800788   -2.8019893777   -0.1911456422
 H    2.3631516539   -1.8018611271   -0.2009612883
 H    2.4066724450   -0.5701767536    2.2864353816
 H    0.8816113737    0.1136620996    2.8722573119
 H    1.1630020712   -1.6308215543    2.9638220957
 H   -1.1361182386   -0.3327861078    1.5418681676