20

 C    0.2162249170    1.6236747701   -0.1659442502
 C   -0.0416685001    0.1175119572    0.0243009834
 C    0.5951130774   -0.4460751741    1.2550877008
 C    0.0579106207   -0.9335373895    2.3868813765
 C   -1.3824945979   -1.0688439242    2.7584472290
 C    1.1834741983   -1.3536257188    3.3039469431
 C    2.4591124379   -1.0383887473    2.5086370468
 O    3.6144064491   -1.2168623368    2.8205763991
 N    2.0079403179   -0.4945461146    1.3238428386
 H    1.2860791218    1.8454344181   -0.2318779555
 H   -0.2558349302    1.9824386134   -1.0852040222
 H   -0.1885398912    2.1957853658    0.6739640211
 H   -1.1183401721   -0.0673417662    0.0646137223
 H    0.3311916865   -0.4266288431   -0.8547794180
 H   -1.6430561209   -2.1118254287    2.9822260307
 H   -1.6221779956   -0.4893253324    3.6600081556
 H   -2.0484919390   -0.7262387911    1.9620933175
 H    1.2000964368   -0.8058688452    4.2544954091
 H    1.1652546328   -2.4195605301    3.5623460871
 H    2.6350626808   -0.2227540424    0.5847689053