17

 O    0.0951722430    1.4331294010   -0.4813527253
 C    0.0674207858    0.0293128786   -0.5986053776
 C   -1.0290645322   -0.5586534610    0.2938061938
 O   -2.2845230616    0.0850848699   -0.0019531693
 C   -1.1476563918   -2.0432010216    0.1944058666
 C   -0.3905957373   -3.0302813483   -0.3891916393
 N   -0.9453961661   -4.2705558114   -0.1743064833
 C   -2.0315633063   -4.0442026581    0.5285179425
 N   -2.1999480721   -2.7176743281    0.7844238363
 H   -0.8294527596    1.7130569445   -0.4936217727
 H   -0.1071304511   -0.2926627255   -1.6402083632
 H    1.0487588470   -0.3488144003   -0.2946071820
 H   -0.8234722059   -0.2494063487    1.3266182917
 H   -2.5753866373   -0.2465818031   -0.8612086228
 H    0.5278751765   -2.9192548058   -0.9454958268
 H   -2.7306847262   -4.7915950203    0.8732612084
 H   -2.9670105548   -2.2778671717    1.2663676130