21

 C    0.9438214977    1.4576312293    0.3079406135
 C    0.0864340926    0.2466603509   -0.0795924535
 C    0.5569329023   -0.4640051480   -1.3401424725
 C    1.7646274602   -1.3809067678   -1.2661358840
 C    0.3814297084   -1.9580445080   -1.4417445493
 O   -0.2510044587   -2.6073377910   -0.3766410720
 C    0.3442581114    0.3138247739   -2.6084589095
 C    1.4088553381    1.0742767740   -3.2780698279
 O    0.9636721934   -0.1818077852   -3.7978586358
 H    1.9852913897    1.1651969062    0.4791075205
 H    0.9397335237    2.2244386792   -0.4733703595
 H    0.5702120490    1.9195633530    1.2270993161
 H    0.0641208697   -0.4780709905    0.7380721356
 H   -0.9544920345    0.5673260771   -0.2238687391
 H    2.4365624237   -1.4197591236   -2.1161646155
 H    2.2283747572   -1.4984771290   -0.2920403358
 H    0.1376719079   -2.3513258081   -2.4280191851
 H    0.1882314621   -3.4537842873   -0.2448740864
 H   -0.6831880636    0.6535111363   -2.7598302070
 H    1.1585830584    1.9431197190   -3.8848174275
 H    2.4116627015    1.0710193794   -2.8544809354