14

 O    0.6626110526    0.4368229351    0.7860478731
 C   -0.0523496198    0.1186366470   -0.3867648674
 C   -1.3847889131   -0.5219752353   -0.1385230054
 C   -2.0878617687   -0.6650630097    1.0263361094
 O   -3.2715358495   -1.3091073275    0.7113650284
 C   -3.1999204125   -1.5062425123   -0.6157776031
 N   -2.1210682323   -1.0660193531   -1.1788027731
 C   -1.8677715840   -0.2932308814    2.3615650225
 C   -1.6991015337    0.0403548658    3.5071750429
 H    0.1234052142    1.0227753265    1.3275402120
 H   -0.1993494866    0.9973486495   -1.0369569154
 H    0.5721595301   -0.5801356734   -0.9541237314
 H   -4.0359498878   -2.0084225871   -1.0777752738
 H   -1.5364506389    0.3180786958    4.5194489613