18

 O   -0.5533739488    0.7591725975   -0.7413119032
 C    0.1141093896    1.0424819373    0.2202608174
 C    1.3416939869    1.9451183130    0.1489924098
 C    1.4941513923    2.6375078718   -1.2094912532
 C    2.5361282101    3.7530772535   -1.1291001087
 C    2.1043426163    4.7923239682   -0.0967777950
 N    1.7700674465    4.1533776683    1.1708755368
 C    1.3560503307    2.8718874806    1.3745450674
 O    1.0386339800    2.4607390808    2.4777768469
 H   -0.1110916862    0.6621732297    1.2343653198
 H    2.1949857415    1.2696283001    0.3247282544
 H    1.7570358464    1.8989024650   -1.9713672484
 H    0.5253116857    3.0514648918   -1.5120365155
 H    3.5124503629    3.3397601125   -0.8471020479
 H    2.6590049177    4.2434642492   -2.0995688159
 H    2.9058767294    5.5167141708    0.0826794163
 H    1.2408448389    5.3557830734   -0.4813698553
 H    1.7281206002    4.7252594064    2.0026866943