17

 C   -0.0724336950    1.5448160096   -0.0644745983
 C    0.0079336358    0.0425621652    0.0655286643
 N    1.2408511043   -0.7443166917   -0.1746242322
 C    2.4462936653    0.0155864570   -0.0433730217
 N    2.7793839393    0.4805650103    1.0904612851
 C    1.7096818283    0.1261583516    2.0410367519
 C    0.6770918108   -0.6411217817    1.2186958004
 C    0.0762729719   -1.8897213771    1.7638997599
 O    0.1659578034   -2.2288164496    2.9168716079
 H    0.8180214893    2.0520940725    0.3105205581
 H   -0.2097560841    1.8255918028   -1.1136527723
 H   -0.9391650251    1.9120587327    0.4944429342
 H   -0.8576920592   -0.4751593939   -0.3461680472
 H    3.0566487318    0.1297538345   -0.9344517567
 H    2.1012519959   -0.5083771819    2.8419335240
 H    1.3217629198    1.0358877123    2.5121670917
 H   -0.4767016225   -2.4953754028    1.0127710510