21

 O    0.0070629496    1.4423153877   -0.1160955464
 C    0.0386657915    0.0262408148   -0.0423675070
 C   -1.4003145916   -0.4760622067   -0.0775596642
 C   -1.4883051097   -1.9949933240    0.0114505160
 C   -1.1877526014   -2.7178800007    1.3549834324
 C   -2.3473020283   -3.6996952888    1.0513988989
 C   -2.8936191662   -2.7071328614   -0.0262772665
 C   -4.0251152606   -1.8621624475    0.4923963635
 O   -5.0126304223   -1.5760473436   -0.1363618264
 H    0.9116267014    1.7669345130   -0.0854352267
 H    0.6012454894   -0.4067368738   -0.8864664860
 H    0.5310925926   -0.3140487807    0.8834729849
 H   -1.9480426126   -0.0048443761    0.7472049103
 H   -1.8694420841   -0.1253599986   -1.0049672557
 H   -0.8790370641   -2.4397208838   -0.7842036752
 H   -0.1900557861   -3.1413796375    1.4917425015
 H   -1.4087823424   -2.0768579449    2.2146983270
 H   -2.0030965720   -4.6278329443    0.5898998352
 H   -3.0212585471   -3.9530366916    1.8740912234
 H   -3.1936983662   -3.1219850546   -0.9904381565
 H   -3.9017939200   -1.5083425070    1.5437961074