25

 C   -0.0251681349    1.5582657969    0.0163634743
 C    0.0222765846    0.0275334200    0.0012681150
 C    0.6867371341   -0.5084968318   -1.2779358509
 C    0.7625153417   -2.0411839339   -1.2888117601
 C    1.4696326757   -2.5768134592   -0.0374552250
 C    0.8049782664   -2.0637369906    1.2496819837
 C    1.5113832102   -2.5779869951    2.5005654047
 O    1.4343507880   -3.9974631520    2.5130856173
 C    0.7331516079   -0.5282282618    1.2475831990
 H    0.9862634751    1.9819565989   -0.0015398413
 H   -0.5625066922    1.9480332129   -0.8549658745
 H   -0.5262046843    1.9343130605    0.9150641429
 H   -1.0133929090   -0.3452220371    0.0181975664
 H    0.1428208971   -0.1463166967   -2.1588710641
 H    1.7031977533   -0.0937787093   -1.3496976599
 H   -0.2549954151   -2.4538298789   -1.3345864645
 H    1.2769408769   -2.3885491751   -2.1921618824
 H    1.4821425156   -3.6701275634   -0.0328109787
 H    2.5204439867   -2.2497773174   -0.0467631016
 H   -0.2222232843   -2.4565731713    1.2817721272
 H    2.5610424171   -2.2381459631    2.4960668785
 H    1.0330664255   -2.1497906450    3.3967684448
 H    1.9295118159   -4.3193185768    3.2715133800
 H    1.7541326855   -0.1178181590    1.2860628453
 H    0.2242128728   -0.1727495215    2.1530554239