19

 C   -0.1430539222    1.5586804303    0.0204248171
 C    0.0329828520    0.0414582609    0.0031313557
 C    0.8765410413   -0.5103645613   -1.1960718883
 C    1.9903908192   -1.3461542521   -0.4927274241
 C    1.2298885765   -1.9270832118    0.7161292228
 C    0.8221878200   -0.5303202182    1.2029797097
 O    2.1018294440    0.1591511556    1.2647450590
 C    2.8602714101   -0.3196205266    0.2246517247
 O    3.9619635326    0.0774220811   -0.0142059425
 H    0.8244219681    2.0661222182    0.0639546123
 H   -0.6663087149    1.8971831312   -0.8793434091
 H   -0.7295461795    1.8792145715    0.8880850390
 H   -0.9560582384   -0.4308392402    0.0046687441
 H    0.2814359284   -1.1538907342   -1.8492844165
 H    1.2968330759    0.2889890655   -1.8121768887
 H    2.5590236874   -2.0144926384   -1.1348585405
 H    0.3787285309   -2.5551346414    0.4417814898
 H    1.8679662533   -2.4568058399    1.4276438590
 H    0.3483202853   -0.4384129103    2.1794764264