20

 C    0.0486968669    1.5220194057   -0.1288211997
 C    0.1443574309    0.0346603192   -0.0153459938
 N   -0.8472800174   -0.8015621280    0.7128569332
 C    0.5944410613   -0.8743407544    1.0759315599
 C    1.2203916875   -1.8520791012    0.0793357687
 C    0.7271953217   -0.9212252731   -1.0732712602
 C   -0.0572861957   -1.3724789706   -2.3161444179
 C    1.0791040647   -0.6964165714   -3.1059190117
 O    1.7766825057   -0.3546815755   -1.8856660991
 H    0.9717248725    1.9248576065   -0.5558787128
 H   -0.7818455473    1.8212046941   -0.7799350230
 H   -0.1107580216    1.9849436822    0.8511131725
 H   -1.2977420461   -0.1893033063    1.3943007292
 H    0.9221898785   -0.6415411847    2.0820741418
 H    2.3127410777   -1.8527498792    0.1008896157
 H    0.8360183147   -2.8753765739    0.0987686209
 H   -0.1299582174   -2.4539069638   -2.4415070034
 H   -1.0506751882   -0.9335397766   -2.4205389253
 H    1.6816361471   -1.3515085129   -3.7455266045
 H    0.7985890844    0.1969911439   -3.6768683506