20

 C   -0.0374391369    1.5025898822   -0.0136941328
 C    0.0280301917    0.0057577107    0.0158877476
 C    0.1014614910   -0.8342063167   -1.0716791381
 N    0.1664079387   -2.1241902974   -0.6134747673
 C    0.1012609305   -2.1320094479    0.7575974664
 C    0.1860348111   -3.4267073071    1.4922305667
 O   -0.4996990035   -4.4180855569    0.7235632267
 C    0.0244970769   -0.8219725292    1.1873476030
 C   -0.0335880503   -0.3327355719    2.6033933968
 H    0.8225547018    1.9633562021    0.4887298541
 H   -0.0543365367    1.8759161161   -1.0420097237
 H   -0.9356565515    1.8835854115    0.4884198854
 H    0.1022873057   -0.6140666967   -2.1278758431
 H    0.1015718593   -2.9624604232   -1.1645013674
 H    1.2365096572   -3.7317156960    1.6385658070
 H   -0.2567796130   -3.3128947651    2.4924935083
 H   -0.2858779496   -5.2794653457    1.0943583873
 H    0.9043275965    0.1437225229    2.9178301901
 H   -0.8250908838    0.4142602805    2.7363160993
 H   -0.2319940349   -1.1470785122    3.3070436537