18

 C    0.1096152970    1.5797053175    0.0138217206
 C    0.0064246699    0.0410935590   -0.0297947030
 C   -1.4540445416   -0.4707965539    0.0073778567
 C   -2.1919941662   -0.1340646432    1.3195775305
 C   -3.5350897792   -0.6991527376    1.3614857403
 C   -4.6399126316   -1.1723551819    1.3706897818
 C    0.6856974479   -0.4835837114   -1.2138812503
 C    1.2261138794   -0.9058575462   -2.2013396635
 H    1.1537419311    1.8955015469   -0.0514678213
 H   -0.4315677398    2.0247303259   -0.8268252914
 H   -0.3062133507    1.9776885735    0.9434464368
 H    0.5219592356   -0.3579817697    0.8562950547
 H   -2.0061251825   -0.0520833128   -0.8409364928
 H   -1.4516337525   -1.5563059865   -0.1271463589
 H   -1.6107256259   -0.5104515392    2.1724438679
 H   -2.2575338752    0.9523913350    1.4515042563
 H   -5.6171121032   -1.5868558157    1.3894928323
 H    1.7111481376   -1.2847960298   -3.0665187567