17

 C   -0.1042608306    1.5040875527    0.0265074700
 C   -0.0824528476   -0.0172099859   -0.1425407415
 C    0.9393174931   -0.4789826441   -1.1813201306
 N    0.9713578155   -1.9345036122   -1.2806724258
 C    0.0442473605   -2.5354594422   -2.2342674002
 C    1.5048833988   -2.4857031315   -2.5199755069
 H    0.8715502187    1.8818517199    0.3516460236
 H   -0.3556719803    2.0073037693   -0.9139796041
 H   -0.8433288803    1.8092606555    0.7732965934
 H    0.1484079198   -0.5028874780    0.8123099459
 H   -1.0775772967   -0.3735027912   -0.4372465062
 H    0.7175880414   -0.0056603245   -2.1574657393
 H    1.9426775633   -0.1436142120   -0.8886445900
 H   -0.4284815938   -3.4617755261   -1.9205704726
 H   -0.5957691889   -1.8699706689   -2.8127319143
 H    1.8351373108   -1.7880903659   -3.2887219997
 H    2.1204908964   -3.3750158749   -2.4178299718