18

 O    0.0313346566   -0.0454465787   -0.1871754115
 C    0.0377610065    1.1671091099   -0.0699912443
 N   -1.1230452300    1.8685528884    0.1653470740
 C   -1.3354176775    3.2780432715    0.0298757583
 C   -1.0384538599    4.2224978295    1.1736238805
 C   -0.1093487194    4.1481967030   -0.0189333976
 C    1.2411554879    3.4823585628    0.0050353753
 C    1.7371627540    2.6694267860    1.1626773331
 C    1.2985674802    1.9690838893   -0.1133294065
 H   -1.9355830977    1.2739491176    0.2451378302
 H   -2.1659493103    3.5289849286   -0.6246700166
 H   -1.6561073629    5.1073732568    1.2817748770
 H   -0.7123086273    3.7806947639    2.1079420458
 H   -0.1634470597    4.9833719507   -0.7085501993
 H    2.0031751755    4.0201850450   -0.5488580538
 H    2.7993855980    2.6847817205    1.3779550080
 H    1.1076859825    2.5552805440    2.0376566029
 H    2.0690820535    1.5051753313   -0.7161681355