16

 N   -0.0676631928    1.2993824077   -0.2902973485
 C   -0.0110027183    0.0707141531   -0.0001712484
 C   -1.2911958620   -0.7546282091    0.1074193517
 C   -1.0536988150   -2.0294787301    0.9364945910
 O    0.1163866738   -2.6361308713    0.3586962365
 C    1.1450492705   -1.8419810464    0.8657102219
 O    1.1900398767   -0.5789571798    0.1541358216
 C    0.7336791866   -1.5772375779    2.3063775146
 C   -0.5917070074   -1.6749696670    2.3402391114
 H    0.8754827331    1.6892078634   -0.3516262704
 H   -2.0760841039   -0.1150165785    0.5161235533
 H   -1.5942374731   -1.0490256493   -0.9033376374
 H   -1.8841222405   -2.7348963616    0.8764706773
 H    2.1114642973   -2.3096071445    0.6831927053
 H    1.4129835743   -1.2573817742    3.0836062365
 H   -1.2596916594   -1.4514214744    3.1610218734