23

 C   -0.2245022753    1.4874167936   -0.2068797692
 C   -0.0422059904   -0.0179416311   -0.0738396311
 C    1.2213336392   -0.5759946789   -0.8471901757
 C    1.9130751778   -0.5638246386    0.4943881477
 C    2.9627763723   -0.1210974647    1.1768528169
 C    2.5510084441    0.1642350256    2.6248585365
 C    3.2311564405    1.3996041630    3.2222751229
 C    0.9905367999    0.2999984745    2.5221826117
 C    0.6291111420   -0.5240562636    1.2720844214
 H    0.7093408324    2.0217043755   -0.0001293067
 H   -0.5393637964    1.7511975902   -1.2222459765
 H   -0.9857698931    1.8611304834    0.4863692924
 H   -0.9756955334   -0.5325380294   -0.3197728873
 H    1.0390585570   -1.5821372057   -1.2393428365
 H    1.6434629442    0.0423206671   -1.6446162099
 H    3.9562179329    0.0960328268    0.7987982178
 H    2.7981607151   -0.6963530364    3.2659381700
 H    3.0368255070    2.2871478733    2.6091956337
 H    2.8611606794    1.6019814210    4.2333257101
 H    4.3166544974    1.2672931276    3.2861238663
 H    0.4824507829   -0.0306584244    3.4333107704
 H    0.7397770943    1.3575339429    2.3759393700
 H    0.2319175403   -1.5145575118    1.5262126951