19

 C   -0.1545465647    1.5272447049   -0.0604688029
 C    0.0319795071    0.0090219487   -0.0032314120
 O    0.7391736067   -0.4675120815   -1.1499060786
 C    0.7952623710   -0.4920580596    1.2364113989
 C    0.7562506349   -2.0246591057    1.3115310187
 C    2.2423462994    0.0323360504    1.2820699558
 O    2.9262603830   -0.3393882132    2.4727443880
 H    0.8021732056    2.0454682546   -0.1663468997
 H   -0.7795386727    1.8018722971   -0.9184490590
 H   -0.6543402749    1.8958583966    0.8412063751
 H   -0.9697085891   -0.4530502191    0.0279013761
 H    0.2717419041   -0.1672940659   -1.9352132728
 H    0.2758554955   -0.0906291642    2.1166787381
 H    1.2542523468   -2.4691717876    0.4444537178
 H    1.2410507299   -2.3861951591    2.2235689669
 H   -0.2753994118   -2.3912659944    1.3275486191
 H    2.7828448827   -0.3016603931    0.3864449843
 H    2.2482770523    1.1260728893    1.2786840009
 H    3.1454145942   -1.2729718684    2.4075175852