17

 C    0.0800896654    1.4240207833    0.0181318451
 N   -0.0319967687   -0.0200007375    0.0376473049
 C   -1.2217468171   -0.6582046559    0.0153115808
 C   -2.4839423029   -0.1499209988    0.0601130334
 C   -3.4502044263   -1.2434143650    0.0676407299
 O   -4.6537382813   -1.2139796945    0.0284583767
 N   -2.7026459243   -2.5157924282    0.1161398693
 C   -2.0058934095   -2.7932697426   -1.1477512322
 C   -1.2924386065   -2.1501235721   -0.0016412933
 H    1.1241891275    1.7064746247    0.1644922143
 H   -0.2728044089    1.8564204012   -0.9277724658
 H   -0.5118065564    1.8550972287    0.8324754513
 H    0.7933179223   -0.5598849244   -0.1612218413
 H   -2.7801161310    0.8872830458    0.0198835630
 H   -1.8334189271   -3.8445802468   -1.3631224483
 H   -2.2423634244   -2.1699447946   -2.0067183945
 H   -0.5777483609   -2.7171233933    0.5897302468