17

 O   -0.0526984163    0.0201845121   -0.2914379496
 C   -0.0499029698    1.1934947859   -0.0769983452
 C   -1.1201183555    2.2398028539    0.2862745519
 N   -0.0093167187    3.1850750928    0.5844856519
 C    1.0194450183    2.2940706112   -0.0083050078
 C    2.4124349428    2.1992409790    0.6965436147
 C    3.0691622357    2.6787655898   -0.6052071289
 N    2.7105549289    1.6738080601   -1.6301320842
 C    1.7499273554    2.7504264486   -1.2906001340
 H   -1.7563603383    2.4995618444   -0.5709204572
 H   -1.7598506617    2.0062402704    1.1435156659
 H   -0.0913862383    4.0854447019    0.1247587434
 H    2.4555095371    2.9272499870    1.5090588129
 H    2.7213210407    1.2116041710    1.0457045725
 H    3.9474688761    3.3015771546   -0.7192040935
 H    3.1626333011    1.9477080992   -2.5028970975
 H    1.3676663325    3.4277549280   -2.0465602954