15

 O    0.0989337289    0.0419417084    0.2816004579
 C   -0.0152422767    1.2332634645    0.1344243353
 C   -1.2820138289    2.0536260352   -0.1696142930
 C   -0.7910769950    3.4764213525   -0.1750046251
 C    0.5271684663    3.4752850059    0.0520374174
 C    1.4794507551    4.6361052381    0.0864691362
 C    2.3152042425    4.6548162622    1.2912947410
 N    2.9830807474    4.6429118662    2.2336278791
 N    1.0117126468    2.1669871569    0.2104008903
 H   -1.7036709850    1.7298712721   -1.1285256096
 H   -2.0424212547    1.8472183173    0.5919118688
 H   -1.3994496841    4.3508720004   -0.3492269709
 H    2.1484341725    4.6077430413   -0.7842696843
 H    0.9131522817    5.5697699822    0.0252286225
 H    1.9396696031    1.9232581569    0.5191455144