16

 C   -0.3048446731    1.4804423901    0.0874816538
 C   -0.0202515012   -0.0035029313    0.0920579755
 C    1.3106769618   -0.5539939082   -0.2883727573
 C    0.8668541465   -0.6730792246    1.1612253945
 C    1.5567496093    0.1552817748    2.1823056961
 O    2.1773082401    1.1726060942    1.9302191542
 C    1.4410627304   -0.3283525223    3.5502760519
 C    1.3455849699   -0.7384239121    4.6781602274
 H    0.5666945699    2.0532837631    0.4088089118
 H   -0.5765885159    1.8040964310   -0.9232318859
 H   -1.1404930144    1.7251488311    0.7517482769
 H   -0.8739162160   -0.6235221528   -0.1699743984
 H    1.3693213067   -1.4704814411   -0.8644764187
 H    2.1106735335    0.1586786468   -0.4598674000
 H    0.5296523060   -1.6407379441    1.5136697681
 H    1.2705693066   -1.0846557146    5.6803544501