11

 O   -0.0481778742   -0.0330970144   -0.1909147335
 C    0.0556521125    1.0764657932    0.2265138467
 C    1.4073009703    1.8901574883    0.1526572178
 C    1.2531637707    2.7321022582   -1.1746881710
 O    0.8486036752    3.8512282567   -1.1806390116
 C    1.5027330539    2.7645640861    1.3178579189
 N    1.5241761469    3.4442057518    2.2504157313
 C    2.5508537844    0.9925459033    0.0187720477
 N    3.4566862393    0.2956731832   -0.1420731558
 H   -0.7690622656    1.6693853278    0.6626828534
 H    1.5195265165    2.1495847959   -2.0756359340