19

 C    0.1861305181    1.5813028331   -0.0161867318
 C    0.0659463921    0.0544809521   -0.0124145854
 C    0.6956333145   -0.6220290143   -1.2222880414
 O    2.1203653410   -0.4928661285   -1.2916451176
 C    1.5743592681   -1.7271316261   -0.8038213494
 C    1.5907317635   -1.8271956884    0.7099903870
 C    2.7554347375   -1.1043181736    1.4224346024
 O    1.9246291917    0.0402313808    1.7111078889
 C    0.7454651484   -0.6220786494    1.2052814381
 H    1.2380816152    1.8714257264   -0.0237942963
 H   -0.3053863071    2.0086299061   -0.8958473929
 H   -0.2792634633    2.0143303783    0.8744061126
 H   -0.9960832526   -0.2281011415   -0.0007538465
 H    0.1856733426   -0.6048632750   -2.1840606880
 H    1.7711509246   -2.5973905075   -1.4253785637
 H    1.3328198277   -2.8251954168    1.0668446742
 H    3.1006896958   -1.5928293117    2.3417383930
 H    3.6120271834   -0.8406848647    0.7951442007
 H    0.0318568287   -0.8072752493    2.0174118961