18

 O   -0.4548752589    0.5957313339    0.7044906171
 C    0.2326853071    0.9497934391   -0.2205175836
 C    1.3911347032    1.8857356194   -0.1082402585
 C    1.9132451421    2.1855425288    1.2885795596
 C    2.2848818461    3.6595419130    1.4609625415
 O    2.9810370855    4.1581006421    0.3233703639
 C    2.1202686411    4.2701923786   -0.7901066776
 C    1.5096527227    2.9374312066   -1.1824255883
 N    2.3378801089    1.7463940997   -1.2485360094
 H    0.0488946594    0.6050081699   -1.2615989704
 H    1.1409593784    1.9000024263    2.0093766605
 H    2.7854596616    1.5515577657    1.4881720042
 H    1.3796798099    4.2644933920    1.6282873002
 H    2.9493361935    3.8015591912    2.3168676422
 H    1.3118280289    4.9925209303   -0.5871769630
 H    2.7262599111    4.6636922940   -1.6136400350
 H    0.7410326915    2.9996497753   -1.9516251079
 H    3.2717426278    1.9717873042   -0.9063776355