17

 O    0.0695404533    1.4278148464    0.0409331335
 C   -0.0508557743    0.0605868369    0.0809294821
 C    0.7067744967   -0.7740878628    1.1015774354
 C   -0.4750718536   -1.8063417460    1.1082684449
 C   -1.2067966186   -0.9491053460    0.0874086423
 O   -2.5780228086   -0.8847834416    0.0557482558
 C   -0.3241999367   -0.8010288569   -1.1663294300
 C   -0.9568431674   -0.0836360794   -2.2301065250
 C   -1.5330388081    0.5707444548   -3.0644214450
 H   -0.2912525893    1.7430530804   -0.7983874503
 H    1.6879129277   -1.1473263686    0.7918087788
 H    0.8056018884   -0.2522228871    2.0555300901
 H   -0.2391513714   -2.8304941183    0.8027459171
 H   -0.9993739521   -1.8287061254    2.0657364709
 H   -2.8472133942   -0.4896948728   -0.7841614510
 H    0.3641366358   -1.5910254890   -1.4704521905
 H   -2.0168824378    1.1198054254   -3.8345008392