17

 O   -0.1720678063    1.4068597344   -0.0279745760
 C    0.0061721884    0.0438356393   -0.0155886513
 C   -1.0350195374   -1.0422829445    0.0476301038
 C   -0.4082835051   -1.7599147951   -1.1446537866
 C    0.8467374669   -0.8133948531   -1.0213345323
 C    1.8818518148   -1.5328264790   -0.1714072535
 O    2.9891195757   -1.8736954924   -0.4965785703
 C    1.2350836232   -1.7510167858    1.2158335164
 C   -0.0044252292   -0.8762575322    1.1787614295
 H    0.5612427113    1.8215640351    0.4408445864
 H   -2.0927459432   -0.9608903868    0.2661495209
 H   -0.2280740908   -2.8376779314   -1.0695355646
 H   -0.9477453387   -1.5529007520   -2.0709617425
 H    1.2275033207   -0.3702402297   -1.9381162229
 H    1.0394630760   -2.8183242869    1.3700518012
 H    1.9390606118   -1.4416945200    1.9952355767
 H   -0.4207222479   -0.4839804400    2.0996054951