18

 C   -0.0836813983    1.6329218503   -0.0339289758
 C    0.0784344257    0.1044591989    0.0289975289
 C   -1.0618377613   -0.5924709104   -0.5317372732
 C   -2.0128270502   -1.1625524777   -0.9992646373
 C    1.3483401792   -0.7200990395   -0.2081483556
 C    2.6432526350   -0.1694274670    0.4510123238
 N    2.3544941307    1.1114625932    1.1442049683
 C    1.9988580372   -0.1830760046    1.7784676374
 C    0.6843805940   -0.7341789411    1.1596146440
 H    0.7106581294    2.0938176350   -0.6203306884
 H   -1.0449309496    1.8697224420   -0.4978340346
 H   -0.0562236532    2.0775715330    0.9604485302
 H   -2.8555831834   -1.6574158487   -1.4134535263
 H    1.3617586673   -1.5048854348   -0.9529920598
 H    3.6491104227   -0.4337195868    0.1523683850
 H    3.2293578092    1.4158804810    1.5720322120
 H    2.3886054713   -0.4604083599    2.7490201074
 H    0.1138601745   -1.5313566129    1.6177370642