17

 N   -0.2982603399    0.8976003345   -0.8585441149
 C   -0.2834974305   -0.2330857021   -0.0992327511
 C    1.0770612370   -0.8431430453    0.0834960781
 O    2.0720371412   -0.4043779920   -0.4408697952
 N   -1.2406994703   -0.8293764120    0.5179279432
 C   -2.5698664556   -0.2388219725    0.4481344580
 C   -3.2781551250   -0.4729172847   -0.8701176166
 C   -4.2853031043    0.4690403018   -1.3724095267
 O   -2.9715858088    0.4379193702   -1.9427067193
 H    0.5772296093    1.1083475047   -1.3161353627
 H   -1.1515884079    1.1504212084   -1.3381867815
 H    1.0723717484   -1.7293278250    0.7448423402
 H   -3.1791860676   -0.6897994186    1.2405612716
 H   -2.5385851417    0.8477476023    0.6302460457
 H   -3.3361128433   -1.5127519374   -1.1902714591
 H   -5.0788511360    0.1185499351   -2.0293077794
 H   -4.5204037450    1.3601390627   -0.7927403302