15

 O   -0.0461638169    1.3353762948    0.0096404393
 C    1.0962258198    2.0797603314    0.0027017946
 C    2.3327564996    1.5318944313   -0.0120583861
 C    2.4652620133    0.1187189606   -0.0208953450
 C    3.5071408082   -0.7772751731   -0.0356395646
 C    2.9460167725   -2.1023127290   -0.0373797106
 C    1.5701225338   -2.0508225346   -0.0239794847
 C    1.2119756171   -0.6645265782   -0.0131070606
 C    0.0295963855   -0.0065792916    0.0017293653
 H    0.8694555627    3.1358057244    0.0105297850
 H    3.1936299578    2.1911375989   -0.0167531335
 H    4.5621543638   -0.5413166182   -0.0444506307
 H    3.5343868311   -3.0117679571   -0.0478707833
 H    0.8847342732   -2.8855666346   -0.0219197866
 H   -0.9545343315   -0.4593416350    0.0087057315