19

 C   -0.1772098518    0.9539347836   -0.5556730565
 C    1.0400277200    1.2530663069    0.2977067968
 C    0.4599638864   -0.1220962321    0.2852301374
 O   -0.1789577423   -0.5336668421    1.4601616242
 C   -1.1882157874   -1.4763861390    1.2479565071
 C   -0.8815710111   -3.0113722688    1.2517968344
 C   -0.5314119376   -2.9273211624    2.7558733500
 C   -1.8266226123   -2.1199032178    2.4981431315
 O   -2.3027867072   -3.2071491617    1.6119191000
 H   -1.1265037175    1.3482019042   -0.2108670854
 H   -0.0664291870    0.9081582858   -1.6333470828
 H    1.9960158032    1.4164884302   -0.1863663039
 H    0.8792046388    1.8333845718    1.1989600182
 H    1.0091269521   -0.9129380747   -0.2249122026
 H   -1.9021031739   -1.1715698788    0.4757976791
 H   -0.4711227833   -3.6532802456    0.4719375070
 H   -0.6715088242   -3.8546939618    3.3122863473
 H    0.3623971954   -2.3720967006    3.0419727184
 H   -2.5395253203   -1.6955929270    3.2051475599