11

 O   -0.0369040446    1.2965852667   -0.2464294556
 C    0.0232566478   -0.0163429688   -0.0219237985
 N    1.1540899188   -0.6029692481    0.0818556876
 O    1.1347629467   -1.9826390206    0.3173774914
 C   -0.0269708637   -2.7011243248    0.4363170827
 N   -0.0504677655   -3.9336610662    0.6471538447
 O   -1.2106209224   -2.0297088434    0.3180499211
 C   -1.3002414745   -0.6879676389    0.0885862360
 O   -2.3572958366   -0.1504661278   -0.0066184531
 H    0.8701464092    1.6338701586   -0.3011841363
 H    0.8921496748   -4.3109348667    0.7147602499