15

 C   -0.0990134954   -1.3018336142   -0.1215747361
 C   -0.0338791209   -0.1047457514   -0.0353505103
 C    0.0038189315    1.3425299839    0.0279156245
 C   -0.0838287635    2.0589807522    1.4275481052
 C    1.1756006992    1.5663753798    2.1162626073
 C    2.1156090789    1.5840061961    1.1532685340
 C    1.3875672963    2.0865680510   -0.0798330838
 C    0.6164589698    3.2601590696    0.6610223532
 O    0.5780541000    4.4426491890    0.6451758893
 H   -0.1475213206   -2.3605739657   -0.1881861123
 H   -0.7211194778    1.7760465585   -0.6717901225
 H   -1.0155854298    2.1499140005    1.9792110039
 H    1.2789634576    1.3723584817    3.1735793966
 H    3.1784999311    1.4079835624    1.2275953021
 H    1.9146480434    2.2048557565   -1.0226827411