15

 O    0.7988763523    1.0396457615   -1.4266992318
 C    0.3686194579    1.4402335085   -0.3630815134
 N    1.0761731253    1.4499457259    0.7948401699
 C    2.4752567823    1.0246615997    0.8267935301
 C    3.4393800336    2.0411299636    0.2827442820
 C    3.6414991708    2.4060020006   -1.0145498178
 O    4.5820308779    3.3537786781   -1.0973672374
 N    5.0474570074    3.6488501163    0.1811914973
 C    4.3631331049    2.8693197198    0.9809096734
 H   -0.6607532409    1.8260475719   -0.2325282879
 H    0.6816691683    1.9099356509    1.5995215661
 H    2.7272621394    0.7840687373    1.8625126282
 H    2.5405346939    0.1011684204    0.2458715459
 H    3.1829672289    2.0881655551   -1.9373975949
 H    4.5540798381    2.9151632704    2.0448612004