14

 O   -0.0491008536   -0.0995178661    0.1798648175
 C    0.0437545946    1.0827071054   -0.0068789993
 O    1.1620623561    1.8052131160   -0.0149777300
 C    2.3825370651    1.0613832740    0.2300757978
 C    3.5166656305    2.0408389543    0.1970788541
 C    4.8606310499    1.6054682048   -0.2024532023
 O    4.0400508532    2.3648286899   -1.0879698986
 C   -1.1154782398    1.9467150118   -0.2624959067
 N   -2.0626076367    2.5782659223   -0.4555961365
 H    2.3016598815    0.5687020162    1.2041959780
 H    2.4974596342    0.2980254490   -0.5436001288
 H    3.4185721310    2.8880847003    0.8755514118
 H    5.7286059228    2.1233009469    0.2009762898
 H    5.0300259110    0.5695694852   -0.4935741567