18

 O   -0.0334488993   -0.0739621674    0.0272442704
 C   -0.0322102142    1.1438209737    0.0192610559
 N   -1.1738127806    1.8902300627    0.0620634957
 C   -1.1803278398    3.3411505025    0.0532998086
 C    0.2389394198    3.8794734294   -0.0096758871
 C    1.2546392494    3.2125588646   -0.9894490556
 C    2.3890117277    3.7861195841   -0.0992946892
 C    1.3335029962    3.2245803045    0.8900063496
 C    1.2322911046    1.9684161616   -0.0391366792
 H   -2.0413475754    1.3770038603    0.1020025915
 H   -1.7513360530    3.7168899588   -0.8083625955
 H   -1.6772654560    3.7279006520    0.9550631652
 H    0.2329960343    4.9736663029   -0.0164220843
 H    1.2040899588    3.1936482799   -2.0791065685
 H    3.3473645281    3.2624779056   -0.1361582250
 H    2.5215960368    4.8717435633   -0.1117995019
 H    1.3744254693    3.2196091527    1.9802209863
 H    2.1014250733    1.3102406287   -0.0713928268