18

 O    0.4152297250    1.0779881225   -0.7176481273
 C    0.1520158829   -0.2480751433   -0.2850923849
 C   -1.2350198316   -0.2712881322    0.3343899517
 C   -2.3867953698   -0.0816427701   -0.6908457317
 C   -2.6195270619   -1.6297381036   -0.6851541580
 C   -1.7610872939   -1.7049910231    0.6223073352
 C   -3.9785522673   -2.1270284564   -0.6491606436
 C   -5.1130836369   -2.5244938252   -0.5988221962
 H    1.2806219083    1.0941356669   -1.1364252457
 H    0.2006297770   -0.9574419760   -1.1288538039
 H    0.8914188500   -0.5817973644    0.4615771256
 H   -1.2487892612    0.4183942015    1.1819585504
 H   -3.2407867115    0.4483547671   -0.2649093403
 H   -2.1241287740    0.3759440538   -1.6464265235
 H   -2.0815069553   -2.0970036069   -1.5163696616
 H   -1.0245177934   -2.5116732065    0.6758883474
 H   -2.3930524000   -1.7464432013    1.5113072442
 H   -6.1132184264   -2.8784167728   -0.5609066677