19

 O   -0.3415389785    1.4228921881    0.7472160344
 C   -0.0347079297    0.2020512034    0.0580180236
 C    1.1125456715   -0.4760435240    0.7630166681
 C    1.3057344032   -1.7304074555    1.1692578667
 C    0.4289705522   -2.9440758443    1.0244335898
 C   -0.4304629781   -3.0277136049   -0.2415497725
 C   -1.5242460089   -1.9854032996   -0.3326113860
 O   -1.9098674105   -1.3078642457    0.8728161580
 C   -1.3291544452   -0.5390153041   -0.1927342907
 H   -0.6544881050    1.1688760617    1.6237679458
 H    0.3199910165    0.5441475422   -0.9255299802
 H    1.8934615360    0.2479385077    0.9888315909
 H    2.2366634829   -1.9178103936    1.7025536735
 H    1.0672127842   -3.8341313021    1.0591004384
 H   -0.2299478850   -3.0119027525    1.9000370787
 H    0.2017496752   -2.9606855309   -1.1362568967
 H   -0.9008817148   -4.0178239335   -0.2708297187
 H   -2.3750385849   -2.2860613668   -0.9474932553
 H   -2.0515479510    0.1092329243   -0.6926467077