18

 C   -0.4908394794    1.3971992618    0.1413154097
 C    0.3746133881    0.1444820174   -0.0764953061
 C    0.8813893617   -0.4506039038    1.2035358028
 N    2.1556973215   -0.2940012496    1.5670642934
 N    2.2649262332   -0.9143243468    2.7600183986
 C    3.5460321362   -0.9614633831    3.4278355496
 C    1.0924316815   -1.4637673357    3.1599848725
 C    0.1656480295   -1.1851621228    2.1787428663
 H    0.0808947498    2.1787190184    0.6508991869
 H   -0.8438242461    1.7993802590   -0.8137178944
 H   -1.3674084977    1.1707883074    0.7568483066
 H   -0.2080896055   -0.6068505505   -0.6233863303
 H    1.2376715080    0.3956845996   -0.7005574755
 H    3.9437970127    0.0496925845    3.5453590365
 H    3.4160816633   -1.4139096826    4.4125236729
 H    4.2620419404   -1.5548292612    2.8510885676
 H    1.0140713628   -2.0024491439    4.0916461757
 H   -0.8744441701   -1.4695053781    2.1666745373