17

 C   -0.2394968229    1.5442067469   -0.0546858646
 N    0.1670388356    0.1434476450    0.0989657289
 C    1.3754545640   -0.4988722594   -0.2603349953
 C    2.7005876807    0.1763172430    0.2365326373
 N    2.3635061455    1.4667827205    0.8855024288
 C    2.2076162442    0.1956884114    1.6254109723
 C    0.8596983761   -0.4749279340    1.1957179595
 C    0.2560352306   -1.5969954605    1.9252549173
 O    0.6885084083   -2.0318546682    2.9685143880
 H    0.4156266579    2.0739644623   -0.7471812175
 H   -1.2645318857    1.5595701826   -0.4429212770
 H   -0.2112178244    2.0699777207    0.9005587481
 H    1.3651446923   -1.3367361652   -0.9510730610
 H    3.6886093825   -0.0398749723   -0.1460046781
 H    3.2424439184    1.8844950485    1.1904141254
 H    2.7195558395   -0.0196213485    2.5519073369
 H   -0.6343468526   -2.0293622427    1.4198867511