20

 C   -0.1147725668    1.4576959423   -0.1220972140
 N    0.0285446988    0.0160935513    0.0338061718
 C    1.3510863837   -0.5432199834   -0.1477000073
 C    0.7406026073   -0.4701234542    1.2219813891
 C    1.2802164830    0.4063451291    2.3469575287
 C    1.5943298947   -0.6028123529    3.4772328703
 C    0.5039387171   -1.6800450264    3.3487393604
 C    0.2152694238   -1.7480259528    1.8489961270
 O   -0.3031691309   -2.6568264908    1.2531833584
 H    0.7714538740    2.0388471766    0.1780683349
 H   -0.3207849414    1.6703160511   -1.1754778649
 H   -0.9708442043    1.8041229703    0.4650574338
 H    1.3888094132   -1.5036586265   -0.6550066098
 H    2.1813979100    0.1348042693   -0.3469745145
 H    2.1533918104    0.9986341962    2.0660151253
 H    0.5031447759    1.1065442109    2.6798596879
 H    2.5788789065   -1.0520621922    3.3060875133
 H    1.6180058128   -0.1297673778    4.4615596477
 H    0.7652737080   -2.6602422097    3.7521852538
 H   -0.4221179759   -1.3584288905    3.8452941382