19

 O    0.7137105534    0.0503980025   -0.4199535092
 C   -0.3801706768    0.4183951256    0.4035838231
 C   -1.6252738423   -0.3819502576    0.0916528729
 O   -2.7701378096    0.0252591887    0.8175301093
 C   -3.2691442891   -1.1141164003    1.5447781753
 C   -2.9134528353   -2.3511540619    0.6967330761
 C   -1.7019950682   -1.8752652624   -0.1013251382
 C   -1.9920424042   -0.9271251888   -1.2641710450
 O   -3.2867899819   -0.7428685246   -1.7359046674
 H    0.5608937088    0.4209189096   -1.2946820952
 H   -0.0670935763    0.2250152075    1.4358935753
 H   -0.6088316030    1.4919138093    0.3281808344
 H   -2.7837648484   -1.1574539082    2.5298205434
 H   -4.3419067262   -0.9640114595    1.6923854471
 H   -2.6757863788   -3.2155789077    1.3207967888
 H   -3.7375963970   -2.6235270607    0.0302875216
 H   -0.7997885057   -2.4733229700   -0.1453618218
 H   -1.2496014124   -0.9025398047   -2.0570881234
 H   -3.7222416272   -0.1668990067   -1.0907519970