16

 C   -0.0289612181    1.5189141928    0.1337321184
 C   -0.0035776231    0.0370061223   -0.0109867078
 C   -0.0451676258   -0.7822364674   -1.1253307148
 N   -0.1624416248   -0.3915292489   -2.4670518512
 N   -0.0267762421   -2.0996609807   -0.7734508975
 C    0.0297599920   -2.1157595807    0.5537095631
 N    0.0583214302   -0.8416501309    1.0502657988
 C    0.0598168647   -3.2501413772    1.3918278582
 C    0.0892723001   -4.1989154929    2.1337142898
 H    0.9561218924    1.9465506690    0.3639665485
 H   -0.3750528050    1.9681549970   -0.8011613903
 H   -0.7169077310    1.8397954482    0.9249828345
 H    0.5450003484    0.2746132034   -2.7513880021
 H   -0.1092786391   -1.2080176849   -3.0640695666
 H    0.1035173346   -0.5978014407    2.0257381188
 H    0.1135474065   -5.0452973283    2.7742554403