14

 O   -0.0013748092   -0.0111782370    0.0263075791
 C   -0.0420693768    1.1719121279   -0.0199807829
 C   -1.0652222424    2.3268926198    0.0517417471
 C   -0.0393440000    2.9921297902    1.0102040778
 C    1.0089398853    2.3527322912    0.0259147751
 C    0.6035129313    3.0531874115   -1.2919080288
 O   -0.8419275474    3.0000136927   -1.1920294779
 C    2.4005201726    2.1833480255    0.3298194012
 N    3.5209166829    2.0362901506    0.5752383315
 H   -2.1256653838    2.2132739454    0.2541439095
 H   -0.0616150516    4.0822909525    1.0384210980
 H   -0.0062152570    2.5560131364    2.0093232431
 H    0.9384239744    4.0939426459   -1.3418427389
 H    0.9469474016    2.5133131373   -2.1796631337