22

 C   -0.0222588367    1.6086846540    0.0097611824
 C    0.0668317370    0.0881737817    0.0600275696
 O   -1.2326781186   -0.4074402400    0.3111191160
 C    0.6394381629   -0.4846825260   -1.2504020065
 C    0.7259522650   -2.0108235706   -1.2183679233
 O    0.2168081324   -2.6485315322   -0.2984454452
 N    1.3827528887   -2.6414349698   -2.2378189483
 C    1.5040091011   -4.0912282373   -2.2192734787
 C    1.9920440113   -1.9843804761   -3.3779502463
 H    0.9625524062    2.0595477000   -0.1483789677
 H   -0.6873581750    1.9257907610   -0.8004054880
 H   -0.4321182146    1.9864409914    0.9499894988
 H    0.7496942262   -0.2016641439    0.8759880497
 H   -1.1200237201   -1.3693213092    0.3550556189
 H   -0.0069445571   -0.1778685536   -2.0831893128
 H    1.6296233618   -0.0530367849   -1.4351031840
 H    1.0227072960   -4.5290211647   -3.1025950217
 H    2.5605846873   -4.3867261607   -2.2238925685
 H    1.0234101212   -4.4672950108   -1.3186382051
 H    1.7633648066   -0.9213951275   -3.3939899953
 H    3.0837032665   -2.1065358008   -3.3676731577
 H    1.6161844918   -2.4252122199   -4.3098527464