25

 C    0.8888325870   -0.0798870513   -1.1764407493
 C   -0.0671157858   -0.2080731041    0.0160657335
 C    0.5913069460   -0.7169390700    1.2941607759
 C    1.6997777525    0.1396618710    1.8900590511
 C    1.2360180566    1.5182748319    2.3515291261
 O    2.3268455733    2.1669184739    2.9711478802
 C    2.0088886782    3.4585868575    3.4254594821
 C   -0.2849419050   -1.4752042346    2.2656873607
 C    0.7350061173   -2.2149325192    1.4325999459
 H    1.3822741617   -1.0341457621   -1.3891756012
 H    0.3487523538    0.2277297097   -2.0773076394
 H    1.6708127020    0.6638741230   -0.9936570996
 H   -0.5487088536    0.7605772191    0.2035274786
 H   -0.8788332847   -0.8963126785   -0.2497697827
 H    2.1305071127   -0.3740415630    2.7569493453
 H    2.5179813098    0.2682429196    1.1717161314
 H    0.8730244331    2.1201083614    1.5010522772
 H    0.3933449017    1.4219138554    3.0580429703
 H    2.9065752068    3.8748820070    3.8896623719
 H    1.6976783187    4.1194517910    2.6000318264
 H    1.1980763794    3.4435499862    4.1718642515
 H   -0.0886846574   -1.3639533636    3.3272397663
 H   -1.3345542842   -1.6029207533    2.0216959335
 H    0.3730871409   -2.8382895799    0.6211614778
 H    1.6162196191   -2.6056508070    1.9304312665