19

 C    0.0978211458    1.2730518685   -0.4208247687
 C    0.0395392391   -0.1231774042    0.1698927437
 O   -1.0738415845   -0.8033437655   -0.4098574661
 C   -1.2319318343   -2.1378506381    0.0009492245
 C   -1.6254708721   -2.2271986848    1.4276221791
 N   -1.9267820171   -2.2927291350    2.5412586901
 C   -2.2866988546   -2.8064632601   -0.8756290771
 C   -3.4529403909   -2.0333777064   -1.3569168205
 N   -2.3782754068   -2.4386037664   -2.2874551412
 H    0.9437223490    1.8225983614    0.0017580205
 H    0.2200093564    1.2304765160   -1.5067940509
 H   -0.8195417363    1.8239588526   -0.1965725503
 H    0.9623851807   -0.6833878274   -0.0466240362
 H   -0.0786894553   -0.0830627324    1.2616067413
 H   -0.2791114643   -2.6839512361   -0.1062092104
 H   -2.3928241285   -3.8683272171   -0.6686322306
 H   -4.4046285125   -2.5337785924   -1.5055954389
 H   -3.5124260775   -0.9883656292   -1.0712242389
 H   -1.7771606165   -1.6325558731   -2.4483259394