19

 C   -0.2597990059    1.5006173131   -0.0396397686
 C    0.0385607227   -0.0001791239    0.0078415680
 C    0.8756324016   -0.3604657741    1.2418030886
 O   -1.1731337900   -0.7653390254    0.1301820536
 C    0.7562305950   -0.4359757564   -1.2510400065
 N    1.7044100339    0.2104338883   -1.8955424967
 C    2.0710497514   -0.6157923151   -2.9343583930
 C    1.3351160296   -1.7710353263   -2.9152928677
 N    0.4973269201   -1.6419983171   -1.8302567411
 H    0.6639479222    2.0655621262   -0.1801740000
 H   -0.9168748608    1.7379290758   -0.8841253480
 H   -0.7459804509    1.8170536007    0.8875338911
 H    0.3581922300   -0.0436064411    2.1518523673
 H    1.0323048874   -1.4415595652    1.2897052290
 H    1.8502983699    0.1300556861    1.1896804170
 H   -1.8185883558   -0.3823921358   -0.4743686842
 H    2.8387949526   -0.3290742466   -3.6370061912
 H    1.3189155855   -2.6394659877   -3.5522956692
 H   -0.1982573185   -2.2875991954   -1.4950687684