18

 C   -0.6437022481    1.2434963292    0.1196182506
 O    0.7748459629    1.2005414436   -0.0099374792
 C    0.0638184830   -0.0490630068    0.0093770842
 C    0.3315948336   -0.9015150741    1.2517695625
 N   -0.3037676509   -2.2168649003    1.2776508792
 C   -1.6872632644   -2.3477410969    0.8515596500
 C   -0.5721739026   -2.8509831417   -0.0224697973
 C   -0.2339596809   -2.1174883235   -1.2632124152
 C    0.0541230906   -0.8127255686   -1.2572950054
 H   -1.0194246469    1.5624660729    1.0924062226
 H   -1.1802990340    1.6436819997   -0.7401616597
 H    1.4137930733   -1.0662125912    1.3059559951
 H    0.0408641240   -0.3572598631    2.1553872201
 H   -2.2858454810   -3.0511992342    1.4248310129
 H   -2.2215393746   -1.4678301797    0.4992793429
 H   -0.3857951571   -3.9224657700   -0.0405442632
 H   -0.2191072663   -2.6865056489   -2.1879600362
 H    0.3023933594   -0.2695043764   -2.1634899940