16

 O   -0.5799523135    1.0029814729    0.8693678545
 C    0.1843536716    0.9090181220   -0.0561593869
 C    1.4595721862    1.7166157427   -0.1772349946
 N    2.5799113776    1.0356288422   -0.8956563260
 C    2.7302746083    2.1963026829   -1.7917694350
 C    1.5151854554    2.3041476561   -2.6388499342
 C    1.4631245785    2.8697960245   -1.2204275999
 C    1.1501965486    4.2214005801   -0.9281639770
 C    0.8848214185    5.3651673592   -0.6614955966
 H   -0.0061548958    0.2209538543   -0.9087788080
 H    1.7351001038    2.1027848788    0.8076903025
 H    3.3783984892    0.9190170380   -0.2823560890
 H    3.6924593791    2.6294790095   -2.0351630938
 H    1.5320133576    3.0792422297   -3.3969848918
 H    0.9646298049    1.4069997093   -2.9027014282
 H    0.6462363201    6.3729804779   -0.4277675161