25

 C    0.0246264069    1.4307535531    0.3929402248
 C    0.0384690556   -0.0902207979    0.2071214580
 C    0.5893431463   -0.5688872366   -1.1555530216
 C    2.1093160065   -0.2974664309   -1.3428143334
 C    3.0068850078   -1.2159183101   -0.4978630908
 C    2.5186247806   -0.3579425867   -2.8227661700
 C    0.2195653611   -2.0285597698   -1.3411669215
 C   -1.0109492102   -2.4420194123   -2.0283139990
 O    0.2618201635   -2.5771485171   -2.6631463923
 H    1.0311957290    1.8591879947    0.3807063202
 H   -0.5531672903    1.9191031357   -0.3997274359
 H   -0.4323038490    1.6996256853    1.3504707542
 H    0.6083284500   -0.5545270732    1.0219928317
 H   -0.9875497061   -0.4650894729    0.3117847650
 H    0.0644560036   -0.0065910331   -1.9407812624
 H    2.2855956839    0.7310243712   -1.0027533117
 H    2.9685867985   -2.2514720893   -0.8523960083
 H    4.0498044428   -0.8897003619   -0.5635516059
 H    2.7296846987   -1.2120164728    0.5613434111
 H    1.9409413215    0.3541622112   -3.4218106273
 H    3.5791749692   -0.1098864705   -2.9398768805
 H    2.3510961010   -1.3530552222   -3.2426166256
 H    0.6059562792   -2.7085938442   -0.5797076235
 H   -1.5003958628   -3.3771961553   -1.7593492013
 H   -1.6660197075   -1.6831210842   -2.4553353140