18

 O   -0.0870089642    1.4812424657   -0.0645013532
 C    0.0012762179    0.0686518464   -0.1590543894
 C   -1.3745983777   -0.5055417616    0.1741445910
 C   -1.4074784782   -2.0052194378    0.1161750309
 C   -1.5806331634   -2.8105826067   -1.1638052096
 C   -2.5375197295   -2.9999149220   -0.0286021968
 O   -1.9925740262   -3.8935517418    0.9453475951
 C   -0.9121021368   -2.9583619017    1.2065040680
 H    0.7747237582    1.8528560185   -0.2737789723
 H    0.2973060496   -0.2511533624   -1.1706202882
 H    0.7519466315   -0.3328226702    0.5416765704
 H   -1.6650948554   -0.1551599677    1.1723917491
 H   -2.1026940718   -0.0855171698   -0.5295377095
 H   -1.9575319733   -2.2354315743   -2.0048313385
 H   -0.8977312558   -3.6157509348   -1.4224804411
 H   -3.6154997210   -2.8922935448   -0.0760733472
 H    0.0763866563   -3.4177301577    1.0840599481
 H   -1.0032528803   -2.5405940774    2.2168026130