19

 C   -0.0623508831    1.5388651313   -0.1372799173
 O    1.2509299244    2.0332575516    0.1351456285
 C    2.0903966238    0.9359966111    0.4777597528
 C    1.9919015381    0.5495419276    1.9900886216
 C    1.1176414930   -0.7128727761    1.9278062924
 C    1.7386474308   -1.4745970883    0.7478700449
 C    1.4911972849   -0.3142821727   -0.2236221704
 C    0.0059220222    0.0242430566    0.0421812435
 O   -0.1805331093   -0.3491185891    1.4238788469
 H   -0.7895589900    1.9824138105    0.5520936398
 H   -0.3427554562    1.8052389858   -1.1655884756
 H    3.1048301752    1.1973877544    0.1703505928
 H    2.9748259544    0.3234238279    2.4169040714
 H    1.5373689398    1.3570239699    2.5673259214
 H    0.9747430485   -1.2502353754    2.8651924934
 H    2.7966184482   -1.7121616135    0.8874950653
 H    1.1888842903   -2.3836318324    0.4917701036
 H    1.7586055012   -0.4409706242   -1.2719348197
 H   -0.7238895562   -0.5122571849   -0.5718470452