23

 C   -0.0430326805    1.5880659645   -0.0265639248
 C    0.0199364210    0.0572582276    0.0170366483
 C    0.7608443087   -0.5747630602   -1.1928720512
 C    1.5376970746   -1.7633825176   -0.6157117990
 C    1.3391321817   -3.1712636432   -1.1492711059
 C    2.6343217115   -2.4429832722   -1.3985757027
 C    1.6166783890   -1.4991101155    0.8572118122
 C    2.4924012344   -2.2848111741    1.7829772908
 C    0.7896369674   -0.5042474010    1.1924091546
 H    0.9641830946    2.0184643900   -0.0555980869
 H   -0.5852491734    1.9366037753   -0.9124499518
 H   -0.5538366625    1.9900060558    0.8552401434
 H   -1.0149842672   -0.3177891814    0.0551881403
 H    0.0854338963   -0.8594854324   -2.0051725579
 H    1.4672959068    0.1596040194   -1.6006159389
 H    1.3445791340   -3.9984540754   -0.4470036014
 H    0.6513807544   -3.2989273768   -1.9790228424
 H    2.8323017469   -2.0769077432   -2.4012868664
 H    3.5193351261   -2.7814776181   -0.8698143462
 H    3.5524209146   -2.1747466116    1.5225571356
 H    2.3648020776   -1.9585535734    2.8183663076
 H    2.2686137104   -3.3583135466    1.7401458743
 H    0.6415090036   -0.1434300501    2.2059227483