17

 C   -0.0425009931    1.4822526102    0.0894900203
 C    1.3484552215    2.1520960389   -0.0033560770
 C    2.1819736437    1.4709977618   -1.0477126692
 C    3.2439048192    1.8450379323   -1.8354706617
 N    3.6228731065    0.7284468423   -2.5193872066
 N    2.8778434663   -0.3572372095   -2.2304384009
 C    1.9993795709    0.0926020490   -1.3339681731
 C    0.9490635258   -0.6784762515   -0.6938403576
 C    0.0033504701   -0.0295736625   -0.0005678552
 H   -0.5363897753    1.7913201637    1.0166547593
 H   -0.6801689214    1.8548646126   -0.7273835476
 H    1.2365752114    3.2235131578   -0.1979235732
 H    1.8481976148    2.0649645320    0.9723743860
 H    3.7560701331    2.7857961309   -1.9655498182
 H    4.3572635337    0.6459955856   -3.2008856533
 H    0.9474198227   -1.7578131808   -0.8022727930
 H   -0.8044096198   -0.5823802929    0.4701186908