17

 O   -0.0258779260    1.2615877108    0.6182139562
 C    0.0361298793   -0.0261839228    0.0441546521
 C   -1.3631296126   -0.5948630838   -0.1875168938
 C   -1.6971430522   -2.1372053157   -0.0558961495
 C   -2.0634209801   -2.7284930052    1.3265385816
 C   -1.7925155475   -2.0133231562    2.6582207881
 N   -1.7301584911   -0.5958636192    2.2015140277
 C   -2.2561242639   -0.6273086548    1.0373162486
 N   -2.9979583505   -1.8507642597    0.6197134898
 H   -0.4051926522    1.1277185197    1.4988839170
 H    0.5687149247    0.0714811198   -0.9073631985
 H    0.6000527906   -0.7253144810    0.6784107161
 H   -1.8297826902   -0.2418700336   -1.1115019023
 H   -1.6851311060   -2.7966628766   -0.9223992560
 H   -2.2973304870   -3.7912625353    1.3216493595
 H   -2.5959084921   -2.2348672373    3.3748245435
 H   -0.8362209533   -2.2482032191    3.1344003600