26

 C   -0.0086571590    1.6415895457    0.0367253708
 C    0.1605752664    0.1182322289   -0.0178564496
 C    0.7005567297   -0.5184454546    1.2798591147
 C   -0.2163167748   -0.1758037422    2.4671596908
 C    0.9053810431   -2.0587253718    1.1695337351
 C    1.4756037395   -2.5066666438   -0.1864841162
 C    1.8065424558   -2.5809697405    2.3120554513
 C    1.7066917027   -4.0889349307    2.5682419415
 H    0.9246888232    2.1319730788    0.3374223175
 H   -0.2851150422    2.0343645686   -0.9469943614
 H   -0.7865921334    1.9495802407    0.7409842298
 H   -0.8033232615   -0.3458609359   -0.2720795992
 H    0.8383041767   -0.1166881915   -0.8439959489
 H    1.6899892321   -0.0730669841    1.4713951977
 H   -1.2449706712   -0.4974662956    2.2616445861
 H    0.1009918481   -0.6637839378    3.3921337234
 H   -0.2388487535    0.8991641987    2.6642643090
 H   -0.0859914012   -2.5244446624    1.2836567567
 H    1.6885490455   -3.5795729688   -0.1849715294
 H    0.7847744715   -2.3183713700   -1.0117095479
 H    2.4155843680   -1.9867239711   -0.4092029868
 H    2.8477953677   -2.3154685117    2.0817370289
 H    1.5667420187   -2.0605498974    3.2448610321
 H    2.3603928840   -4.3893250435    3.3934748746
 H    0.6831134097   -4.3746926888    2.8359105220
 H    1.9957005044   -4.6794736691    1.6933513675