18

 O    0.1032809798    1.4113917449   -0.0046855004
 C    0.0269186206    0.0052060293    0.0182834135
 C   -1.4339393619   -0.5197897950    0.0348990748
 C   -1.5022886736   -2.0801655741    0.0920926429
 C   -2.6327270806   -2.4190757676    1.0951202739
 C   -2.8185026478   -1.1297245767    1.8558197373
 C   -2.1909421361   -0.1037183696    1.2889472098
 C   -2.1005085679    0.0170941451   -1.1631243236
 N   -2.5815370553    0.4734836577   -2.1113725212
 H   -0.2372393696    1.7169381112   -0.8538215995
 H    0.5657525674   -0.4525619315   -0.8251174775
 H    0.5079276240   -0.3174289583    0.9466233364
 H   -1.6509582872   -2.5245395417   -0.8931850426
 H   -0.5430379582   -2.4442025969    0.4745658803
 H   -3.5618121873   -2.7039389022    0.5840928722
 H   -2.3680070963   -3.2607697665    1.7439386469
 H   -3.4238416949   -1.0635655002    2.7530825775
 H   -2.1909447353    0.9268525020    1.6189562594