21

 C   -0.0353866042    1.5861004361    0.0077161267
 C    0.0438826537    0.0563532432    0.0176191325
 C    0.7972963563   -0.5435112960   -1.2122995775
 C    1.4331446679   -1.8254433980   -0.6668217653
 O    2.7670087997   -2.0969099334   -1.0909471813
 C    3.3819187274   -2.8320836507   -0.0311679202
 C    2.7244649042   -2.3705154959    1.3136931607
 C    1.5817340919   -1.5444333313    0.8055157617
 C    0.8352983963   -0.5138304317    1.1885564555
 H    0.9665695678    2.0293946411    0.0115760118
 H   -0.5593973166    1.9458906450   -0.8841829392
 H   -0.5739626143    1.9625079436    0.8841130040
 H   -0.9862451870   -0.3319043362    0.0357664790
 H    0.1491201239   -0.6994992226   -2.0786166539
 H    1.6065178715    0.1342689439   -1.5060820994
 H    0.7992263702   -2.7108524966   -0.8590869911
 H    3.2254036224   -3.9117211268   -0.1767138634
 H    4.4565166008   -2.6363577336   -0.0727111694
 H    2.4023243857   -3.2333547378    1.9070307994
 H    3.4111749353   -1.7874132575    1.9335068887
 H    0.7959683171   -0.0777127249    2.1817039607