17

 C   -0.3457124614    1.3679647858   -0.0064564768
 N    1.0658628155    0.9331294812    0.0378597698
 C   -0.0009691831   -0.0660351304    0.0359375226
 C   -0.1728284877   -1.1225229342    1.1421073425
 C   -0.4902789164   -2.1802583568    0.0476588603
 C   -1.9453949003   -2.1883124776   -0.4580303409
 O   -1.6709040423   -1.1646545317   -1.4467117264
 C   -0.2847829819   -1.1020750330   -1.0573937074
 H   -0.6939980214    1.8672204589    0.8939258377
 H   -0.7511154881    1.7647964144   -0.9337522367
 H    1.4800541030    1.0034066107   -0.8898117887
 H    0.7623181248   -1.3153983953    1.6738884266
 H   -0.9654797613   -0.9423530456    1.8743014010
 H    0.0386274741   -3.1307165895    0.0841280136
 H   -2.2640235774   -3.1213733694   -0.9384220799
 H   -2.7109285760   -1.8774642272    0.2643457151
 H    0.3966229801   -1.1634160503   -1.9128578924