23

 C    0.8975793312    1.2568166753   -0.1103751893
 C    0.2232184134   -0.1117362849    0.0102571863
 C    0.7127709634   -0.9097861210    1.2174244737
 C    0.0588595704   -2.2730287083    1.3732453239
 O   -0.8029954880   -2.6679938779    0.6204227163
 C    0.5644683362   -3.1579699970    2.5135983323
 C    1.4463978201   -4.2689208160    1.9660382987
 C    2.9317576817   -4.0634869416    1.7929769775
 C    2.4140216630   -4.9929261841    2.8641743878
 H    1.9842959553    1.1596138451   -0.2144393561
 H    0.5287984974    1.8030942725   -0.9839236728
 H    0.7064321365    1.8765990583    0.7731716186
 H   -0.8633370692    0.0061121615    0.0807221529
 H    0.3960635224   -0.6996378720   -0.8977206980
 H    1.8011764565   -1.0669896626    1.1773910940
 H    0.5467398631   -0.3535485734    2.1526705288
 H    1.1192607284   -2.5684950534    3.2520523447
 H   -0.3112732179   -3.5919906761    3.0092005076
 H    0.9544121932   -4.8670236479    1.2049138438
 H    3.4156409710   -4.4935497057    0.9232094532
 H    3.3580582681   -3.1179225426    2.1134016198
 H    2.4904990677   -4.6666181592    3.8963319326
 H    2.5410849261   -6.0611129691    2.7271521637