17

 C   -0.0474105000    1.5304460770    0.0110315918
 C    1.3212857225    0.8524628578   -0.0063092061
 C    0.0649659908    0.0516810923    0.0018263956
 C   -0.5340325870   -1.0285743429    0.9151025417
 O   -1.7179137953   -1.0637523333    0.0134680070
 C   -0.5522092369   -1.0185785680   -0.9111160716
 C    0.1161297875   -2.0744476683   -0.0103206741
 C    1.2943105290   -2.9257017087   -0.0267075371
 O   -0.0597888370   -3.4528018179   -0.0161137922
 H   -0.3595858383    2.0194664052    0.9278068450
 H   -0.3777390439    2.0294325566   -0.8939360419
 H    1.9001132883    0.9013345349   -0.9230406973
 H    1.9182676250    0.8913773081    0.8991877193
 H   -0.7071307089   -1.0331533657    1.9902586508
 H   -0.7466741514   -1.0114063098   -1.9825993452
 H    1.8425382068   -3.0861302384   -0.9533045951
 H    1.8608555385   -3.0962020589    0.8869825593