19

 C   -0.0853201004    1.5845510000    0.0449646128
 C    1.4394334611    1.3746913478   -0.0826408215
 C    1.8443242085    0.7998391915    1.2908366916
 C    0.7193381292   -0.2681956939    1.3989335849
 C    1.0563579351   -1.7479898507    1.6595305190
 O    0.0760267379   -1.8275094155    2.7171266353
 C   -0.1695548992   -0.4095424862    2.6511270265
 C    0.0237286595    0.0448601910    0.0599174676
 O    1.1652044843    0.1543754592   -0.8470210260
 H   -0.4839656114    2.1062808764    0.9195265991
 H   -0.5297365629    1.9517052474   -0.8802158396
 H    2.1053727786    2.0756562699   -0.5847523203
 H    2.8411134408    0.3527292546    1.2623016799
 H    1.8157496162    1.5414951630    2.0949305474
 H    0.8466226705   -2.4471094750    0.8406793463
 H    2.0737895565   -1.9296542594    2.0319626333
 H    0.2004409176    0.1149137458    3.5433606514
 H   -1.2356975547   -0.1786609206    2.5225599462
 H   -0.7646171271   -0.6262734451   -0.2828159639