17

 O   -0.0056130724   -0.0660146051   -0.1534036074
 C   -0.0328559212    1.1455780643   -0.0562633268
 C   -1.3438327831    1.9317986506    0.0333492509
 C   -1.5270156326    2.7395599589    1.3017248420
 C   -0.6377339471    3.5037481034    1.9378042957
 C    0.7846636512    3.8048218798    1.5471184952
 C    1.1820146956    3.3368754265    0.1435772045
 N    1.1084947832    1.8975476154   -0.0377919470
 H   -1.4320024838    2.5765595059   -0.8526612994
 H   -2.1353641472    1.1856125275   -0.0469013570
 H   -2.5171153237    2.6570361797    1.7431850651
 H   -0.9614353634    3.9828097156    2.8600386245
 H    0.9467994128    4.8902469169    1.6089002139
 H    1.4700317586    3.3625286117    2.2848906679
 H    0.5521348498    3.8388964711   -0.6012789747
 H    2.2108917439    3.6404318051   -0.0672710329
 H    1.9621251293    1.3602516828   -0.0507760647