19

 C   -0.0369391787    1.5652989131    0.0236172353
 C   -0.0542883018    0.0342109873   -0.0265904379
 C    0.7251807076   -0.5414372454   -1.2119911692
 C    2.2905405919   -0.3863074842   -1.1403627268
 C    2.6749764542   -1.8731732739   -1.2366385037
 O    1.7595109621   -2.3761427538   -2.2671260805
 C    0.6746416463   -2.0814808968   -1.3257049163
 C    1.6882156596   -2.5468082394   -0.2546971872
 O    1.7208768270   -3.2491957317    0.7053800073
 H    0.9830910949    1.9527915578    0.1159718333
 H   -0.4724208768    1.9939843255   -0.8856174453
 H   -0.6115679824    1.9375140746    0.8768347156
 H    0.3513131711   -0.3718572260    0.9094465653
 H   -1.0940674212   -0.3137158416   -0.0818076172
 H    0.3460593322   -0.1120036401   -2.1449476168
 H    2.6990603266    0.1840911815   -1.9767974540
 H    2.6320020373    0.0705755159   -0.2062245784
 H    3.7129566501   -2.1720986262   -1.3667245122
 H   -0.2660285999   -2.5826123064   -1.5460256714