20

 C   -0.3194975073    1.5724232457    0.0623248557
 C   -0.0227868503    0.0825621411    0.0444486117
 C   -1.1496480856   -0.7261208398   -0.5699648242
 O    1.2367297456   -0.1619428483   -0.7231608851
 C    1.8290831601   -0.7858044733    0.3245231275
 O    2.8945926472   -1.3201840769    0.3676452423
 C    0.6747280093   -0.5616912493    1.3098570179
 C    1.0335515832    0.3792789833    2.4630840259
 N    0.1132012212   -1.8291413074    1.7612557552
 H    0.5501811936    2.1589532118    0.3635378270
 H   -0.6189225300    1.9050037764   -0.9361231394
 H   -1.1428739439    1.7907357240    0.7500962926
 H   -1.3295337837   -0.3900654376   -1.5956646733
 H   -0.9151818221   -1.7902217878   -0.5701762027
 H   -2.0712163997   -0.5856891155    0.0042178507
 H    1.5080682445    1.3064616636    2.1340324565
 H    0.1349393902    0.6417049105    3.0335636285
 H    1.7299152352   -0.1309568485    3.1349982408
 H    0.8699815922   -2.4784509138    1.9554383318
 H   -0.3971161797   -1.7041957383    2.6303439807