17

 C   -0.0900339168    1.5079324978    0.0022953375
 C    0.0257411889    0.0071444705    0.0021369861
 N   -0.5171427087   -0.8027498084    1.0989799324
 C    0.9587382517   -0.7580764453    0.8813870575
 C    1.5416491966   -1.9012533057    0.0750277751
 O    2.5062416314   -2.5558704189    0.3827928963
 C    0.8758480933   -1.9069687852   -1.2891019199
 N   -0.6028964668   -2.0758057380   -1.2812535032
 C   -0.0315401526   -0.7270274180   -1.3473979389
 H    0.6229564334    1.9599883688   -0.6958844902
 H   -1.0963761716    1.8235735899   -0.2964171163
 H    0.1115245373    1.9163573110    0.9976304147
 H   -0.7202372680   -0.1899851421    1.8883983185
 H    1.5930682977   -0.3028309054    1.6346549917
 H    1.4535611114   -2.2804407472   -2.1272391748
 H   -0.8787633449   -2.3640213541   -2.2187723966
 H   -0.1424584322   -0.1350665897   -2.2498862898