20

 C    0.0016318356    1.5090519829    0.1198337067
 C   -0.0157083357   -0.0059839290   -0.0416570191
 C    0.6156234452   -0.4554808232   -1.3681644314
 C    0.3557132127   -1.9022845381   -1.7088579583
 C    0.6789445070   -2.9168869504   -0.9115208672
 C    1.3948281404   -2.7645132068    0.4134870073
 C    0.7319482792   -1.8482515393    1.4182212041
 N    0.3785697474   -2.2890397004    2.5515390750
 O    0.6704567173   -0.5086698486    1.1249327316
 H    1.0269973968    1.8885252448    0.0675524542
 H   -0.5866048711    1.9846335978   -0.6701074423
 H   -0.4186943078    1.7911222438    1.0880475448
 H   -1.0521168819   -0.3696356771   -0.0043853180
 H    0.2182560438    0.1868888256   -2.1604411543
 H    1.6949621501   -0.2517467331   -1.3153730074
 H   -0.1351708403   -2.1091113872   -2.6560104271
 H    0.4487823499   -3.9330763350   -1.2183562134
 H    1.5045505884   -3.7321390804    0.9027744306
 H    2.4063767499   -2.3704922516    0.2332638607
 H   -0.0132846768   -1.5226581148    3.1045730735