12

 O    0.0156369886    1.3884115651   -0.0024945664
 C   -0.0363569838    0.0242989498    0.0216196451
 C   -0.4748786365   -0.7597048571    1.1865593210
 O   -1.4676020535    0.0111325019    1.9026044916
 C   -2.3803469825   -0.1240916143    0.8435579551
 O   -3.5101963225    0.2151681910    0.8206917630
 C   -1.3851552482   -0.8151410403   -0.0529925008
 C   -1.6202272630   -1.8121941179   -1.0334250765
 N   -1.7938045030   -2.6243191013   -1.8393653054
 H   -0.4167547259    1.7278598799    0.7935082199
 H    0.7192038313   -0.4257851378   -0.6156202051
 H    0.0193000789   -1.5592278190    1.7218932385