23

 C   -0.1094540639    1.5506100788   -0.0447870626
 C    0.0565965259    0.0226523170    0.0039333579
 C    0.7324396261   -0.4932138111   -1.2843702872
 O    1.9453192413    0.2054223509   -1.5629490730
 C    0.9681554574   -2.0041686394   -1.2040787641
 C    1.9241847886   -2.3381298359   -0.0501204653
 C    1.6275112564   -1.5289294895    1.1853325485
 C    0.7991499886   -0.4783424540    1.2418307791
 C    0.5318401158    0.2217301552    2.5501439270
 H    0.8604690504    2.0545939495   -0.0619286368
 H   -0.6425233101    1.8384590978   -0.9566164654
 H   -0.6818174412    1.9253652060    0.8074690702
 H   -0.9557658021   -0.4108911742    0.0309653608
 H    0.0822274066   -0.2645142052   -2.1363596263
 H    2.4961345798    0.1473755882   -0.7738131508
 H    0.0042105074   -2.5025583178   -1.0439546854
 H    1.3707862884   -2.3671812570   -2.1545880511
 H    1.8708284965   -3.4074372681    0.1889099522
 H    2.9654239261   -2.1706337385   -0.3637646089
 H    2.1299283042   -1.8455454025    2.0981519406
 H    1.0478135251   -0.2761993169    3.3753837849
 H    0.8548523933    1.2688096329    2.5317884584
 H   -0.5414944405    0.2328021939    2.7814969672