15

 O   -0.5526464540    0.7322861441   -0.6338972008
 C    0.2339508104    0.9348889494    0.2620370944
 C    1.3981808852    1.7751485100    0.1455937510
 C    2.3835313996    2.4725201874    0.0839410512
 C    3.5351784446    3.3073947566   -0.0403828923
 C    4.7937469875    3.1187822204   -0.9415920570
 C    5.0274071429    4.3065146490    0.0194013253
 C    3.6127928262    4.8439182880   -0.2950464355
 O    4.4487383166    3.4975006437    1.1209750085
 H    0.1099037780    0.4750582942    1.2630072079
 H    5.3726341133    2.2213927290   -0.7248671472
 H    4.6846131041    3.3223303928   -2.0088600150
 H    5.9432783513    4.8536846904    0.2323046529
 H    3.4000791332    5.1987765397   -1.3056075034
 H    3.1600385910    5.4535262654    0.4864769600