21

 O   -0.2977309745    1.4255370306    0.0881600626
 C   -0.0448305113    0.0253528836    0.0920743190
 C    0.5044079776   -0.5322740050    1.4390916237
 C   -0.6909824837   -1.4092111566    1.8219062388
 C   -1.9262561066   -0.4449191448    1.4800970750
 C   -1.4088070632   -0.7068597253    0.0184668962
 C   -1.7131353239   -1.2744433423   -1.4018927330
 C   -0.7276010734   -2.4685574983   -1.0094817828
 C   -1.1068691698   -2.1140697337    0.4739775845
 H    0.5495187345    1.8790144675    0.1333784687
 H    0.6097434754   -0.2262738472   -0.7511753346
 H    1.4285956106   -1.1059971084    1.3175831667
 H    0.6857211700    0.2732027975    2.1574129663
 H   -0.6458279450   -1.9472642800    2.7709558468
 H   -2.8880706469   -0.9157358236    1.6883912779
 H   -1.8920676950    0.5724777249    1.8751167369
 H   -2.7364568616   -1.6408274364   -1.5150101732
 H   -1.4537710259   -0.6565603904   -2.2659859722
 H   -0.9960332046   -3.4699675969   -1.3542319746
 H    0.3039758983   -2.2632338513   -1.3002756889
 H   -2.0532616508   -2.6315929938    0.6652147261