15

 C   -0.0954760640    1.5598310899    0.0051983805
 C   -0.0139995933    0.0434213219   -0.0041048470
 C    1.2443635943   -0.6432135958   -0.6295101166
 N    2.0193060000   -0.1581115170    0.5957957303
 C    0.7105080052   -0.6730849431    1.1904296394
 C    0.4077690040   -0.6159854801    2.5904777113
 N    0.1422657099   -0.5966405764    3.7158454420
 C    0.9056198850   -1.8878081594    0.2112754575
 O    0.9566688267   -3.0718412711    0.2106313089
 H    0.8586387594    2.0105138224    0.2794776796
 H   -0.3852510877    1.9228469734   -0.9858697604
 H   -0.8582518413    1.8912920702    0.7162923446
 H   -0.9633156898   -0.4215638356   -0.2797403641
 H    1.6455146107   -0.5489037273   -1.6351446018
 H    2.7965533408   -0.7848094519    0.8228891259