19

 C   -0.0553608307    1.5863301916   -0.1219230191
 C   -0.0605556357    0.0546156298   -0.0559938467
 C   -1.4427710022   -0.5115478991    0.0404518587
 O   -2.4047344235   -0.2223075607   -1.0324764256
 C   -3.1407501973   -1.0554959249   -0.0947718495
 C   -1.9387690143   -1.9895911288    0.2336330475
 C   -2.1326104380   -1.7958346250    1.7406789734
 O   -0.9371376580   -1.9033953584    2.4837544729
 C   -2.5248163380   -0.4113542691    1.1808700565
 H    0.9630915180    1.9668580568   -0.2413988532
 H   -0.6556998137    1.9386939751   -0.9650395768
 H   -0.4725053453    2.0224502490    0.7917119821
 H    0.4178941732   -0.3614885895   -0.9513432352
 H    0.5034876415   -0.3062867586    0.8100904372
 H   -4.1761273899   -1.3076960481   -0.3177273493
 H   -1.6140397565   -2.8688533954   -0.3217069104
 H   -2.9452880429   -2.3758077319    2.1987125759
 H   -1.1181203150   -1.6312205398    3.3888403336
 H   -2.8665385119    0.4904753871    1.6894609581