15

 C    0.1877881149    1.6304612221    0.2240024414
 C   -0.0871406359    0.1455815502   -0.0671741019
 C    0.5708032520   -0.3319417884   -1.3176973629
 C    0.0432479441   -0.7793010104   -2.4998626118
 O    1.0591452829   -1.0856759118   -3.3284617274
 N    2.2504178930   -0.8113342435   -2.6160958146
 N    1.9380083317   -0.3826739804   -1.4735735721
 C   -1.2811483438   -0.9518510450   -2.9349215677
 C   -2.4225921910   -1.0942171095   -3.2884895018
 H    1.2622514914    1.8154749930    0.3045792198
 H   -0.2066693431    2.2665898584   -0.5739614398
 H   -0.2842025333    1.9285388554    1.1643951316
 H    0.2697962775   -0.4621689672    0.7726368941
 H   -1.1635720357   -0.0324473496   -0.1529000880
 H   -3.4287333348   -1.2215248733   -3.6056804389