17

 C   -0.0905019348    1.5799346625    0.0230220282
 C    0.0175378150    0.0464943227   -0.0088696174
 C    0.8337227359   -0.5122218063   -1.1493292909
 C    1.8419744871   -1.2427880285   -0.6797543479
 N    1.8330063665   -1.2761057066    0.7366253964
 C    2.7693931176   -1.9575563278    1.4805844958
 O    3.6805387334   -2.5929804747    1.0029499843
 C    0.7390866502   -0.5043077075    1.2234093403
 N    0.3776928882   -0.2664931033    2.4128503828
 H    0.9015982791    2.0406599357    0.0046361643
 H   -0.6531240997    1.9433572596   -0.8418294773
 H   -0.6015729681    1.8945002137    0.9359068262
 H   -0.9993570629   -0.3681868961   -0.0165353675
 H    0.6226406603   -0.3327248436   -2.1932922235
 H    2.6237123529   -1.7894103062   -1.1834561952
 H    2.5994652817   -1.8636919986    2.5666317095
 H    0.9693958277   -0.7021673050    3.1187269817