16

 O    0.0075314370    1.4312968968    0.0355904865
 C   -0.0080406737    0.0367894475   -0.0564508261
 C   -1.4145019510   -0.6000334025    0.0033876577
 C   -2.4086515613    0.0626621072   -0.9739311665
 N   -1.7326353930   -0.6286846337   -2.1430286787
 C   -0.9735795751   -1.5141689901   -1.1825157815
 C    0.3134771427   -0.6718873385   -1.4363220141
 C   -0.5073307887    0.0617387274   -2.4866011976
 O   -0.3148508664    0.9424761743   -3.2690057853
 H    0.8840088651    1.7575044265   -0.1947729635
 H    0.6269485895   -0.4383850646    0.7048377307
 H   -1.7670462863   -0.9312818634    0.9790970045
 H   -3.4309715732   -0.3067158641   -0.8621319783
 H   -2.4102564556    1.1528001145   -1.0410107222
 H   -1.0691117680   -2.5931767584   -1.2665659334
 H    1.3338788081   -1.0088967189   -1.6140376923