18

 C   -0.0996696740    1.3147344982    0.0174676851
 O   -0.0253178785   -0.1118123782    0.1038382830
 C    0.6438078716   -0.5661655869    1.1532535364
 N    1.2321197713    0.0882617446    2.0988676617
 C    1.7616741506   -0.9255907944    2.9153836736
 C    2.5338400713   -0.5882375814    4.1452626206
 C    1.4475533438   -2.1341412906    2.3920059616
 C    1.6952393975   -3.5506824932    2.7535846396
 O    0.7112893690   -1.9042593577    1.2312578607
 H    0.9019619321    1.7479070039   -0.0528916543
 H   -0.6729946364    1.5253153260   -0.8851993113
 H   -0.6015467214    1.7270792630    0.8972076158
 H    1.9232532358   -0.0025661457    4.8412616887
 H    2.8736213022   -1.4884911206    4.6633705494
 H    3.4127574257    0.0182019677    3.9003956095
 H    0.7591956425   -4.0984631727    2.9144603452
 H    2.2529634012   -4.0781250345    1.9707238459
 H    2.2785630156   -3.6009477676    3.6757891787