22

 C   -0.3187387501    1.7158769652    0.0505106753
 C   -0.1251133377    0.2544689943    0.4468327399
 N   -1.3166573962   -0.5198182093    0.0975347921
 C   -1.3552522756   -1.1217423877   -1.2264883604
 C   -1.2248381984   -1.9760316702   -0.0022497845
 C    0.0526750915   -2.7674571730    0.3391475274
 C   -0.3147507965   -4.1201726830    0.9702794048
 C    0.8874206228   -2.9981048406   -0.9063826781
 O    1.9254614283   -2.4416869424   -1.1621704349
 H    0.5498203095    2.3120097575    0.3461004627
 H   -0.4421834393    1.8134946821   -1.0330011789
 H   -1.2092251044    2.1304853039    0.5310081289
 H    0.7903989180   -0.1405689806   -0.0203969326
 H    0.0096483453    0.1800038407    1.5330271360
 H   -2.3016310458   -1.0646823028   -1.7584652152
 H   -0.4740748714   -1.0108410818   -1.8574183751
 H   -2.1295318029   -2.4719966129    0.3465233433
 H    0.6701875276   -2.1946591075    1.0377775189
 H   -0.8926103406   -4.7366126930    0.2724430537
 H    0.5790851658   -4.6814624391    1.2580538100
 H   -0.9250520488   -3.9690574963    1.8653964568
 H    0.4497368690   -3.7454470434   -1.6099485101