20

 C    0.2224186338    1.4509975601   -0.1912059380
 C   -0.1387421752    0.0045491287    0.1663321321
 C    0.6310667896   -0.5140966463    1.3618541858
 C    0.5342729677    0.1782986369    2.6831566102
 C    1.6517326120   -0.0480197967    3.3737638858
 C    2.4897033407   -1.0225560807    2.5865362118
 C    1.7804898157   -2.4185517236    2.6195827486
 C    1.0651231501   -1.9625307873    1.3606152457
 N    2.0574291196   -0.8498147210    1.1231444520
 H    1.2926022307    1.5327300224   -0.4004220513
 H   -0.3299247684    1.7855168038   -1.0744195906
 H   -0.0109886123    2.1372391525    0.6293947530
 H   -1.2135323386   -0.0792750993    0.3743201760
 H    0.0633382737   -0.6458580434   -0.6918952122
 H   -0.3329366253    0.7442755152    2.9988953176
 H    1.8703574516    0.2579109045    4.3891760333
 H    3.5675619102   -0.9977896619    2.7411443173
 H    2.4823817126   -3.2203440596    2.3790632817
 H    1.2011779111   -2.6862471894    3.5082246126
 H    0.7463642204   -2.6234141249    0.5585452788