15

 O    0.0255385839    0.0820811826   -0.4401748341
 C   -0.0230878076    1.2181952116   -0.0541960021
 C   -1.2868510219    1.9994709521    0.3419428659
 C   -0.7708622670    3.3128584112    0.8881703002
 O    0.1071969341    3.1415598733    2.0068622011
 C    0.6933429066    3.4046241383    0.7236457264
 C    1.1839725379    2.1466412212    0.0818367116
 C    2.5524802960    1.6199951076    0.1352415946
 O    2.0517800866    2.2325747667   -1.0516221732
 H   -1.9083071477    2.1443461782   -0.5500408853
 H   -1.8778662999    1.4349086869    1.0684131214
 H   -1.4050623151    4.1939889672    0.9203277437
 H    1.2378348320    4.3370367632    0.6099210957
 H    3.3150675787    2.1824877236    0.6711887937
 H    2.6889931834    0.5421945163    0.0759935505