19

 C    0.0675735128    1.5735140112    0.0195852805
 C    1.3462635972    0.8125022266    0.0320510883
 N    0.0648557815    0.1134805375   -0.0358156373
 C   -0.3450396985   -0.5561685989    1.1723900370
 C   -1.6525732917   -1.2483303364    1.4298267394
 C   -2.0945045189   -2.2535763604    0.3502150166
 C   -1.2042778765   -2.3921409832   -0.8217233140
 N   -0.8220246474   -3.0439113330    0.4573690623
 C   -0.3360717202   -2.0308593907    1.4695367121
 H   -0.2411296835    2.0439955231    0.9517047855
 H   -0.2693409971    2.0803748751   -0.8797456660
 H    1.9653286867    0.7506188177   -0.8579875686
 H    1.8943379311    0.7739266454    0.9720525524
 H   -0.0394546205   -0.0281960585    2.0868428784
 H   -2.3055837660   -0.9563115195    2.2426405356
 H   -3.0527232913   -2.7584217955    0.4241890601
 H   -1.5000872379   -3.1362282656   -1.5573428564
 H   -0.6420810888   -1.5477115931   -1.1923854751
 H    0.2204820492   -2.4365136318    2.3063038292