19

 O   -0.0430634456    0.0280883550   -0.1338407594
 C   -0.0527622912    1.2285360407   -0.0698720461
 C   -1.2792979776    2.1125382483    0.1997019294
 C   -0.7104709079    3.5024315766    0.1675567773
 C    0.6084590419    3.5377464395   -0.0712852098
 C    1.1693039449    2.1450232511   -0.2454064679
 C    1.4241225759    4.7632413030   -0.1569193675
 C    2.8564187382    4.8115082127    0.3477190305
 C    2.5876040956    4.8873958483   -1.1261007347
 H   -2.0483497439    1.9245275403   -0.5617146073
 H   -1.7337757448    1.8356919239    1.1606202758
 H   -1.3201738049    4.3856955203    0.3243377867
 H    1.9360515812    1.8794703119    0.4937736543
 H    1.6218455148    1.9683856043   -1.2296830534
 H    0.8515782181    5.6737256033   -0.0055819342
 H    3.1711612604    5.7094704359    0.8672778402
 H    3.2893401706    3.8980308690    0.7393869298
 H    2.8381623944    4.0252767008   -1.7337500678
 H    2.7155219199    5.8380497952   -1.6312995558