16

 C    0.0469905977    1.5174260289   -0.1207120793
 C   -0.0066428219    0.0011459136    0.0909203719
 C   -1.4275360762   -0.5493535327    0.0998846055
 C   -2.1736027722   -0.6346022415   -1.2534449564
 O   -2.3243353476   -2.0635615669   -1.1363745459
 C   -1.5988036622   -2.0853567299    0.1094426071
 H    1.0785334686    1.8819764921   -0.1297246486
 H   -0.4132262314    1.8022806144   -1.0733668870
 H   -0.4877632829    2.0467721376    0.6757109940
 H    0.5682428221   -0.5040613201   -0.6966866612
 H    0.4829742101   -0.2559566006    1.0394459460
 H   -2.0170931523   -0.0515261580    0.8758643685
 H   -3.1425700134   -0.1238808919   -1.3123836805
 H   -1.5742935740   -0.3561516403   -2.1320759546
 H   -0.6626536565   -2.6555992836    0.0300788109
 H   -2.1988505780   -2.5044887813    0.9266638296