21

 C   -0.1992735958    1.5599653440   -0.0292961648
 C   -0.0606645064    0.0443814397   -0.0390577729
 O   -1.3146900892   -0.5946264564   -0.2183608230
 C    1.1224603206   -0.4897281458   -0.9117622496
 C    1.9970149251   -0.5945475739    0.3789193979
 C    2.8877981740   -1.8140926951    0.5567939519
 O    2.7242354065    0.6030034764    0.6218582609
 C    0.6776258682   -0.5388188523    1.1964447583
 O    0.7319432438    0.1717178155    2.4025543252
 H    0.7633777278    2.0342531343    0.1660782189
 H   -0.5726110499    1.9130979658   -0.9995578745
 H   -0.9046259805    1.8709431866    0.7469837919
 H   -1.7752470564   -0.1551869213   -0.9411678770
 H    0.8825864702   -1.4654669165   -1.3411753721
 H    1.5087863723    0.1739298430   -1.6900599065
 H    3.7113554280   -1.8036739858   -0.1684643574
 H    3.3199473891   -1.8205172748    1.5621812447
 H    2.3279520055   -2.7425472489    0.4081245398
 H    3.4432707760    0.6346139670   -0.0185632900
 H    0.3120923393   -1.5656393374    1.3411003226
 H   -0.1068751984    0.0471046561    2.8574996457