27

 C    0.2188794925    1.6392811343    0.0025042092
 C    0.0307232059    0.1193776362   -0.0210615602
 C    0.5591951874   -0.5589405711    1.2482523508
 C    0.6172171115   -2.1036075379    1.2094043584
 C   -0.7649759691   -2.7181988914    0.9703932926
 O    1.4119633143   -2.5317807534    0.0917120763
 C    1.2505237302   -2.6104645039    2.5257843581
 C    1.4619776115   -4.1258752019    2.6224116957
 C    2.2969898840   -4.5265104166    3.8423782726
 H    1.2783747975    1.9069798244    0.0866150033
 H   -0.1693579008    2.1028706133   -0.9098704358
 H   -0.3021149374    2.0931765680    0.8533189965
 H   -1.0337635562   -0.1073762158   -0.1508159732
 H    0.5445705199   -0.3093663471   -0.8883891499
 H    1.5791470098   -0.1935420966    1.4439049414
 H   -0.0381939954   -0.2459763385    2.1149011175
 H   -1.1828662531   -2.3689458333    0.0238407608
 H   -0.6984963913   -3.8070632568    0.9201085268
 H   -1.4540621623   -2.4479237589    1.7765046218
 H    2.2953184708   -2.1634067927    0.2049394660
 H    2.2252951034   -2.1112877793    2.6386438018
 H    0.6414170855   -2.2640617746    3.3713017476
 H    0.4932367405   -4.6365633001    2.6685959425
 H    1.9486500497   -4.4719313489    1.7039821858
 H    2.4312625237   -5.6115704079    3.8942040698
 H    3.2926178619   -4.0694343759    3.8095777988
 H    1.8200422954   -4.2058750037    4.7756802454