17

 C   -0.2065640389    1.3107721533   -0.0591949696
 O    0.1514248666   -0.0434953068    0.1204250238
 C    0.6980619203   -0.6312692989   -1.0273741496
 C    1.1848327436   -2.0528414827   -0.9037766574
 C    0.0416235853   -2.9711475848   -1.1805306167
 C   -1.2045210415   -2.1436892016   -1.4418781984
 C   -0.2226039987   -1.1889655585   -2.1432401924
 N    0.7933401049   -2.3622994107   -2.3325112089
 H    0.6590514142    1.9215358802   -0.3588501077
 H   -0.9936994443    1.4339237996   -0.8179360544
 H   -0.5827751214    1.6771716065    0.8985418838
 H    1.4799081400    0.0067511090   -1.4653328511
 H    2.1243394969   -2.4004213647   -0.4908414329
 H    0.1114744654   -4.0322628354   -0.9693785643
 H   -1.8598305926   -2.6392595203   -2.1620468408
 H   -1.7800468308   -1.7607597236   -0.5949460752
 H   -0.5117168289   -0.5897948906   -3.0040668581