25

 C   -0.0189011118    1.6400614985    0.0630067943
 C    0.0351384627    0.1219348016   -0.1364932646
 C   -1.3221721743   -0.5426751184    0.1276375036
 C   -1.3836096671   -2.0676115907    0.0609897352
 C   -0.3408079323   -2.8520118867   -0.7083528701
 C   -0.3423035131   -2.8787996513    0.8013292282
 C   -2.7683423446   -2.6725135130    0.0455983451
 C   -3.9787314620   -2.0194167711    0.6675209596
 C   -3.8889881489   -2.1701349882   -0.8326959915
 H    0.9511115392    2.1031284657   -0.1428939660
 H   -0.7563246801    2.1013942860   -0.6034438658
 H   -0.2992169046    1.8954409233    1.0909529252
 H    0.3595931689   -0.0935672772   -1.1611193367
 H    0.8018723335   -0.2982252977    0.5257091270
 H   -1.6733851831   -0.2277845835    1.1199895081
 H   -2.0400180031   -0.1232602049   -0.5901760977
 H   -0.6706873650   -3.7395713423   -1.2383040074
 H    0.4626556867   -2.3198634896   -1.2035576525
 H    0.4555283528   -2.3564095811    1.3181770535
 H   -0.6675969569   -3.7848217831    1.3022494448
 H   -2.7404034835   -3.7548720091    0.1496316840
 H   -4.6765015207   -2.6456455292    1.2128077534
 H   -3.8752025441   -1.0202357696    1.0749099591
 H   -3.7278867880   -1.2727231002   -1.4199736897
 H   -4.5217433407   -2.9039925780   -1.3200506594