20

 C    0.5794583194    0.4865146273   -0.8087731378
 C   -0.0934040757    0.1264901001    0.4983971666
 O    0.2506949528    0.6125854085    1.5542135741
 C   -1.2136890050   -0.9073093128    0.4808920164
 C   -2.1186920907   -1.1862805828   -0.7758499205
 C   -1.6951878594   -2.6651042210   -0.7206013045
 C   -2.5325989456   -3.8545904642   -1.0709340144
 N   -0.2253043069   -2.6497552951   -0.9217137120
 C   -0.7891666797   -2.3911367658    0.4299942667
 H    1.4572343803    1.1030589008   -0.6098087246
 H    0.8441383134   -0.4237379182   -1.3552453407
 H   -0.1167006399    1.0483673667   -1.4434191605
 H   -1.8209395843   -0.7305934253    1.3709542884
 H   -3.1758734354   -1.0264672405   -0.5530758869
 H   -1.8602891815   -0.6693979417   -1.7022663166
 H   -2.6749083812   -3.9331326635   -2.1553411468
 H   -2.0637963740   -4.7829115798   -0.7262643865
 H   -3.5234769758   -3.7874684813   -0.6093634673
 H    0.0901105235   -3.6198297723   -0.9245771276
 H   -0.5035366342   -3.0092686291    1.2727780544