23

 C    0.4464393015    1.4358900660   -0.3027467175
 C    0.0421341940   -0.0104131406   -0.0438384377
 O   -1.3736361204   -0.1141358305    0.0416060486
 C    0.7162087570   -1.0629083417   -0.9872591282
 C    1.5020781956   -1.6397469776    0.2206176818
 C    2.9603357147   -1.1891025873    0.4277081290
 C    3.0079396168   -0.7617723945    1.9074885347
 C    1.6603493185   -0.0371648300    2.1427300779
 C    0.6709157016   -0.7428300911    1.1905845666
 H    1.5317784239    1.5632301404   -0.3522218537
 H    0.0399725737    1.7663310120   -1.2676290026
 H    0.0529121297    2.0958727808    0.4767130584
 H   -1.7486723959    0.2676217188   -0.7599722683
 H   -0.0279188866   -1.7563210055   -1.3861404853
 H    1.3157527544   -0.6684933395   -1.8140400129
 H    1.4021519352   -2.7181763525    0.3647983309
 H    3.6883579008   -1.9685508362    0.1837363893
 H    3.1902047289   -0.3285305984   -0.2136267251
 H    3.0641642618   -1.6535423333    2.5439080085
 H    3.8759520312   -0.1404898126    2.1490828792
 H    1.3423508279   -0.0894139854    3.1876502065
 H    1.7574238714    1.0257342862    1.9002731132
 H   -0.1231363658   -1.2710374175    1.7202797466