14

 N    0.0301384722    1.4917297122   -0.1162522673
 C   -0.0136577462    0.1055015369   -0.0550654212
 C   -1.1053195712   -0.7674332305   -0.0137443632
 N   -0.5801787428   -2.0329079174   -0.0353589819
 N    0.7573919939   -2.0411298450   -0.0913165624
 C    1.1018661314   -0.7612047685   -0.1040667928
 O    2.3848132911   -0.3358983295   -0.1531003653
 C   -2.5325674306   -0.5536449276    0.0354860781
 O   -3.3484409420   -1.4565871740    0.0687696945
 H    0.9376598649    1.8655240820    0.1255361086
 H   -0.7050373124    1.9692053839    0.3850502118
 H   -1.1089298011   -2.8875598072   -0.0089586184
 H    2.9521222153   -1.1163826262   -0.1624556659
 H   -2.8499843424    0.5110825810    0.0379930055