16

 C   -0.0202908770    1.4478700069    0.0570717537
 N   -0.0141135739   -0.0085377212    0.0591901845
 C   -0.1008617569   -0.7962780805   -1.0400572132
 N   -0.0766268466   -2.0857733282   -0.7556124652
 C    0.0344378343   -2.1347071323    0.6013291985
 C    0.0801771527   -0.8647453569    1.1461705343
 C    0.1804399100   -0.3778533595    2.5305633196
 N    0.4008255579   -1.3502825376    3.4732465516
 O    0.0470862824    0.7988102895    2.8346336887
 H    0.8910648786    1.8366876589    0.5133371458
 H   -0.0843450526    1.7815284254   -0.9806879067
 H   -0.8683545386    1.8283181420    0.6263168822
 H   -0.1797804412   -0.3734576714   -2.0313089196
 H    0.0544490936   -3.0801498348    1.1246245337
 H    0.7871520826   -2.2410973128    3.2106490341
 H    0.5973826447   -1.0189911876    4.4043403979