15

 C    0.0437642815   -3.7884292677   -0.0360791352
 C    0.0359404007   -2.5800155073   -0.0263089638
 C    0.0244535444   -1.2220470222   -0.0130985142
 C    0.0273389357   -0.0087168237   -0.0068985539
 C   -0.0003064692    1.4023238951    0.0246701616
 C    0.2784347722    2.2989640019   -1.1835022496
 C    1.1191694057    2.4587909533    0.0317570187
 O    0.4673182826    3.2510731576    1.0133770751
 C   -0.5993781186    2.2745554869    1.1370649600
 H    0.0536929864   -4.8498560938   -0.0466088847
 H    0.7411608866    1.7771980704   -2.0142580321
 H   -0.4328108874    3.0762866440   -1.4495067134
 H    2.1967768840    2.3565061276    0.0827690705
 H   -1.5896944586    2.7069526918    0.9567219003
 H   -0.5663472860    1.7912431161    2.1179411906