16

 C    0.0025035255    1.5527279549    0.1082727886
 C    1.5014235158    1.4925019134   -0.1212038951
 C    1.3365306142    0.0623087921   -0.6598849770
 C    2.3778985772   -0.3957925067    0.3677557361
 C    1.6386327468   -0.2540984979    1.6298013994
 C    0.1642324200   -0.4895498285    1.3571827111
 N   -0.0581636369    0.0473339295    0.0026751644
 N    2.3156543713    0.9532179971    1.0573571314
 H   -0.3646331588    1.9649032785    1.0538625864
 H   -0.5401783165    2.0162541945   -0.7226626775
 H    2.0602802138    2.2914389467   -0.6107464652
 H    1.3528547786   -0.2552233223   -1.7002268049
 H    3.3032296212   -0.9348785587    0.2006952771
 H    2.0876416867   -0.5623575510    2.5691080069
 H   -0.0444849142   -1.5670733246    1.3931882650
 H   -0.5125934048    0.0029805730    2.0617371732