14

 O   -0.8483041479    1.3339148206   -0.3523488225
 C    0.2089571428    0.9290626314    0.0751472575
 C    1.4295337799    1.7494509790    0.1281396657
 C    1.3711519727    3.2911734603    0.1677997871
 N    2.6481191497    3.7230922982    0.7831177870
 C    3.3007077547    2.7616925987   -0.1836023349
 C    1.9712981555    2.6949304676   -1.0368315937
 C    2.8589806376    1.4071088101    0.4138979889
 O    3.4282168397    0.4069359565    0.7412524330
 H    0.3294007805   -0.1066817363    0.4528497519
 H    0.4118470982    3.7672955123    0.3250623774
 H    2.8329784219    4.6668850933    0.4425614589
 H    4.3141862740    2.9542079385   -0.5220021418
 H    1.7079247006    2.5784170100   -2.0787963945