19

 C    0.2059992634    1.3970099173   -0.0774687095
 C    0.0734171790   -0.0500138486    0.0075238045
 C   -0.0258945989   -1.2493655872    0.0806550064
 C   -0.1281616541   -2.6753651694    0.1518130452
 C   -0.6826156412   -3.3672048086    1.3649067090
 C   -1.5230307360   -3.3640121750    0.1053476496
 C   -2.7825032716   -2.5313270047    0.0220873968
 C   -1.5165281179   -4.6344277536   -0.6720715068
 O   -0.6250526087   -5.4508679726   -0.6483048537
 H    1.2440977016    1.6856132068   -0.2762604836
 H   -0.4113789547    1.8099526328   -0.8831283838
 H   -0.0983392797    1.8820241880    0.8566414109
 H    0.6344733351   -3.2350035186   -0.3821934721
 H   -0.2291444271   -4.3133762064    1.6378024725
 H   -1.0276823733   -2.7458297318    2.1831775536
 H   -2.6382814666   -1.5577730564    0.4946706213
 H   -3.0690609462   -2.3519402930   -1.0201752307
 H   -3.6194604504   -3.0332075967    0.5198799781
 H   -2.4146002327   -4.7893822823   -1.3115270576