21

 C    0.0127908349    1.5226156842   -0.0334180122
 C   -0.0267749565    0.0090490130    0.0551826480
 O    0.9364856044   -0.6067611623   -0.8574193190
 C    1.7075118376   -1.1398562653    0.2454922893
 C    0.6864200552   -0.6275662305    1.2719037648
 C    0.3696001526   -2.0908495608    1.6526353290
 C   -0.0082473221   -2.9313757205    0.4588887477
 C    1.4402470556   -2.6101037299    0.6694867013
 C    2.5168636083   -3.6436831698    0.8374794670
 H    1.0089112281    1.9044206972    0.2125042682
 H   -0.2376301380    1.8511874024   -1.0468390865
 H   -0.7109279629    1.9648711274    0.6606760988
 H   -1.0409924834   -0.3600029775   -0.1434035660
 H    2.7589023269   -0.8405339878    0.2138248152
 H    0.9648614080    0.0275116787    2.0967425659
 H    0.1571918600   -2.4242229082    2.6619472357
 H   -0.2834449633   -3.9530813238    0.7030904438
 H   -0.5433324561   -2.5174634999   -0.3885166915
 H    2.8853541424   -3.9940275954   -0.1346349866
 H    3.3747729897   -3.2485431987    1.3940605782
 H    2.1421286584   -4.5168059627    1.3819629989