19

 C    0.0388776673    1.5229207984   -0.1009149266
 C    0.0129015472    0.0374098459    0.2096812698
 O    0.9664490253   -0.5351126769    0.6849428771
 C   -1.2922027914   -0.6940613153   -0.1007427528
 C   -1.1436627376   -2.2062912419   -0.0838783216
 C   -0.9207723392   -3.0289928368    1.2143698460
 C   -2.3949929931   -2.8149921752    1.6365536243
 C   -2.3392650636   -3.1789531501    0.1326979250
 O   -1.3576987965   -4.2350374180    0.4655876243
 H    0.9528833618    1.9698683892    0.2916586612
 H   -0.0006166823    1.6739034594   -1.1862095584
 H   -0.8374578114    2.0271467543    0.3207222974
 H   -2.0349125588   -0.3374131841    0.6247487360
 H   -1.6644264231   -0.3567163490   -1.0772710811
 H   -0.4835095029   -2.5521242900   -0.8824875794
 H   -0.0231050530   -3.1096969820    1.8241663573
 H   -2.8021433373   -3.5985774120    2.2759961670
 H   -2.7276306264   -1.8190395154    1.9373219777
 H   -3.1497554949   -3.4440494505   -0.5480251033