19

 C    0.4544970963    1.4592742563   -0.0992833138
 C    0.1531245035   -0.0238764522   -0.0091975043
 O    0.6188039815   -0.6391961015   -1.2294786951
 C    0.4358830405   -1.9675999045   -1.3218574202
 O   -0.0743438665   -2.6417065281   -0.4620863130
 C    0.9241638833   -2.4961239072   -2.6600627158
 C    1.4343270786   -3.9128787343   -2.5510437632
 C    2.3915431822   -4.4581128380   -3.5185654044
 O    2.8147935976   -4.0623282772   -2.2126616629
 H    1.5284991579    1.6337787312   -0.2086540870
 H   -0.0565608947    1.9113650633   -0.9539957791
 H    0.1144925481    1.9621190390    0.8108889914
 H    0.6597416808   -0.4966754608    0.8375993669
 H   -0.9181299210   -0.2208110966    0.0989727352
 H    0.0670255030   -2.4654115509   -3.3464893201
 H    1.6935516208   -1.8367646572   -3.0675866979
 H    0.7694496166   -4.5967497760   -2.0262235873
 H    2.4118118344   -5.5289833540   -3.7155522451
 H    2.7485081971   -3.8309837712   -4.3351667844