17

 C   -0.1017131766    1.4834405020   -0.2369721096
 C    0.0720863423   -0.0057865212    0.0086698321
 O   -1.1697110044   -0.6625427651    0.1435292158
 C    1.0616400470   -0.7403186782   -0.9887530498
 N    1.9837485684   -0.8530082004    0.1535092689
 C    1.0766888581   -0.4054133932    1.0969856960
 N    0.9549377357   -0.3564958448    2.3537103221
 C    0.5311217650   -2.0646845994   -1.5023847205
 O    0.3478372788   -2.3001623234   -2.6672780313
 H    0.8615604473    1.9754387424   -0.4009423180
 H   -0.7383270547    1.6431572090   -1.1118181587
 H   -0.5813523313    1.9428189998    0.6324364007
 H   -1.3334244823   -0.7521982924    1.0909716102
 H    1.4343435869   -0.1412099623   -1.8232851915
 H    2.7580500948   -1.4915572894    0.2700496137
 H    1.7411981633   -0.7774410400    2.8498928266
 H    0.3332169118   -2.8165199932   -0.7082607867