17

 C   -0.2526080618    1.4813702488    0.1607102425
 C    0.0355111184   -0.0204982444    0.0571058120
 N    0.7245802874   -0.5132567156    1.2386871814
 C    0.0841222202   -1.1401747049    2.1244541882
 N    0.5747619578   -1.6555008500    3.3076718254
 C   -0.4253824732   -2.4491932406    3.9199978394
 C   -1.5295767839   -2.2715285485    3.1934088093
 O   -2.7970824241   -2.6629053941    3.3755083210
 O   -1.2799237457   -1.4620620230    2.1055245578
 H    0.6709398817    2.0354990901    0.3520864641
 H   -0.6972720615    1.8562500764   -0.7674496560
 H   -0.9467277528    1.6886063558    0.9815325595
 H   -0.9021520515   -0.5608603693   -0.1367887095
 H    0.6893025458   -0.1968152002   -0.8059619848
 H    1.5610843671   -1.8348252411    3.3884013879
 H   -0.2722629222   -2.9783647214    4.8421340047
 H   -3.2443042718   -2.6497453280    2.5204472171