18

 C    0.0312162613    1.5284075642   -0.2796134800
 N    0.0933023353    0.0752281542   -0.1679776723
 C    1.3974906716   -0.5335561723   -0.1447450729
 C    0.5779505814   -0.5050364091    1.1232642299
 C    0.9849962907    0.3654483123    2.1918278315
 C    1.2982684688    1.0829087178    3.1061525106
 C   -0.1651818505   -1.7926262909    1.4809504580
 C   -0.6911584032   -1.9279914349    2.8913748384
 O   -0.3118759835   -2.6494287951    0.6436589337
 H    0.8683534846    2.0523991978    0.2024572780
 H    0.0247663873    1.7776848988   -1.3449751844
 H   -0.9030741317    1.8847142907    0.1629632411
 H    1.4784347755   -1.4894776617   -0.6533196787
 H    2.2752980472    0.1105567963   -0.1623265847
 H    1.5876686371    1.7133667065    3.9104583772
 H   -1.3339441025   -1.0777475598    3.1434155199
 H   -1.2456367421   -2.8621195410    2.9828048335
 H    0.1374928227   -1.9121242038    3.6069330311