15

 N    0.2229450003    1.4039995882   -0.0527997455
 C    0.1034383125   -0.0068125227   -0.0115091715
 C   -0.0697526792   -0.6132368426    1.4264228491
 O   -1.4869887262   -0.2238637230    1.3652595170
 C   -1.3796136888   -0.6817712841   -0.0203219448
 C   -1.0212414082   -2.1562469735    0.1335098783
 C   -0.1279978418   -2.1080980109    1.1276591655
 C   -2.4208969447   -0.2450681394   -0.9174499303
 N   -3.2058195953    0.1322768298   -1.6777061028
 H    0.2265082514    1.7679858326   -0.9982163975
 H   -0.5167163523    1.8511977070    0.4788475015
 H    0.8273977002   -0.4872903129   -0.6719970826
 H    0.4620507003   -0.2263715929    2.2927119477
 H   -1.3921549797   -2.9739025822   -0.4649771685
 H    0.4517262714   -2.8921495733    1.5902700945