21

 C   -0.7592151447    1.0798345039   -0.4675171139
 C    0.1570093227   -0.0297761526    0.0192630305
 O    0.7935480592   -0.6127020693   -1.1000464093
 C    1.6734688394   -1.6604771130   -0.7631219283
 C    2.2725283585   -2.1782520821   -2.0570688002
 O    3.3020209464   -3.1839334777   -1.8378519676
 C    2.6667333212   -4.0503636902   -2.7861656657
 C    1.3194876664   -4.4722640312   -2.3005277401
 C    1.4901031457   -3.1215307174   -2.9703089156
 H   -0.1864475128    1.8453471768   -0.9986898621
 H   -1.5143285612    0.6813579374   -1.1510583752
 H   -1.2694417602    1.5513070313    0.3777012939
 H    0.9114090286    0.3685413836    0.7188464071
 H   -0.4180985923   -0.7939685315    0.5692633575
 H    2.4868308196   -1.3062615175   -0.1067803286
 H    1.1466693043   -2.4648203698   -0.2254398522
 H    2.6903297573   -1.3345295873   -2.6199867038
 H    3.2987693018   -4.5926974880   -3.4792230157
 H    0.8089232220   -5.2073062487   -2.9152663761
 H    1.1358155704   -4.5601472037   -1.2335721426
 H    0.9503471278   -2.8300437430   -3.8599667119