23

 C    0.7393199613   -0.1872577708    1.2742368929
 C    0.0832827753   -0.2070243929   -0.1105992804
 C   -1.3798204761   -0.6111134739   -0.0645198737
 C   -2.0240174694   -1.2629523924   -1.2611707127
 C   -1.7409824927   -2.0654470185   -0.0056602366
 O   -2.1856155771    0.2068920394    0.7547971624
 C   -2.5332459295    1.4474144200    0.2090732381
 C   -3.8772171121    1.6213695646   -0.4515542457
 C   -3.6091444170    2.1935639582    0.9275946980
 H    1.7832569756    0.1344742187    1.2113194423
 H    0.2088649472    0.4952344788    1.9435417066
 H    0.7183442474   -1.1817749508    1.7319257642
 H    0.1799556159    0.7798654101   -0.5818314988
 H    0.6124069176   -0.9053446219   -0.7693843395
 H   -3.0570882181   -1.0174027308   -1.4722883164
 H   -1.4146106551   -1.4409022025   -2.1410879188
 H   -0.9402109885   -2.7970750446   -0.0226986697
 H   -2.5888384801   -2.3306434541    0.6150347836
 H   -1.6989064686    2.0209771476   -0.1898276390
 H   -3.9616275434    2.2977026710   -1.2954172259
 H   -4.5205426361    0.7504917780   -0.4991242760
 H   -4.0663225412    1.6833720818    1.7678506853
 H   -3.5096016952    3.2665793050    1.0456092599