22

 C   -0.1117156207    1.6032986067   -0.1186803719
 C   -0.0683009113    0.0753627917   -0.2060375883
 C   -1.3574012991   -0.5796949389    0.3120462968
 C   -1.4040887426   -2.0900364852    0.1340857156
 C   -0.3879887878   -2.8888164421    0.9401972983
 C   -0.4478113981   -4.4076167894    0.7599085230
 C   -2.6623991940   -2.6983592532   -0.3281353831
 O   -1.5709832291   -2.5067396302   -1.2338365834
 H    0.8138756895    2.0499234742   -0.4948809938
 H   -0.9412399147    2.0102949982   -0.7075769493
 H   -0.2463932262    1.9386994898    0.9160116358
 H    0.0857404189   -0.2344388084   -1.2463377355
 H    0.7955933706   -0.2927588460    0.3597783103
 H   -1.4951624306   -0.3398252166    1.3754203327
 H   -2.2110087465   -0.1437312916   -0.2201646184
 H    0.6120252565   -2.5374178162    0.6585494082
 H   -0.5116289340   -2.6268502724    1.9991490134
 H   -1.3468562693   -4.8381739456    1.2115764878
 H   -0.4402439932   -4.6663925185   -0.3024077674
 H    0.4155920578   -4.8827612737    1.2341949051
 H   -2.8970710920   -3.7353258161   -0.0981876351
 H   -3.5295148240   -2.0614184365   -0.5014307707