21

 C    0.0842783546    1.4959575929    0.0940297732
 C   -0.0076666121   -0.0261059779   -0.0456612348
 C   -1.4498681076   -0.5677460441   -0.0565429399
 C   -2.2746881798   -0.0991629756   -1.2574847388
 N   -1.4396281327   -2.0292211208    0.0371146164
 C   -1.2628303314   -2.9462940419   -0.9473157768
 C   -1.2286824991   -4.1868513706   -0.3428116713
 C   -1.3873028680   -3.9091503692    1.0283660517
 N   -1.5096700463   -2.6030545658    1.2563528644
 H    1.1280361561    1.8112450439    0.1829948653
 H   -0.3420717875    2.0164156179   -0.7691078175
 H   -0.4434856461    1.8439041376    0.9891133445
 H    0.5015304325   -0.3516849566   -0.9619507722
 H    0.5141614108   -0.5042063850    0.7900550331
 H   -1.9457772123   -0.2481625412    0.8649364982
 H   -1.7856904782   -0.3440844039   -2.2064915481
 H   -3.2662584425   -0.5591942364   -1.2512339922
 H   -2.4027478726    0.9853181706   -1.2248606584
 H   -1.1818692291   -2.6579581828   -1.9827121360
 H   -1.1153351926   -5.1439510761   -0.8255157947
 H   -1.4253447461   -4.6010101552    1.8571800040