24

 C    1.7990031915    0.4938960144    0.9837643229
 C    1.0195385729   -0.7186972284    0.4655499712
 C    1.2395379374   -0.9586435685   -1.0318801655
 C    0.5730717287   -2.2318671122   -1.5832974159
 C   -0.9654893238   -2.2946220539   -1.3807320114
 C   -1.7526051419   -1.1145180107   -1.9610828834
 C    0.8909283868   -2.3738339381   -3.0744465180
 N    1.1798257220   -3.6433481611   -3.4885534728
 O    0.8606276639   -1.4363977778   -3.8519146311
 H    2.8767446351    0.3653277566    0.8341067705
 H    1.5012920887    1.4077989885    0.4580203632
 H    1.6270198017    0.6530127396    2.0529205912
 H    1.3185934799   -1.6132443487    1.0293305858
 H   -0.0478230454   -0.5738494666    0.6711298426
 H    0.8922857690   -0.0984909011   -1.6127447713
 H    2.3183401192   -1.0261295063   -1.2248474301
 H    0.9975560565   -3.0972257116   -1.0549046405
 H   -1.3281521204   -3.2283319628   -1.8288850734
 H   -1.1667224111   -2.3804905846   -0.3069208881
 H   -2.8279891474   -1.2833649256   -1.8470804989
 H   -1.5106683198   -0.1782664007   -1.4486285700
 H   -1.5335117522   -0.9744880241   -3.0222554609
 H    1.2328341293   -4.4207077282   -2.8552240898
 H    1.3623965695   -3.7975208179   -4.4667432664