18

 C   -0.3768111779    1.5247700019    0.0140262926
 C   -0.0315108336    0.0207960233    0.0024854602
 C    0.7252424337   -0.3952607951   -1.2401905985
 C    1.9841992933   -0.0267666688   -1.5480768091
 C    2.9263753986    0.6646631633   -0.7017183037
 C    2.9396232647    0.6572871043    0.6557852282
 C    2.0140702574   -0.0433980087    1.5128067131
 C    0.7493055466   -0.4086581507    1.2255624927
 H    0.5287155894    2.1352703289    0.0085137001
 H   -0.9721037715    1.7864813430   -0.8670750311
 H   -0.9547809571    1.7768272397    0.9093607139
 H   -0.9799052727   -0.5272249140    0.0087633243
 H    0.1853686933   -1.0127063190   -1.9545716520
 H    2.3577555949   -0.3011476790   -2.5332034851
 H    3.7622928111    1.1424359920   -1.2075105060
 H    3.7853028871    1.1296245900    1.1503292803
 H    2.4067516994   -0.3284272096    2.4874161009
 H    0.2234103234   -1.0338863914    1.9435922793