12

 N    0.0031210631    1.3989296959    0.1547133435
 C   -0.0315045149    0.0135348696    0.0510986328
 C   -1.1313857451   -0.8288739224    0.0226538607
 N   -0.6088820746   -2.0986871750   -0.0118715464
 C    0.7480306027   -1.9809748566    0.0012179266
 N    1.1235168212   -0.7090989576    0.0356866556
 C    1.6002433162   -3.1121235860   -0.0258948234
 N    2.2622200328   -4.0624956747   -0.0510779071
 H    0.9099431427    1.7661588716   -0.1011101273
 H   -0.7366290204    1.8744150045   -0.3423689549
 H   -2.1918538735   -0.6445858212    0.0316865406
 H   -1.1278601902   -2.9609109980   -0.0411452209