18

 C   -0.0861658472    1.5729007430    0.0667850024
 C    0.0939792837    0.0692864652    0.0611268658
 C    1.3618894842   -0.6811957317   -0.2251242899
 C    2.6079890687   -0.0408842667    0.3781811019
 O    2.9989039236    1.1645004943   -0.2383483878
 C    1.9288146701   -0.0023554830    1.7919518782
 C    0.7145847936   -0.7306508715    1.1902705439
 C    0.0427296776   -1.8236802712    1.8105318284
 N   -0.4972313219   -2.7100479367    2.3247467205
 H    0.8119311600    2.0982501269    0.3893235799
 H   -0.3146686765    1.9179023525   -0.9467858614
 H   -0.9220763039    1.8571984158    0.7145929284
 H   -0.7614234682   -0.4610359281   -0.3531865648
 H    1.3855783396   -1.4769321268   -0.9596254648
 H    3.4340358602   -0.7628659630    0.3839595483
 H    3.8442490028    1.4366387044    0.1331106431
 H    2.4607196481   -0.5965025405    2.5363564344
 H    1.7232572353    0.9898973970    2.2001294235