15

 C   -0.0349231860    1.5666639514   -0.0750471139
 C    1.5314377195    1.3867261430   -0.0129949474
 C    1.2076281196    0.1647453753    0.9312651997
 C   -0.0506236310   -0.0095748525   -0.0047532874
 C    0.6602179148   -0.3078797830   -1.2980157087
 N    0.7012353180   -1.0345954079   -2.3609717487
 O    1.8157525512   -0.5478340756   -3.0591316567
 N    2.4412293812    0.5012131437   -2.3700846219
 C    1.7315215903    0.6376668413   -1.3036095317
 H   -0.4286513804    2.0181666772    0.8384047706
 H   -0.4610350054    2.0442448750   -0.9594079554
 H    2.2048341113    2.1891568274    0.2734031463
 H    1.9295170243   -0.6529135633    0.9766422547
 H    0.9254469621    0.4903893182    1.9350584293
 H   -0.9288053796   -0.5765469802    0.2897310110