23

 C    0.1110890244    1.8365133412    0.5231044751
 C    0.0194144984    0.3471335464    0.1879214726
 O    0.4037829189    0.0919870033   -1.1633119097
 C    0.7791296939   -0.5691081038    1.1796070133
 C    0.2963268894   -2.0080221531    0.9797151620
 O    0.8830863825   -2.8523859632    1.9633168163
 C    2.3094547037   -0.4325354380    1.0401210534
 C    3.1050508776   -0.7956571159    2.2905474131
 O    4.4678849362   -0.4790948625    2.0254516931
 H    1.1453026074    2.1975456776    0.5020933129
 H   -0.4605993354    2.4140821861   -0.2084327733
 H   -0.2930388258    2.0409599504    1.5198657691
 H   -1.0399962435    0.0626658044    0.2182523626
 H    1.3049501031    0.4136086329   -1.2757793411
 H    0.4862627794   -0.2618997898    2.1936803510
 H   -0.8024519907   -2.0327778813    1.0592328509
 H    0.5599180591   -2.3324921938   -0.0372138314
 H    0.6595008996   -3.7622802377    1.7480397818
 H    2.6663482371   -1.0513263050    0.2083354396
 H    2.5785563912    0.6027279913    0.7955444576
 H    2.7254541557   -0.2132318641    3.1470636021
 H    2.9724687162   -1.8568428816    2.5263278557
 H    4.9958373616   -0.8042618138    2.7600258033