20

 C   -0.2087482862    1.6072291393   -0.0358145553
 C    0.1060666825    0.1122229749    0.0413265920
 C    1.3556254603   -0.6704670804   -0.3196844667
 C    2.7139938443   -0.1384667364    0.2061301082
 C    2.6517974068    1.1547856844    0.9664206687
 C    2.1586360818   -0.1114519722    1.6207565864
 C    0.8045341878   -0.6939638460    1.1069157564
 C    0.1531166546   -1.8163875626    1.8633368874
 H    0.3864708136    2.1197236392   -0.7975535757
 H   -1.2609358087    1.7454641119   -0.3040203005
 H   -0.0541771844    2.1174055526    0.9183487377
 H   -0.7437211541   -0.4744881587   -0.3098714680
 H    1.3131942841   -1.4622057961   -1.0592453961
 H    3.6527908147   -0.5600426291   -0.1296879764
 H    3.6175318473    1.4774320732    1.3481421797
 H    2.0104960691    1.9757930012    0.6841675140
 H    2.6195915740   -0.4946945216    2.5228873058
 H   -0.3139633091   -1.4569602525    2.7896987958
 H   -0.6263942194   -2.2974649025    1.2635773555
 H    0.8830896709   -2.5859806286    2.1432845710