18

 C   -0.1079622159    1.5610177197    0.1465013954
 C   -0.0397760043    0.0389617448    0.0247442190
 O   -1.3390075270   -0.5260360302   -0.0529859381
 C    0.6701278699   -0.4397245937   -1.2650751613
 C    2.1090292653    0.1093639097   -1.4146740204
 C    2.8071256296   -0.3612124865   -2.6798628903
 O    3.3442130452    0.3851009634   -3.4560064525
 C    0.6781607684   -1.9082542357   -1.2995162659
 N    0.7378098884   -3.0619403975   -1.3254631945
 H    0.8785921376    2.0112255115    0.2851316580
 H   -0.5792585212    1.9995705531   -0.7388313393
 H   -0.7136858944    1.8295120795    1.0183375933
 H    0.5116581685   -0.3740257901    0.8843178604
 H   -1.7891900264   -0.3773301197    0.7842500647
 H    0.0602826879   -0.0925568230   -2.1089038312
 H    2.1038002500    1.2002617528   -1.4273231157
 H    2.7089705454   -0.2269094415   -0.5575510087
 H    2.8006132429   -1.4599960267   -2.8421443829