17

 C   -0.0698871142    1.5919482359    0.0043156320
 C    0.0985593842    0.0773068279    0.0034216213
 C    0.8715736790   -0.5203568348   -1.2001158465
 C    1.4981012346   -1.8232704280   -0.6301410682
 N    1.6889017140   -1.4678596061    0.7616974328
 C    0.8964219140   -0.4445127274    1.2111939728
 O    0.8288804968   -0.0343149351    2.3468675339
 C    0.0602138408   -0.7406654852   -2.3905245709
 N   -0.5914435628   -0.9155950691   -3.3288824032
 H    0.8960567220    2.0954481040   -0.1081563650
 H   -0.7254729815    1.9173697019   -0.8080119086
 H   -0.5020627290    1.9083379930    0.9565015971
 H   -0.8883498838   -0.4007624593    0.0623468888
 H    1.6840801361    0.1674323059   -1.4625781932
 H    0.8145237493   -2.6732483331   -0.7578136556
 H    2.4429055488   -2.0678877361   -1.1226884603
 H    2.1932021017   -2.0469701245    1.4144769329