15

 O   -0.1526021608   -0.0005990870   -0.0283575493
 C   -0.0314088889    1.1953677368   -0.0136155461
 N    1.1734810802    1.8726281121    0.0054181565
 C    1.4561256832    3.3233812094    0.0105018356
 C    2.9500771690    2.9491549782   -0.0251048344
 C    4.0638132975    3.5898182876   -0.7633434463
 N    4.0696154965    3.5224322289    0.7052067824
 C    2.5447718822    1.4827733667    0.0091867315
 O    3.0843647567    0.4223739519    0.0128064519
 H   -0.8866360247    1.9018000293   -0.0132618019
 H    1.0750191582    3.8511517851   -0.8680379667
 H    1.1285951070    3.8264993342    0.9257468967
 H    4.8045128647    2.9624158231   -1.2499808183
 H    3.8605062120    4.5392083832   -1.2524112069
 H    3.8028123970    4.4176306205    1.1090008656