15

 C   -0.0362946012    1.5182551829    0.0127779422
 C    0.0092391156    0.0131171883   -0.0132942066
 C    0.6790024114   -0.7388570488   -1.0976127677
 N    1.2961545129   -0.6572684687    0.2595131361
 C    0.9877002385   -1.8342809160    1.0163978721
 O    1.7660438529   -2.6498212079    1.3980214492
 O   -0.3566376573   -1.9169887836    1.2680200912
 C   -1.0396915088   -0.7623452002    0.7776052112
 H    0.8295609105    1.9390420422   -0.5035560110
 H   -0.9422109521    1.8849326181   -0.4822237725
 H   -0.0352665620    1.8908124438    1.0422629066
 H    0.2729431455   -1.6990935758   -1.4054514195
 H    1.2339936645   -0.2058724911   -1.8627218311
 H   -1.4021581315   -0.1736171737    1.6280463059
 H   -1.8978779490   -1.0862346195    0.1809977839