17

 N   -0.3540389948    1.4168432462    0.3374172669
 C   -0.0852698364    0.0562328625    0.0945501864
 C   -0.9928442292   -0.9276458069   -0.2413490371
 N   -0.3127656633   -2.1278484415   -0.2798955245
 C    1.0090132878   -1.9272604402    0.0168473447
 C    1.9833476168   -3.0665142424    0.0134101894
 C    2.0293286261   -3.6477055282   -1.3902806505
 O    1.4688366822   -4.6634562590   -1.7185356567
 C    1.1815584384   -0.5777997566    0.2502573674
 H    0.4076102723    2.0147948609    0.0423000312
 H   -1.2035626238    1.7298233166   -0.1151499441
 H   -2.0513325988   -0.8755256851   -0.4376014695
 H   -0.7098084430   -3.0144329465   -0.5395330232
 H    2.9716782725   -2.6888259019    0.2925661739
 H    1.6946183536   -3.8618975698    0.7096249539
 H    2.5747952952   -3.0211546215   -2.1306861601
 H    2.1092256543   -0.0995708865    0.5280626521