20

 C    0.3071430956    1.6298785716   -0.1919316202
 C   -0.1051763323    0.1956685266    0.0654034897
 C    0.8618770360   -0.9492763754   -0.1353743188
 C    0.3822488992   -0.6021913765    1.2536473482
 C    1.3156455069   -0.0671238767    2.3065411033
 C    2.2087121853   -1.0888429171    3.0516042716
 C    3.3502102489   -0.2986503945    2.4530926816
 N    4.6002442816   -0.3581032139    2.5138788297
 O    2.5273642794    0.5817735294    1.7760322861
 H    1.3461597481    1.8072568765    0.0925084672
 H    0.1990771241    1.8741823313   -1.2544139396
 H   -0.3207412979    2.3294583108    0.3717567410
 H   -1.1333388145   -0.0201777620   -0.2158406010
 H    0.5105283696   -1.8664468351   -0.5948610069
 H    1.8856769492   -0.6854912860   -0.3774708728
 H   -0.3494580591   -1.2764378159    1.6948730098
 H    0.8057970669    0.6370324994    2.9725214504
 H    2.1598779521   -1.0793618240    4.1412913235
 H    2.1352227374   -2.1149386884    2.6863079171
 H    5.0342611835    0.3797977499    1.9566254601