21

 C    0.9559062962   -0.4797266844   -1.1019248207
 C    0.0724315912    0.0148944473    0.0265762336
 C    0.6658028860    0.1776512441    1.3813670301
 N    0.3076439264    1.3627633777    0.5815935761
 C   -1.3611651711   -0.4592554927   -0.0663563307
 C   -2.5882412191    0.3729429879    0.3792986795
 C   -2.3503803052    1.1907371416   -0.9080038687
 N   -2.1245617872   -0.2550639330   -1.4029870874
 C   -3.3699921763   -0.5745206753   -0.5567482699
 H    1.9991925327   -0.1875801958   -0.9421183856
 H    0.9186133260   -1.5719626009   -1.1782697403
 H    0.6184718429   -0.0772519565   -2.0618555730
 H    0.0549332081    0.0292851816    2.2682855447
 H    1.7163699342   -0.0707109060    1.5104958447
 H    1.1449701481    1.7638256940    0.1647263837
 H   -1.3862817577   -1.5191681742    0.2188151627
 H   -2.8502043826    0.7245411160    1.3826067429
 H   -3.2196961970    1.6649432162   -1.3726374210
 H   -1.4712839231    1.8287092644   -0.9563494558
 H   -3.4545828405   -1.6297972517   -0.2804055459
 H   -4.2968168620   -0.2026677305   -1.0015073490