20

 O   -0.6806741061    0.9408939852    1.5044638136
 C   -0.0838129212    0.1048290322    0.5597902972
 C   -0.5440729234   -1.3132919076    0.3627754951
 C   -0.8209935995   -0.2612386523   -0.7071190338
 C   -2.1708139293    0.3843280298   -0.9224476025
 C   -3.1697766750   -0.0323196118   -2.0402299656
 C   -4.2136168107   -0.1378293561   -0.9279337422
 C   -3.7874518901   -1.1462148260    0.0514801250
 N   -3.2129913772    0.2151939719    0.1650015049
 H   -1.6428201978    0.8282530447    1.4590501366
 H    0.9795298010    0.3139155871    0.5025454272
 H    0.1879094202   -2.0830412895    0.1409694169
 H   -1.3634021858   -1.6418992739    0.9906762523
 H   -0.2297802392   -0.3325013615   -1.6172090671
 H   -2.0101200477    1.4657422445   -0.9906856599
 H   -3.3475791919    0.7611092280   -2.7672764744
 H   -2.9735223571   -0.9662053897   -2.5748777186
 H   -5.2099780482    0.2902435293   -0.9452918364
 H   -4.4536384086   -1.3729348773    0.8779262414
 H   -3.1624727324   -1.9732525468   -0.2731343095