11

 O   -0.0156244281    1.3443013945    0.0093523526
 C    1.2636309841    1.8434677647   -0.0000998442
 C    2.0947346543    0.7745461030   -0.0136093850
 O    3.4145485252    0.4207299949   -0.0279642349
 C    3.3503144135   -0.9617717758   -0.0347197622
 N    2.1874118417   -1.5110047454   -0.0264610415
 C    1.3191873459   -0.4136668572   -0.0125234367
 C    0.0146980558   -0.0203966747    0.0018545274
 H    1.3606776097    2.9133807745    0.0046375377
 H    4.3095046271   -1.4582629603   -0.0463989039
 H   -0.9403511892   -0.5148474283    0.0082819607