18

 N   -0.1650879125   -1.1930088563   -0.3240257728
 C   -0.1070422557   -0.0470643355   -0.1871300925
 C   -0.0062997068    1.4004605948   -0.0172157529
 C    1.4385241002    1.9180694357   -0.1939960839
 C    1.5010042824    3.4319032893   -0.0555195646
 C    1.4833973734    4.1823166493    1.3130572423
 C    2.9371994577    3.7378590295    1.6026383943
 C    2.8298840078    4.2185268500    0.1353715746
 O    2.0247194097    5.3680528273    0.6112533514
 H   -0.6730236604    1.8838089698   -0.7407083255
 H   -0.3842617324    1.6603463737    0.9783165114
 H    2.0867506778    1.4130513282    0.5265836954
 H    1.7962596361    1.6318639666   -1.1894836538
 H    0.8523250817    3.9298045129   -0.7829180636
 H    0.6576943985    4.3470455101    2.0064664210
 H    3.4920924502    4.4084439915    2.2588096812
 H    3.1452866219    2.6859135473    1.8056604228
 H    3.6187136602    4.4233772155   -0.5890713448