19

 C   -0.0448649880    1.6473477037   -0.0142052878
 C    0.0152952679    0.1098021274   -0.0186917517
 C    0.8828103124   -0.7407914684   -1.0116119427
 C    2.3478531012   -0.5401226572   -0.6083508341
 C    2.7977738715    0.6402779883    0.2123129783
 C    2.2215562861   -0.5495510605    0.9344966151
 C    0.7106371139   -0.7536524389    1.0916779432
 C    0.5680841679   -1.8814176384    0.0143819524
 O    0.2938921094   -3.0393667344   -0.0151437627
 H    0.4996342685    2.0866407224   -0.8542505672
 H   -1.0836873133    1.9782354685   -0.0971722051
 H    0.3554172949    2.0758566775    0.9084466111
 H   -1.0107692986   -0.2628216749   -0.1049678956
 H    0.6356948446   -0.8175022274   -2.0684317106
 H    3.0907114525   -1.1447144411   -1.1146865331
 H    3.8771625801    0.7221474351    0.3011735158
 H    2.3012008836    1.5965915645    0.1775029908
 H    2.8727888480   -1.1609797593    1.5475190345
 H    0.2950303375   -0.8429522569    2.0932341995