16

 C    0.2318787843    1.4168180102   -0.0885001352
 C    0.0176034438   -0.0603115429    0.0002526862
 C   -1.3875980214   -0.7688651196    0.1972499217
 O   -1.2887148326   -2.1301791114   -0.2063630299
 C   -0.7779688077   -1.7695799972    1.0746254276
 C    0.6356893357   -1.1066603874    0.8879382472
 N    0.9293147813   -1.0638439705   -0.5270844134
 C    2.1756891030   -0.8583739741   -1.0762336840
 O    3.2069108985   -1.3320033570   -0.6602471341
 H    1.2809400423    1.6738855872    0.0856158543
 H   -0.0570428679    1.8032815374   -1.0724773997
 H   -0.3752720578    1.9340008480    0.6618441399
 H   -2.3627348342   -0.2963330256    0.1951090610
 H   -1.1489432722   -2.2924746256    1.9468465098
 H    1.4234559053   -1.0121050074    1.6234993715
 H    2.1122534296   -0.2551539142   -2.0019319528