18

 C    0.0003444068    1.4788000174    0.0021640762
 N   -0.0270977706    0.0371212476    0.1080536635
 C   -1.2615126448   -0.6376396625    0.5363377358
 C   -0.3962486858   -1.6917440776    1.2869170650
 C   -0.1272590959   -2.9189181526    0.4530479957
 O   -0.2945190341   -4.0466370494    0.8404819937
 C    0.7346018683   -0.6063997060    1.1991842548
 C    2.1049880226   -0.9932679842    0.9056070172
 C    3.2405721863   -1.3153054557    0.6783479400
 H    1.0178416349    1.8081900432   -0.2302104077
 H   -0.6539507086    1.8009703285   -0.8141689835
 H   -0.3270328011    1.9864210852    0.9289583804
 H   -1.8696389162   -0.0493080657    1.2428926109
 H   -1.9028493150   -0.9877535214   -0.2796740052
 H   -0.7107444290   -1.9838752454    2.2875245252
 H    0.2271117424   -2.7022077263   -0.5780337760
 H    0.7177408014   -0.0068923742    2.1269603450
 H    4.2417104384   -1.6042407209    0.4720216189