20

 C   -0.1635207316    1.5899220123    0.0289389468
 C    0.0312398239    0.0661537379    0.0128486192
 C    0.8174974723   -0.4504633468   -1.1801766880
 C    1.8113199230   -1.2646968438   -0.8216021705
 C    1.9152622766   -1.4110332106    0.6660529060
 C    2.2820808151   -2.7461872201    1.2692006513
 C    2.2735513869   -0.1121007668    1.3657422584
 C    0.8213700135   -0.4984106609    1.1992454626
 H    0.7978436405    2.1119476020    0.0568517383
 H   -0.7028710743    1.9265409567   -0.8630024157
 H   -0.7415676140    1.8998689815    0.9054538795
 H   -0.9704475606   -0.3906192898    0.0053184824
 H    0.5848405753   -0.1513142461   -2.1969917707
 H    2.4986492226   -1.7591205133   -1.5007738630
 H    3.2978021341   -3.0458854248    0.9840013732
 H    2.2462235309   -2.7077056394    2.3624972638
 H    1.5982315300   -3.5361891843    0.9384663733
 H    2.6781049845   -0.1826293252    2.3713395440
 H    2.6870794166    0.6948797358    0.7700695196
 H    0.2766556647   -0.7680614942    2.0976678694