20

 C   -0.2296273904    1.4463305408   -0.0397490955
 C    0.0348462485   -0.0633354261   -0.0651138848
 C    0.9295292331   -0.4393541680   -1.2479383532
 N    0.7105979959   -0.4877296619    1.1700996284
 C   -0.1168634506   -0.5768958063    2.3719978896
 C   -1.1077691614   -1.7608039224    2.4223415512
 C    0.7684369508   -0.6240457380    3.5507972431
 N    1.4516469280   -0.6923358953    4.4799695122
 H    0.7126886595    1.9932811549    0.0608019014
 H   -0.7235972876    1.7605588866   -0.9645285889
 H   -0.8803633829    1.7401964895    0.7897090003
 H   -0.9334693682   -0.5781927594   -0.1991433992
 H    1.9095977826    0.0388318381   -1.1509715490
 H    1.0814307088   -1.5231869147   -1.3029934428
 H    0.4788078558   -0.1174360010   -2.1906334725
 H    1.1805741048   -1.3752159372    1.0239452961
 H   -0.6858470292    0.3566442793    2.4501737320
 H   -1.6961364283   -1.7404783293    3.3440946741
 H   -1.7952350368   -1.7128086904    1.5741198565
 H   -0.5680307924   -2.7117321192    2.3828807009