19

 O   -0.1742735364    1.5425203363   -0.2763056212
 C    0.0343646245    0.1836659145    0.0785819784
 C   -1.3349417672   -0.4708317573    0.0988198136
 C   -1.9651702188   -0.7154019684   -1.2881873578
 O   -1.8405019106   -2.1489949173   -1.1407235613
 C   -1.4150590575   -2.0151861382    0.2338274593
 C   -0.1654414936   -2.8434542116    0.5357792994
 C   -0.4305810724   -4.3238320844    0.3424371634
 O   -0.2292292088   -5.1652502072    1.1806467927
 H    0.6827670236    1.9727248466   -0.3485228355
 H    0.6866605129   -0.3190147085   -0.6525345962
 H    0.5133381949    0.0946403543    1.0667296844
 H   -1.9710822438    0.0725221188    0.8006414598
 H   -3.0124933169   -0.4064104691   -1.3864125305
 H   -1.3981673666   -0.3379821606   -2.1463524283
 H   -2.2208777132   -2.3233760379    0.9159944022
 H    0.6343397351   -2.5569081916   -0.1587892234
 H    0.1757019472   -2.6811686730    1.5626990934
 H   -0.8377934923   -4.5877656453   -0.6568531025