20

 C   -0.0858294910    1.3914320855   -0.1130687428
 C   -0.2340944580   -0.1173887574   -0.2375178636
 O   -1.1762183262   -0.7210716802    0.2466662895
 N    0.7602212735   -0.7513649311   -0.9248406297
 C    0.7361340303   -2.1872251956   -1.1497578520
 C   -0.1562249077   -2.6028271321   -2.3309297735
 C   -0.1473871648   -4.0968635877   -2.5320648654
 C   -0.1739731070   -4.7148920014   -3.8623960375
 O    1.0407559862   -4.6520997912   -3.1134328079
 H    0.8578645101    1.7766894680   -0.5081942230
 H   -0.9135242826    1.8731661917   -0.6414644027
 H   -0.1702010968    1.6644658812    0.9414996144
 H    1.4880366489   -0.2058464765   -1.3539486238
 H    1.7610278670   -2.5284852890   -1.3210782468
 H    0.3683251209   -2.6572733605   -0.2328981000
 H   -1.1787420603   -2.2640951221   -2.1311916905
 H    0.1896711147   -2.1117849153   -3.2476349185
 H   -0.5379403618   -4.6835150821   -1.6980030685
 H   -0.5943742526   -5.7114102312   -3.9909912368
 H   -0.2118175028   -4.0794887131   -4.7467039308