29

 C    0.0738361838    1.6749695458    0.1749255798
 C   -0.0011777294    0.1542751512    0.0004285531
 C    0.6875133196   -0.5947829703    1.1493560098
 C    0.6888905455   -2.1467391714    1.1034066059
 C   -0.7561138970   -2.6813424671    1.1119506361
 C    1.4135109845   -2.6416393024   -0.1630518309
 C    1.4443929810   -2.6210649786    2.3741917608
 C    1.5993126202   -4.1323509543    2.5919657592
 C    2.3633003065   -4.4552152777    3.8806366499
 H    1.1135223725    2.0195777634    0.2110399442
 H   -0.4208321947    2.1966037131   -0.6505626902
 H   -0.4092626206    1.9919920912    1.1061188670
 H   -1.0536188804   -0.1450871715   -0.0686161607
 H    0.4583542867   -0.1177172030   -0.9571018142
 H    1.7312368127   -0.2540524526    1.2070397630
 H    0.2209140817   -0.2816452177    2.0943472917
 H   -1.3139378201   -2.3413540768    0.2343659113
 H   -0.7783844796   -3.7750943196    1.1005309912
 H   -1.2977187101   -2.3449655709    2.0036240670
 H    2.4463306338   -2.2760012068   -0.1969710224
 H    1.4445847552   -3.7344195775   -0.2052743989
 H    0.9087100837   -2.3011382888   -1.0719817642
 H    2.4466188170   -2.1691550811    2.3640998074
 H    0.9365354142   -2.1961006942    3.2518404285
 H    0.6138870953   -4.6112309342    2.6323130583
 H    2.1253517136   -4.5845251222    1.7429433582
 H    2.4664961932   -5.5355354716    4.0237738523
 H    3.3706533944   -4.0239923270    3.8635310944
 H    1.8482985771   -4.0507235074    4.7593678723