14

 N    0.0335568761    1.3241720460    0.2108513062
 C   -0.0434114033   -0.0259913829    0.0750823783
 N   -1.1054450614   -0.7479353278    0.1101812806
 C   -0.7461893753   -2.1648554194   -0.0836877794
 C    0.7875717273   -2.2733880512    0.0096524567
 O    1.3659216771   -3.1150795465   -0.9568347228
 C    1.2092049437   -0.8185442099   -0.1480526588
 O    2.3010954245   -0.4045350301   -0.4578770525
 H    0.8929086840    1.7493544328   -0.1012779929
 H   -0.8113136439    1.8594154636    0.0889956815
 H   -1.2676716147   -2.7774137578    0.6572372623
 H   -1.0725821215   -2.4998003281   -1.0749366196
 H    1.0708879822   -2.5798273927    1.0329574682
 H    2.2634940553   -2.7891669060   -1.1073885979