19

 O   -0.0041959175    1.4182141764   -0.0670485070
 C    0.0498683720    0.0078254824    0.0279611508
 C   -1.3499213564   -0.5935369473    0.0444669791
 O   -1.9680712289   -0.1840897779   -1.1821584603
 C   -3.3610956698   -0.4379392527   -1.1911080278
 C   -3.6944679524   -1.8317889119   -0.7373200985
 C   -2.7982087753   -2.6068415543   -0.1295146222
 C   -1.3924616851   -2.1237126578    0.1412918398
 O   -0.4590806975   -2.7532650819   -0.7368278929
 H   -0.5857730111    1.6052790907   -0.8133199804
 H    0.6239830224   -0.4379425833   -0.7953861040
 H    0.5645064982   -0.2359736188    0.9629461909
 H   -1.9091496180   -0.1638410599    0.8918838002
 H   -3.8910679484    0.3016437571   -0.5627994507
 H   -3.6979246323   -0.2777025522   -2.2219109559
 H   -4.7069810176   -2.1779047522   -0.9291368828
 H   -3.0372615304   -3.6265646177    0.1573610189
 H   -1.0779857991   -2.4237861228    1.1478903395
 H   -0.7378914526   -2.5262947258   -1.6321547368