23

 C    0.0761695133    1.2792256948   -0.2544909253
 O   -0.0489243493   -0.0991291762    0.0151799812
 C   -1.3718623851   -0.5974139651    0.0830692409
 C   -2.1491144043   -0.0114725904    1.2619343137
 C   -2.1998440516   -0.5960465695   -1.2490666350
 C   -2.4462366137   -2.1239704005   -1.0899653235
 C   -1.5057247858   -3.0135794331   -1.9346782725
 C   -0.3929289207   -2.8479477192   -0.8554567873
 C   -1.4066791175   -2.1441954131    0.0906394636
 H    1.1379988441    1.4745110569   -0.4255164395
 H   -0.4833586770    1.5761870596   -1.1539972793
 H   -0.2606323693    1.9063386712    0.5830735287
 H   -2.3477229754    1.0569340116    1.1290832701
 H   -3.1156620365   -0.5139927509    1.3670297916
 H   -1.5860456268   -0.1504971052    2.1905809569
 H   -3.0913205496    0.0361684703   -1.2429807656
 H   -1.6018201312   -0.3468491710   -2.1305214828
 H   -3.4868343450   -2.4308591138   -0.9785910682
 H   -1.8620389816   -4.0452012568   -2.0061899524
 H   -1.2809531501   -2.6594824096   -2.9458881790
 H    0.0100771976   -3.7861380209   -0.4686990682
 H    0.4413110278   -2.2050752145   -1.1401532842
 H   -1.5874475925   -2.6235670444    1.0545680960