23

 C   -0.0323444408    1.6240026865    0.0775846938
 C    0.0488269683    0.1036596980    0.0273667052
 C    1.0628647963   -0.6087913191   -0.9480472192
 C    2.1010962449    0.2335152172   -1.6805411592
 C    1.5230660722   -1.5282588827    0.2376161154
 O    1.2633063404   -2.8988001994    0.0850494274
 C    2.8080761394   -1.1149980740    0.9959793776
 C    1.9580613806   -0.1310894756    1.8562530326
 C    0.6474620957   -0.6870853362    1.2211292744
 H    0.9398434025    2.0958215079    0.2472303789
 H   -0.4309727936    2.0269853089   -0.8600982231
 H   -0.6994173028    1.9475280704    0.8846769390
 H   -0.9556003480   -0.2836250791   -0.1734649983
 H    0.5261086551   -1.2233860381   -1.6778917684
 H    2.6681871225    0.8839667335   -1.0078371569
 H    2.8228516023   -0.4019832460   -2.2068372024
 H    1.6245634600    0.8755342031   -2.4292522251
 H    1.8186872742   -3.2324647902   -0.6287949522
 H    3.1775844228   -1.9591626203    1.5839328555
 H    3.6384712135   -0.6981509464    0.4193542996
 H    2.0372702919   -0.2913594451    2.9333485134
 H    2.1488953933    0.9268444433    1.6628279986
 H   -0.0526917905   -1.1562840468    1.9133668534