16

 O    0.0430098833   -0.0435860597    0.1412622558
 C   -0.0196163213    1.1419608740    0.0148027527
 N   -1.1602741380    1.9371212482   -0.0933467405
 C   -0.8451021736    3.3188932165   -0.0635865058
 C   -0.0599064672    3.8690156391    1.1178831475
 C    0.6697019010    3.2978532886   -0.0582368514
 C    0.7420876477    4.2030935495   -1.2929422485
 C   -0.8297429653    4.2631059995   -1.2876788109
 O    1.1043963796    1.9667161486   -0.0253719794
 H   -2.0341621084    1.5289259156    0.1973512173
 H   -0.0395093076    4.9410834062    1.2889776740
 H   -0.0663884332    3.2575861480    2.0122503545
 H    1.2923619163    5.1398573881   -1.1721777273
 H    1.1323357393    3.6698006116   -2.1608375771
 H   -1.2703337408    3.8004353657   -2.1714562248
 H   -1.2883009216    5.2426335806   -1.1297971662