22

 C    0.0654528870    1.3381054131    0.2446729043
 O    0.0280329346   -0.0673583850    0.1892746612
 C   -1.2541368067   -0.5731499206   -0.1096976794
 C   -1.1989623622   -2.1012328459   -0.0927848656
 C   -0.8250606195   -2.6330203270    1.2946213710
 C   -2.5398081923   -2.6638272796   -0.5960932683
 N   -2.5384878462   -4.1101193266   -0.7426168076
 C   -3.3457264825   -4.9372131750   -0.0248780331
 O   -4.1564356952   -4.5839849295    0.8048854610
 H    1.0925423370    1.6297254323    0.4771823191
 H   -0.2242938422    1.7934445543   -0.7159278675
 H   -0.6025930015    1.7347557913    1.0255682533
 H   -1.9925306453   -0.2122753432    0.6288724225
 H   -1.5845261411   -0.2101307716   -1.0991447594
 H   -0.4137340058   -2.3930702926   -0.8056222288
 H    0.1174174079   -2.1924315704    1.6261795517
 H   -1.5993587058   -2.3816488017    2.0285914678
 H   -0.7180199025   -3.7209525505    1.2860918078
 H   -3.3432337265   -2.4359822140    0.1098345004
 H   -2.7994036161   -2.2017922199   -1.5578679756
 H   -1.9019420721   -4.5290431187   -1.4023266727
 H   -3.1784311528   -6.0002530694   -0.2910000523