17

 C    0.4165490932    1.4374820279   -0.3734071696
 C   -0.0990726651    0.1049723023    0.1700244800
 O   -0.0463026126   -0.9150149697   -0.8494496843
 C    1.1582164251   -1.6529578388   -0.7456973914
 C    1.6184787962   -1.5207970896    0.7018948962
 O    2.4983426876   -2.1212215537    1.2575813174
 C    0.7235357796   -0.4581181448    1.3143975486
 C    1.0777593643    0.1947913159    2.5785691197
 O    0.0860512320   -0.8273593818    2.5439976817
 H    1.4816456442    1.3829847426   -0.6227559821
 H   -0.1340503699    1.7029863724   -1.2793962556
 H    0.2812874001    2.2363897979    0.3622807782
 H   -1.1475891917    0.1934357605    0.4685196490
 H    0.9694875326   -2.6987638676   -1.0070418090
 H    1.9446410656   -1.2721096005   -1.4177034302
 H    2.0141547030   -0.0814441980    3.0601404768
 H    0.7098671857    1.2004647351    2.7772932545