10

 N   -0.0056014586    1.3643185157    0.0079687075
 C    0.1096859342    0.0601990904    0.0008375486
 N    1.2012635937   -0.6625049030   -0.0138587042
 H    0.9771018785   -1.6598268824   -0.0162714712
 H    2.1481836917   -0.3192554569   -0.0219277543
 C   -1.2549265355   -0.7524903368    0.0114870534
 O   -2.2363853202   -0.0015495271    0.0251643627
 O   -1.0623065555   -1.9732484468    0.0039515725
 H    0.7473257112    2.0333674704    0.0037700239
 H   -0.9891584095    1.6424551566    0.0194563911