18

 N    0.9494586784    0.0023077468    0.3834928107
 C   -0.1611770399    0.3351474457   -0.1386600521
 N   -1.3489613050   -0.1232504227    0.3968274747
 C   -2.5943570079    0.1759222435   -0.1580926667
 O   -2.7217588554    0.8464406890   -1.1621803061
 N   -3.6463010921   -0.3824819394    0.5325272882
 C   -4.9964166625   -0.0442693668    0.1885175065
 C   -5.6267774330   -0.7199754534   -0.9967419787
 C   -6.0492268286   -1.0999976484    0.3997839536
 H    1.7187668796    0.4271495646   -0.1301061929
 H   -0.3277834676    0.9745516760   -1.0076614553
 H   -1.2627641399   -0.7470913479    1.1862533997
 H   -3.4828082353   -0.6845927093    1.4811457927
 H   -5.2781419947    0.9904298148    0.3696239024
 H   -6.3024735813   -0.1325598365   -1.6067874091
 H   -5.0106620414   -1.4210705123   -1.5458664804
 H   -5.7212992367   -2.0622391697    0.7778063751
 H   -7.0198622065   -0.7806172342    0.7610869178