13

 O    0.1297898499    1.4041518585   -0.2090803088
 C    0.0703366292    0.0131914044    0.0144297171
 C   -1.3893791303   -0.5124642549    0.0457466402
 C   -2.1117726344   -0.0707566008   -1.2340357815
 O   -3.0583447231    0.6650918708   -1.2493020512
 C   -1.4163614029   -1.9644450462    0.1509073861
 C   -1.4148493832   -3.1657947941    0.1940825109
 H   -0.2907764037    1.8542788397    0.5311573184
 H    0.6032731199   -0.4539976166   -0.8193799177
 H    0.5755295224   -0.2909083731    0.9414319766
 H   -1.9250346403   -0.0551848316    0.8870339284
 H   -1.6747659336   -0.4970095541   -2.1635250321
 H   -1.4263027497   -4.2265500121    0.2487173136