19

 C    0.1054830938    1.4836774919    0.0078265478
 C    0.0093431027   -0.0177698663    0.0930804701
 N   -0.0558120719   -0.6624993242    1.1948853071
 O   -0.0262568283    0.2037616272    2.3036714975
 C    0.0010258956   -0.8129047340   -1.1767022444
 C    1.3299502463   -0.9086944368   -2.0016112990
 C    0.9559464752   -2.3777734125   -2.3354042584
 C   -0.0386756439   -2.3621026303   -1.1438377476
 H    0.9601981484    1.8471418284    0.5863345383
 H    0.2056710584    1.8163204125   -1.0273222510
 H   -0.7847620613    1.9476591134    0.4456240089
 H   -0.0835663979   -0.4131219874    3.0405204348
 H   -0.7910587685   -0.4213554765   -1.8282933310
 H    1.4673380198   -0.2102527933   -2.8305055095
 H    2.2023310959   -0.8535814809   -1.3439798843
 H    0.4404695459   -2.4545598838   -3.2972452387
 H    1.7600849307   -3.1165851374   -2.3144021122
 H    0.4110511255   -2.7396482547   -0.2237922572
 H   -1.0110228764   -2.8403949553   -1.2798636312