22

 C   -0.0209144583    1.5242399471    0.0270708607
 C    0.0508590195   -0.0071754803    0.0344422709
 C    0.6401494397   -0.5703442690   -1.2645318455
 N    0.7761502765   -0.5098520662    1.2186387769
 C    2.1165476834   -0.0090285929    1.4851525211
 C    0.1362681688   -1.3469862992    2.0770008666
 O   -1.0082425083   -1.7550947295    1.9009268066
 C    0.8752786150   -1.8153242544    3.3412263089
 O    0.0266308745   -2.6182878490    4.1033493987
 H    0.9655171388    1.9833031160   -0.0988220768
 H   -0.6465239533    1.8601041170   -0.8050819793
 H   -0.4599229557    1.9014130335    0.9553295804
 H   -0.9589642557   -0.4029839201    0.1514921798
 H    1.6640607423   -0.2224919054   -1.4410004337
 H    0.6465803470   -1.6634464351   -1.2445870234
 H    0.0356694208   -0.2477781710   -2.1178472326
 H    2.1121040968    0.8991634828    2.1013602146
 H    2.7238545376   -0.7639431187    1.9868288401
 H    2.6115065651    0.2265890034    0.5408154068
 H    1.7830983939   -2.3687121475    3.0480237036
 H    1.2117072491   -0.9389608246    3.9171935739
 H   -0.7882929874   -2.6692662271    3.5721394917