18

 C   -0.0031040755   -1.1848967231    0.0594372296
 C   -0.0093229520    0.0177518424    0.0393921401
 C    0.0037848763    1.4551552369   -0.0173840638
 C   -0.4271279348    2.1322868211   -1.3596814523
 C    0.8926143697    2.9686175503   -1.3628422045
 C    1.3134784400    2.3047696926   -0.0226004835
 C    0.8142623218    2.9350041484    1.2835529890
 C   -0.5245287701    3.5382968575    1.1763211484
 N   -0.4433504398    2.0713598617    1.3184197226
 H   -0.0046268928   -2.2463185418    0.0878843718
 H   -0.4860977782    1.4071196018   -2.1726766189
 H   -1.3690708872    2.6846045189   -1.3249496761
 H    1.5558923830    2.7161809212   -2.1925005982
 H    0.7774399225    4.0549902686   -1.3334294315
 H    2.2907472628    1.8293195551    0.0353375631
 H    1.4291002530    3.0537487484    2.1703999237
 H   -0.9307863638    4.0003751224    2.0715430069
 H   -0.8719354249    3.9936075275    0.2552114436