21

 C    0.1406523657    1.3248069769   -0.2269874942
 O    0.0604721237   -0.0487017980    0.0640772923
 C   -1.2521048807   -0.5568727801   -0.0487803642
 C   -1.2157360156   -2.0322756308    0.3429096922
 C   -2.5406946689   -2.7437128079    0.1489947416
 C   -2.9715290955   -3.1763714192   -1.2515477095
 C   -2.5496710524   -4.2139795792   -0.2705146364
 C   -3.6501897478   -2.3699692199    1.0601976108
 O   -3.5785144373   -1.5523478304    1.9454104300
 H    1.1852280941    1.6248611775   -0.1114900078
 H   -0.1791457118    1.5447790138   -1.2587042987
 H   -0.4797901439    1.9256271588    0.4567334146
 H   -1.9410474319   -0.0065532751    0.6082609410
 H   -1.6186367151   -0.4429644282   -1.0845430560
 H   -0.4425486763   -2.5264170279   -0.2554080680
 H   -0.9111195160   -2.1078325079    1.3917767769
 H   -4.0237129951   -3.1035472757   -1.5067112246
 H   -2.2955108182   -2.9147543253   -2.0577551868
 H   -1.5775378723   -4.6795578403   -0.3838373532
 H   -3.3100442148   -4.8586551056    0.1577145029
 H   -4.5992353196   -2.9267919954    0.8704124372