15

 O    0.0133217910   -0.0015752692    0.0037385025
 C   -0.0558396813    1.1933795138    0.0111597433
 C   -1.2909311440    2.0767019970    0.0332082220
 C   -0.7227983497    3.4855879118    0.0324648266
 C   -1.3086888654    4.6410083319   -0.7133545551
 C   -1.2876813883    4.6333517735    0.8057902539
 O    0.7101386239    3.4110631844    0.0122921383
 C    1.1678464602    2.1379987203   -0.0008585719
 O    2.3232813975    1.8397310660   -0.0185266407
 H   -1.9121112139    1.8638210580   -0.8422772013
 H   -1.8870649153    1.8546892815    0.9237120346
 H   -0.6135435471    5.3031585174   -1.2163196515
 H   -2.2537900140    4.4908530059   -1.2241928739
 H   -2.2183235334    4.4779050706    1.3410112643
 H   -0.5788223702    5.2905069572    1.2960050088