23

 C   -0.3711704742    1.7115728907    0.2080869429
 C   -0.1134760621    0.1964744995    0.0665342383
 C    0.8693925162   -0.3754863166    1.1228293701
 C    2.3585642852    0.0088233953    1.0111835896
 C    3.1470638310   -0.7638467744    2.0814896333
 C    2.9403196640   -0.2771387349   -0.3816316269
 O    2.4427610596    1.4132616438    1.2931323777
 C   -1.3767144482   -0.5404332994    0.1384737824
 C   -2.4157015251   -1.1404432080    0.2214173574
 H    0.5618256088    2.2668386229    0.1143529453
 H   -1.0785331508    2.0485831949   -0.5546424874
 H   -0.8016190872    1.9322892772    1.1896764369
 H    0.3091267744    0.0147113783   -0.9304665430
 H    0.5190507132   -0.0808346886    2.1185134578
 H    0.8101107081   -1.4678058385    1.0802099618
 H    3.1082364427   -1.8441467536    1.9091102601
 H    4.2015396506   -0.4632454176    2.0705190133
 H    2.7443155252   -0.5545357401    3.0765081921
 H    2.4738146903    0.3539821562   -1.1419265133
 H    4.0172157115   -0.0711824186   -0.3924818492
 H    2.8020933559   -1.3252412966   -0.6662596451
 H    3.3706047613    1.6670541915    1.2423223353
 H   -3.3336595003   -1.6703480234    0.2812530107