18

 C    0.0076525688    1.5760535857    0.0293593124
 C    1.5797160395    1.5615657519    0.1159200841
 C    1.5298511428    0.0356691959   -0.0747315110
 N    0.7098678248   -0.5308701169    1.0178166510
 C    0.0410744079    0.0488541573   -0.1638885975
 C   -0.4539710000   -0.8729871423   -1.2645584522
 C    0.8574245236   -1.4411444238   -1.8310151030
 O    1.6833355998   -0.4520995858   -2.4509590455
 C    2.0421038165   -0.8863177308   -1.1278753990
 H   -0.5342178412    1.9289994093    0.9095976374
 H   -0.3509650944    2.1022699792   -0.8578516710
 H    2.0440145947    2.0717711116   -0.7293683642
 H    2.0283679594    1.9061112776    1.0499805127
 H    0.7080293225   -1.5456545006    0.9228531681
 H   -1.1199629990   -1.6698477568   -0.9117010658
 H   -0.9908801879   -0.3193469184   -2.0421498427
 H    0.8752141749   -2.4178504708   -2.3101607709
 H    2.9885173174   -1.4189846524   -1.0621489527