23

 C    0.0323744884    1.5319061136    0.0120742624
 C   -0.0278011726    0.0322862035    0.0655260507
 C    1.1279979244   -0.8535189563   -0.3286281161
 C    0.5820183521   -0.9565897982    1.0763791333
 C    1.4098791903   -0.7186150574    2.3061431750
 C   -0.6961893640   -1.7810614657    1.0180687988
 C   -0.8347339127   -3.2756431831    1.0616701978
 C   -1.3973449347   -2.4186451950    2.1780971754
 C   -1.3280024785   -0.7892555001    0.0195597577
 H    1.0297694528    1.9007793950    0.2741827061
 H   -0.1984648464    1.9036609119   -0.9942229561
 H   -0.6854824770    1.9881235675    0.7039462757
 H    0.9916951199   -1.6694619561   -1.0358358113
 H    2.0856148135   -0.3470956766   -0.4159843141
 H    2.1432495795    0.0774945091    2.1401532413
 H    0.7867594326   -0.4265079201    3.1590060280
 H    1.9687523789   -1.6175807343    2.5959824906
 H   -1.5345813250   -3.7459587245    0.3780421896
 H    0.0484749941   -3.8707823467    1.2727851640
 H   -0.8913263968   -2.4428785465    3.1383593110
 H   -2.4754332008   -2.3101389698    2.2492400096
 H   -2.1804446065   -0.2531551686    0.4491027318
 H   -1.6176472615   -1.1835417614   -0.9617554812