21

 C   -0.0770848151    1.5656595378   -0.0379718582
 C    0.1085007454    0.0477865947   -0.0031816265
 C    0.9294947099   -0.5477999053   -1.1745416654
 C    1.5597022131   -1.7892554229   -0.5772670408
 C    2.2150341639   -2.8285129442   -1.4296169722
 C    1.4513965750   -1.7860810710    0.7548559680
 C    0.7826302844   -0.5347373991    1.2855965637
 C    1.8412236269    0.3829473149    1.8772645999
 O    1.8464732888    0.7908416096    3.0102933831
 H    0.8812996479    2.0958849422   -0.0434168899
 H   -0.6229380982    1.8671886821   -0.9379340581
 H   -0.6454276880    1.9164552665    0.8294778965
 H   -0.8834124811   -0.4176290967   -0.0389192069
 H    0.3052164674   -0.7682425083   -2.0492005428
 H    1.7056769165    0.1491252489   -1.5248500797
 H    3.0309352176   -2.3945903428   -2.0218671780
 H    2.6267303518   -3.6448764279   -0.8304230149
 H    1.5041959517   -3.2544043631   -2.1490589848
 H    1.8485829321   -2.5517911132    1.4127813664
 H    0.0527336652   -0.7243968082    2.0790369375
 H    2.6637613449    0.6423784460    1.1700517830