21

 C    0.4870198955    1.5527499238    0.0108713893
 C    0.1532327761    0.0560358549    0.0332479453
 C    0.5726911786   -0.6084381769    1.3300615765
 C    0.7332787291   -2.0971425598    1.4936711069
 C    0.5237903927   -3.0723805947    0.3579462910
 N    1.8864145827   -1.1971540591    1.5389635312
 C    2.9432171906   -1.1630730351    0.6295289638
 N    3.6679507241   -2.3412506409    0.6096129878
 O    3.2378236356   -0.1980568470   -0.0491438124
 H    1.5682074228    1.6923037986    0.0691500528
 H    0.1250047516    2.0167722847   -0.9117224068
 H    0.0180312044    2.0758930101    0.8520308044
 H   -0.9301696772   -0.0864311671   -0.0781044866
 H    0.6308872553   -0.4316790324   -0.8194279718
 H    0.2201187992   -0.0722892771    2.2127357247
 H    0.4794367422   -2.5085802209    2.4712604375
 H    0.7467171769   -2.6320705569   -0.6155081233
 H    1.1627144607   -3.9533259122    0.4753315116
 H   -0.5173627095   -3.4121111562    0.3522069584
 H    3.6282128053   -2.9247762350    1.4304861680
 H    4.5783644032   -2.2515448809    0.1854150914