19

 O   -0.1264993773    1.5120527191    0.0224223018
 C    0.0374611324    0.1050268052   -0.0657097361
 C   -1.3495625312   -0.5171404182    0.0371958218
 C   -1.3385831370   -2.0613214739    0.0159340457
 C   -2.7688053921   -2.6136164103    0.2552272313
 C   -2.8191233423   -4.1213573493    0.3837370132
 O   -3.3764655628   -4.7041664750    1.2786931166
 C   -0.7732391444   -2.5808404152   -1.2305856689
 C   -0.3292830996   -2.9959540937   -2.2683836465
 H    0.7335495346    1.9231800826   -0.1027623824
 H    0.5082657635   -0.1883036075   -1.0149548752
 H    0.6759742804   -0.2746513826    0.7496878864
 H   -1.8128681228   -0.1819210658    0.9715214471
 H   -1.9699590571   -0.1424396132   -0.7842787810
 H   -0.7051242130   -2.4045225233    0.8467756963
 H   -3.1986987747   -2.1769424137    1.1605818845
 H   -3.3989208166   -2.3271131324   -0.5979877402
 H   -2.2965660659   -4.6748988929   -0.4266006425
 H    0.0729000657   -3.3682537098   -3.1782847120