10

 C    0.3759203615    1.4046942640    0.0664915749
 C    0.1342357169   -0.0783599300    0.0629144114
 O   -0.0890410668   -0.7622191818    1.0296683603
 C    0.1829313213   -0.7599885009   -1.3217127021
 O    0.3988998212   -0.1648708201   -2.3450075404
 C   -0.0575311919   -2.2134561907   -1.3009762684
 N   -0.2403381261   -3.3542084051   -1.3406623349
 H    1.3558315538    1.6256412760   -0.3694272479
 H   -0.3625098360    1.9060957136   -0.5678603272
 H    0.3196758060    1.7825079149    1.0870464342