17

 C   -0.6239660401    1.0955549334    0.0483328215
 N    0.3648909784    0.0236734751    0.1704490203
 C    0.8627131893   -0.5322129267   -1.0687211168
 C    2.3614490117   -0.8003232434   -0.9612592645
 O    3.0404476637   -0.4011540059   -0.0532348947
 C    0.1453553279   -1.8850891948   -1.3661728632
 O    0.1442799806   -2.6697067611   -0.2070991066
 C   -1.2247793297   -1.6488057693   -1.8790091402
 N   -2.2917553160   -1.4531173047   -2.2777778102
 H   -0.2649027757    1.9509195751   -0.5457069404
 H   -1.5364918107    0.7161869828   -0.4175488054
 H   -0.8813727826    1.4538639607    1.0481761977
 H    1.1644134191    0.3198085210    0.7227959699
 H    0.7321743921    0.1367370452   -1.9382837982
 H    2.7934412360   -1.3855271073   -1.8002600863
 H    0.6931879607   -2.4306666347   -2.1445872207
 H   -0.0140500745   -2.0270559255    0.5098240380