19

 C    0.2790965122    1.3396825113    0.1065527139
 O   -0.2171357954    0.0566212599   -0.2098714790
 C    0.4526175288   -0.5462508582   -1.2633123051
 C    1.7255088902   -1.4097168805   -0.9764055484
 O    0.8726253058   -2.3996588176   -0.2905170101
 C    0.1064307078   -2.0315774925   -1.5021548713
 C    1.4223794386   -2.2037070322   -2.2927310128
 O    1.5131036013   -1.6207326309   -3.5526854885
 C    2.8100201630   -1.6985317259   -4.1120333192
 H    1.3169774422    1.3005972238    0.4690046768
 H    0.2407612840    2.0152896061   -0.7621109491
 H   -0.3547697899    1.7442092913    0.8985282743
 H    0.5012948714    0.0938781873   -2.1529333509
 H    2.6739043441   -1.1519027243   -0.5049263135
 H   -0.8647006722   -2.5017119548   -1.6533969157
 H    1.8125057253   -3.2275604441   -2.2582797212
 H    2.7552569364   -1.2701962861   -5.1149909543
 H    3.5451267847   -1.1326966292   -3.5216081183
 H    3.1529449517   -2.7411044635   -4.1861483578