16

 O    0.0025608099    0.0173238409    0.1465090819
 C    0.0051742587    1.2143032662    0.0063535936
 C   -1.2479015996    2.0941519044   -0.1868139879
 N   -0.8078986635    3.3947006342   -0.7176218568
 C    0.6491655956    3.4670352746   -0.5587812644
 C    1.1371133463    3.3368687921    0.8487255948
 C    1.1931665564    2.1123520450   -0.0592431686
 C    1.3538844348    4.2629269133   -1.5162129435
 C    1.9217689021    4.9295295054   -2.3401995618
 H   -1.9526023064    1.5969877192   -0.8569616463
 H   -1.7533832297    2.2065696041    0.7815148533
 H   -1.0095438031    3.4406797259   -1.7100587296
 H    2.0941371256    3.7845267575    1.0857682138
 H    0.4040019500    3.3702081657    1.6478472706
 H    2.1530756544    1.7036403607   -0.3447809699
 H    2.4317645485    5.5206565510   -3.0602212594