15

 O   -0.0698268016   -0.0755845033   -0.2585315165
 C   -0.0341799919    1.0909562875   -0.0412274057
 C   -1.1551136597    2.1937872023    0.2587005669
 C    0.0246812242    2.9914874161    0.8509327921
 C    1.1007563155    4.1278417517    0.9309902196
 N    1.9472231219    2.8514807838    1.2147331639
 C    0.7574957097    2.4360403889    2.0960457041
 C    1.0605539209    2.2359452723    0.0569284587
 H   -1.5350369610    2.5917525716   -0.6878467665
 H   -1.9917028786    1.8931009205    0.8936730559
 H    1.3705461844    4.6390019836    0.0041660713
 H    1.0810195840    4.8103934624    1.7847916787
 H    0.6813744263    3.0028827326    3.0276453756
 H    0.7191796950    1.3590472011    2.2865433657
 H    1.3614295608    2.5897568088   -0.9348898538