17

 C    0.2619042741    1.5626788153   -0.0817212204
 N    1.3459653283    0.5778754211    0.1220254022
 C   -0.0318287103    0.1147770485   -0.0181804344
 C   -0.7335671126   -0.7218636121    1.0668624660
 C   -1.3455377685   -1.5921565149   -0.0562674432
 O   -2.6103300786   -1.0888225315   -0.5355519539
 C   -1.9784128384   -0.4024855008   -1.6407070196
 C   -0.5731806328   -0.7824662465   -1.1422269006
 H    0.0575311709    2.1982194809    0.7759025830
 H    0.1817726802    2.0630765007   -1.0443129692
 H    1.8538191076    0.4387443899   -0.7491745753
 H   -0.0182477045   -1.2561141583    1.6990378400
 H   -1.4699180794   -0.2119746981    1.6923325611
 H   -1.3406633342   -2.6792122601    0.0519480770
 H   -2.2571146811   -0.8572233673   -2.6001908866
 H   -2.2201811948    0.6671581766   -1.6651124453
 H    0.1401886141   -1.2026708034   -1.8523008606