14

 N   -0.0064935563    1.4316093710    0.1606100532
 C    0.0240971178    0.0401819572    0.0373627379
 C   -1.0304845223   -0.8263279230    0.0025852195
 O   -0.6108945362   -2.1736847544   -0.0270912556
 C    0.7197167006   -2.0752866428   -0.0244453662
 C    1.2105482385   -0.7882604100    0.0178474685
 C    2.6164318426   -0.9742930018    0.0206302144
 N    2.9341350590   -2.2661129049   -0.0195960744
 N    1.7440751911   -2.9465436528   -0.0473139707
 H    0.7218441052    1.8887494190   -0.3722552022
 H   -0.9039902426    1.8355256113   -0.0730865758
 H   -2.0978281558   -0.6889010815    0.0085080282
 H    3.4118572039   -0.2446916562    0.0528275368
 H    1.7465334845   -3.9504802411   -0.0758577436