16

 C   -0.0079927848    1.5151827056    0.1254889080
 C   -0.0045220236    0.0326707362   -0.0338531599
 N   -0.0570722813   -0.6305366773   -1.1624657252
 C   -0.0299128829   -1.9718184293   -0.8372070522
 C    0.0408177052   -2.1145581203    0.5241024653
 N    0.0928454512   -3.2231265619    1.3720873732
 C    0.0814371847   -4.5279074231    0.9539131650
 O    0.0254249179   -4.8885570984   -0.1985970139
 N    0.0568306710   -0.8321290204    1.0361571157
 H    0.9003049761    1.8791339088    0.6206422819
 H   -0.0621144601    1.9661122016   -0.8660504303
 H   -0.8667443797    1.8652834369    0.7108175020
 H   -0.0616164615   -2.7529822649   -1.5752167095
 H    0.1419209106   -3.0624857712    2.3660386794
 H    0.1306574669   -5.2218859730    1.8147142858
 H    0.1055076303   -0.5732305494    2.0074259847