17

 C   -0.0869809059    1.5195755639   -0.0165558690
 C   -0.0606747938   -0.0108728683   -0.0291863675
 C   -1.3651789263   -0.5386040699   -0.4023540340
 C   -2.4668369171   -0.9127346621   -0.7165700518
 C    1.2383455263   -0.6870993487   -0.6129128008
 O    1.9857445920   -0.1642619073    0.5433908423
 C    0.7493282713   -0.7098557882    1.1287278670
 C    1.0014259293   -1.9775930249    0.2433245755
 O    0.0740031589   -2.9647337429   -0.0299772759
 H    0.8938522715    1.9041148540    0.2637301333
 H   -0.3576172282    1.9035618169   -1.0046354722
 H   -0.8347115876    1.8813185903    0.6955091426
 H   -3.4369693522   -1.2463616506   -0.9933635107
 H    1.6762919243   -0.5535393371   -1.6030465053
 H    0.6070708625   -0.6032918822    2.2050213872
 H    1.9455957528   -2.4573714053    0.5021593447
 H   -0.7721319880   -2.5586026975   -0.2622255154