17

 O    0.0082792485   -0.0590719497    0.3696423480
 C   -0.0106376353    1.1353553559    0.1984891907
 N   -1.1813950887    1.9044017874    0.0580332985
 C   -2.1525018716    1.9485292696    1.1390074427
 C   -1.2611810661    3.1223002883    0.8629730736
 C   -0.0201262988    3.3843079064    1.7113857415
 C    1.2030299631    3.1563001493    0.8278867726
 C    2.1338851247    2.0076704912    1.0779765801
 N    1.1339882151    1.9363481140    0.0250665394
 H   -3.1935239488    1.9711530837    0.8304630386
 H   -1.9468076975    1.3458579674    2.0203922632
 H   -1.6782416193    3.9801219916    0.3397364528
 H   -0.0282038787    4.3958050642    2.1242538732
 H    0.0015274327    2.6865605761    2.5560439952
 H    1.5812059729    4.0250941311    0.2933270487
 H    3.1646820048    2.0588792730    0.7399323801
 H    1.9700657281    1.3999006505    1.9646225213