15

 N    0.2876043756    1.3824760718   -0.1152107915
 C    0.0908051645    0.0180240092   -0.0730326755
 N   -1.0669659753   -0.6077811904    0.0546811306
 C   -0.6923375198   -1.9169491676    0.1162418642
 N    0.5997643355   -2.1508124251    0.0293391623
 N    1.1109724249   -0.8779893586   -0.0887465652
 C    2.5352681834   -0.6848172233   -0.0581835123
 C    3.1221501016    0.0872535331   -1.2219175990
 O    2.4888827533    0.7344219798   -2.0163154323
 H    0.9030537734    1.6637066943   -0.8708060403
 H   -0.5999160270    1.8659301041   -0.1561566312
 H   -1.4035362172   -2.7235057861    0.2190030559
 H    2.8494354050   -0.1535447021    0.8558758529
 H    2.9924460300   -1.6773745286   -0.0146252470
 H    4.2320290519    0.0413088493   -1.2668140517