17

 C    0.7056333046    0.4538055628    0.6780834649
 C   -0.1826165562    0.0070482838   -0.4737396396
 C   -1.6440447922   -0.1514057287   -0.2689925764
 N   -1.1203170326    0.9503538346   -1.0926715210
 C    1.7359035380    1.4552512751    0.2610936879
 C    3.0744720060    1.3312495010    0.0926736455
 O    3.5717871492    2.5371567942   -0.3242609579
 C    2.4866012721    3.3376234713   -0.3858954087
 N    1.3761166966    2.7685394450   -0.0539186209
 H    0.0810540380    0.9026643213    1.4602036117
 H    1.1964944961   -0.4201422643    1.1211690634
 H    0.3146416977   -0.6396919246   -1.1950446208
 H   -2.1979619452   -0.9094548485   -0.8158740276
 H   -2.0410229735    0.0707713595    0.7191481155
 H   -1.1147159327    1.8259586854   -0.5743986795
 H    3.7868333945    0.5336321097    0.2130583216
 H    2.6516959998    4.3573300624   -0.6966571881