20

 C    0.1328185273    1.5463258158   -0.0796148589
 C   -0.0032596563    0.0381936156    0.0719781186
 O    0.4010727792   -0.5401251756   -1.1911546647
 C    0.8422411647   -1.8211896354   -1.1963806800
 N    1.2770872169   -2.5198507373   -0.2359603232
 C    1.3614051597   -1.9151535902    1.0670157198
 C    1.3118659075   -2.9233324476    2.1907353174
 C    2.2669266616   -0.7008398669    1.1865434796
 C    0.7676407666   -0.5382206634    1.2400611761
 H    1.1827574180    1.8248376612   -0.2062324853
 H   -0.4299608413    1.8966887419   -0.9490756872
 H   -0.2538167218    2.0489157289    0.8122808381
 H   -1.0634274089   -0.2213595176    0.2061429873
 H    0.8103154452   -2.2235505437   -2.2071888738
 H    2.1123524598   -3.6605419627    2.0738353867
 H    1.4265490016   -2.4355976692    3.1636097424
 H    0.3585790651   -3.4623359879    2.1875440245
 H    2.8272137571   -0.5680800587    2.1062015078
 H    2.7901312136   -0.3868685990    0.2892978756
 H    0.3282849042   -0.2982601081    2.2049437890