18

 C    0.0002957883    1.4832527424    0.0469363503
 C    0.0406677867   -0.0090300105   -0.0169086161
 C    0.0136366166   -0.7951828298   -1.0956091626
 C    0.0122279655   -2.2635382653   -0.7541083984
 C    0.4817779698   -2.2831734623    0.7205876795
 O    1.8710291814   -2.4947834265    0.8363176233
 C    0.0477515836   -0.8719650144    1.2492954583
 C    0.9020280084   -0.3595493864    2.3190318556
 N    1.5659083964    0.0851938629    3.1539553045
 H    0.8542913962    1.8799570869    0.6076604823
 H    0.0056423013    1.9221669817   -0.9537643070
 H   -0.9008064522    1.8317620348    0.5676710305
 H   -0.0459467631   -0.4265071298   -2.1140300548
 H   -0.9935078736   -2.6935952417   -0.8601677822
 H    0.6833585619   -2.8709904958   -1.3699677468
 H    0.0205233551   -3.0821765754    1.3044149816
 H    2.3250106706   -1.8108188838    0.3294928109
 H   -0.9746675329   -0.9307493872    1.6513695512