15

 N    0.0931878289    1.3795706663    0.0209421651
 C    0.0812213560    0.1128358264    0.0769886310
 C    1.1952942791   -0.9769827942   -0.0205193137
 N    0.5997257072   -2.2782733759    0.3866213120
 C   -0.6315098323   -1.9816762855    0.5067662933
 C   -2.0012716772   -2.3925766330    1.0320825015
 C   -2.3572704550   -0.8602816175    0.9033958022
 N   -1.0394627467   -0.6878519487    0.2534286252
 H    1.0446780253    1.7227283461   -0.1075961264
 H    1.5752171866   -1.0337317601   -1.0476776966
 H    2.0414236757   -0.7299624164    0.6288958781
 H   -2.5724746135   -3.0451734897    0.3696680141
 H   -2.0065371361   -2.8015959834    2.0429205854
 H   -3.2033289346   -0.6080983449    0.2615739487
 H   -2.4420273434   -0.3341555494    1.8579889003