20

 C   -0.0130888304    1.6023710255    0.0026701655
 C    0.0258783734    0.0675750957    0.0542107731
 C    0.6202850169   -0.5165463059   -1.2367363630
 C    0.9229966481   -2.0264380368   -1.1084458965
 C    1.9415943208   -2.2743659398    0.0302408879
 C    1.6405446001   -1.4453802406    1.2508124835
 C    0.7858127287   -0.4238681336    1.2631563152
 C   -0.3115705863   -2.7886204136   -0.8882150424
 N   -1.2875087401   -3.3865907046   -0.7252733867
 H    0.9972123873    2.0194470343   -0.0740464886
 H   -0.5908607108    1.9519142296   -0.8591352405
 H   -0.4764975141    2.0126262402    0.9055765032
 H   -1.0133199627   -0.2843917436    0.1419076624
 H   -0.0510525355   -0.3365549320   -2.0819827454
 H    1.5679954919   -0.0119692799   -1.4616354555
 H    1.3488477468   -2.3881400211   -2.0513580071
 H    1.9589633655   -3.3386008620    0.2898122688
 H    2.9468062836   -2.0413841868   -0.3474117158
 H    2.1604950700   -1.7260344373    2.1632173587
 H    0.6048785568    0.1097499223    2.1939708732