13

 N    0.0948173774    1.4106591383    0.0634927094
 C    0.0006758335    0.0223214523    0.0105963020
 C   -1.1264016675   -0.7848756738    0.0272079813
 N   -2.4529060021   -0.2630750370    0.0128414745
 C   -0.6102003513   -2.1044696232    0.0397733094
 N    0.7156398530   -2.1284628199    0.0246522296
 N    1.0668618373   -0.8117235048    0.0161981291
 H    0.6989081430    1.8047849748   -0.6488039484
 H   -0.8378737871    1.8006380196   -0.0301045183
 H   -2.9449729321   -0.4623176647    0.8785709661
 H   -3.0045665007   -0.6680761233   -0.7366772791
 H   -1.1612580209   -3.0352318935    0.0464385493
 H    2.0403277373   -0.5649991548    0.0585680451