20

 C   -0.0527484350    1.5834907651   -0.2203443766
 C    0.0569074500    0.0774771375    0.0473131468
 C   -1.3092338401   -0.5724933288    0.1264925895
 O   -2.0498627893   -0.5085535679   -1.1134462888
 C   -2.5134628653   -1.8585924251   -0.9605372149
 C   -1.4690740344   -2.1356701126    0.1604846411
 C   -0.2622494435   -2.9529148708   -0.3145948478
 C   -2.0014574504   -2.6676857551    1.4082960375
 N   -2.4228541708   -3.0826152808    2.4019699217
 H    0.9385462411    2.0386704040   -0.2971197091
 H   -0.5881069785    1.7691931110   -1.1554677986
 H   -0.5945518961    2.0907198682    0.5849669693
 H    0.6475069274   -0.3962553785   -0.7432316454
 H    0.5789111098   -0.1027297871    0.9958578432
 H   -1.8923667278   -0.1129459527    0.9384371276
 H   -3.5554856856   -1.9068539523   -0.6217119054
 H   -2.3938839509   -2.4477228642   -1.8757676792
 H    0.0911840143   -2.5760442098   -1.2772330710
 H    0.5599051242   -2.9055665285    0.4041733984
 H   -0.5446464691   -4.0020666915   -0.4393806582