15

 N    0.1396522089    1.3763672260   -0.1583363774
 C   -0.0586284555    0.0169263759    0.0391495491
 C   -1.1914847446   -0.7000995155   -0.1016803039
 N   -1.2107637594   -2.0790913753   -0.0045787979
 C   -0.0981909414   -2.6846133291    0.2565992041
 N   -0.0066004548   -4.0478438981    0.3067264561
 C    1.1700016596   -1.9687257293    0.4998218177
 N    2.2336913491   -2.5728630416    0.8444741562
 O    1.1194985161   -0.6074044040    0.3418686815
 H    0.7805778785    1.7862063991    0.5106920665
 H   -0.7256347794    1.8967940386   -0.2011402228
 H   -2.1329252067   -0.2089948951   -0.3151455308
 H   -0.8748066305   -4.5494921036    0.4000876728
 H    0.8082251994   -4.4147626223    0.7735962258
 H    3.0072661810   -1.9220364456    0.9786439629