19

 O   -0.9076937685    1.0950866395    0.2094460822
 C    0.2342184214    0.7620442093    0.0321217995
 C    1.4205803382    1.7213449751    0.0291629812
 C    1.2527005779    2.8517950328    1.0506161658
 C    2.1023572274    4.0996199989    0.7458111480
 O    3.2975897299    3.8502012789    0.0227025146
 C    4.1294164061    2.8212889463    0.5282756359
 C    3.8004340287    1.4755598888   -0.1173118137
 O    2.5617658408    0.9190335085    0.2828291541
 H    0.5260143711   -0.2915739102   -0.1677833808
 H    1.4713810823    2.1409308815   -0.9924560382
 H    0.1950977058    3.1320837456    1.0891290582
 H    1.5079080182    2.4326522569    2.0295020941
 H    1.5415246830    4.7910731105    0.1093267603
 H    2.3270651032    4.6267818504    1.6861073255
 H    5.1603316435    3.0881758159    0.2650534428
 H    4.0704167596    2.7506404574    1.6240638910
 H    3.8240237793    1.6086277721   -1.2107082478
 H    4.5597808321    0.7353662120    0.1571793874