19

 C   -0.0443092518    1.4025477861    0.1010568225
 C    0.0119278287   -0.0852734644    0.0384389473
 C   -0.0297361327   -0.9293791946   -1.0087486971
 C    0.0270873433   -2.3063804665   -0.3772330613
 C   -1.0146012365   -2.0883255800    0.8093178567
 O   -1.2946913280   -3.1439368590    1.6659005643
 C    0.0945179230   -1.0258002820    1.2351974219
 C    1.1489767525   -2.0413748287    0.6942091441
 O    1.4119255744   -3.0880484942    1.6209536124
 H    0.8490720435    1.8209114613    0.5817628849
 H   -0.1250486015    1.8370980506   -0.8997388434
 H   -0.9040408721    1.7462514049    0.6902095150
 H   -0.1142895131   -0.7023703080   -2.0629606061
 H    0.0174028430   -3.1969041967   -1.0069150172
 H   -1.9683566521   -1.6545609533    0.4995787473
 H   -0.4420874849   -3.4963188312    1.9603924548
 H    0.1559353808   -0.6151645540    2.2432942446
 H    2.0853350618   -1.6147719140    0.3141647805
 H    1.9283658519   -3.7647826464    1.1702751288