18

 C    0.4031769476    1.0277129482    0.4708100664
 O   -0.3319576413    0.1750164283   -0.3843863474
 C    0.4554642118   -0.4303417783   -1.3600371703
 C    1.2388767345   -1.6747990621   -1.0109346588
 C   -0.0042773771   -1.7609796416   -1.8734386682
 C   -1.2743585626   -2.3899660313   -1.3169232568
 C   -1.2671504009   -3.8472325117   -1.4004124823
 C   -1.2486244229   -5.0463306795   -1.4822525739
 H    1.1901453536    0.4811989440    1.0096028845
 H    0.8737413740    1.8508003748   -0.0878332129
 H   -0.3025951160    1.4473337786    1.1913392461
 H    0.8970309643    0.2698215162   -2.0716393708
 H    2.2104653705   -1.8369212952   -1.4642342722
 H    1.1468011587   -2.0355628619    0.0084941949
 H    0.1543990156   -1.9447048703   -2.9317117280
 H   -1.4055926817   -2.0718626728   -0.2776186850
 H   -2.1439909933   -1.9983627902   -1.8607533519
 H   -1.2395541847   -6.1059078953   -1.5466477736