23

 C   -0.3817126902    1.4731376700   -0.0947168105
 C   -0.0458624757    0.0017127348    0.0164983000
 C    1.3045591741   -0.6012419974   -0.3239529259
 C    2.5165237075    0.2599748731   -0.6786993819
 C    3.4025509620    0.5689072759    0.5385398108
 C    2.5701764486    1.1601175621    1.6811020917
 C    1.5158424071    0.1616027430    2.1915237421
 O    0.5280040254    0.7998911841    3.0029211185
 C    0.7944574216   -0.6166230674    1.1094828366
 H    0.4915223005    2.1215429440   -0.0048672254
 H   -0.8434066080    1.6847614822   -1.0659636828
 H   -1.0849471988    1.7676678515    0.6896529040
 H   -0.8857534810   -0.6285930795   -0.2676918556
 H    1.2699945357   -1.5550626276   -0.8416954420
 H    3.1078075324   -0.2571413381   -1.4410385553
 H    2.1993636157    1.2056243822   -1.1360267220
 H    3.8879248589   -0.3545975108    0.8822958721
 H    4.2059319443    1.2586152005    0.2564843273
 H    3.2177209907    1.4450717095    2.5206063041
 H    2.0711822755    2.0779062775    1.3509052187
 H    2.0552483037   -0.5869638899    2.7973807312
 H    0.9855999305    1.2446159338    3.7246152424
 H    0.4225504894   -1.5705592834    1.4723600019