19

 O   -0.1626006904    1.4866392948   -0.1162090392
 C    0.0013953041    0.0826735099    0.0248309529
 C   -1.4246559527   -0.4892031908    0.0707136778
 N   -1.5575097299   -1.9277636380    0.2095640713
 C   -1.0499997183   -2.7544908211   -0.8772196078
 C    0.4698458847   -2.9734465974   -0.9377690824
 O    0.9586656400   -4.0886329874   -0.9173207931
 N    1.2554051420   -1.8519024328   -0.9844527838
 C    0.8308654914   -0.4716562518   -1.1475029421
 H    0.6963894916    1.9093888545   -0.0179866475
 H    0.5220023572   -0.1685325408    0.9637982881
 H   -1.9539376231   -0.0057973771    0.8983309505
 H   -1.9358226409   -0.1798850374   -0.8508646694
 H   -1.2013798938   -2.2494202793    1.1023945981
 H   -1.4781751536   -3.7575434698   -0.8046403310
 H   -1.3942411810   -2.3186223459   -1.8247144157
 H    2.2424437493   -2.0565092741   -1.0242389978
 H    0.2672895435   -0.3253061296   -2.0797844347
 H    1.7411193798    0.1295819241   -1.2393003840