12

 O    0.0697079648    1.3300303941   -0.0712180119
 C    0.0613813021   -0.0076040354   -0.0584897669
 C   -0.0146476317   -0.7261500794   -1.2647036309
 N   -0.0222515715   -2.0397634346   -1.2421139952
 C    0.0460805820   -2.6115191704   -0.0176649472
 N    0.1191005274   -1.9511885384    1.1444790973
 N    0.1262200148   -0.6251120287    1.1122209293
 C    0.0403860918   -4.0377540674    0.0507412619
 C    0.0352890228   -5.2385161127    0.1031834100
 H    0.1261637000    1.6187351808    0.8528276564
 H   -0.0676703974   -0.2152080020   -2.2224964031
 H    0.0308918049   -6.2997427159    0.1513514003