17

 C    0.0583619779    1.5822549541   -0.1542608922
 C   -0.3928512573    0.1636890254   -0.4932522256
 C   -1.0980183643   -0.5329779427    0.6533586432
 O   -1.3809470602    0.0153283948    1.6881734445
 C   -1.4128710324   -2.0501014497    0.4796688627
 C   -2.3973006339   -2.5619103330    1.5432546158
 C   -1.8630561814   -2.3617266186   -0.8769578367
 N   -2.2326464231   -2.5994368456   -1.9463791523
 H    0.5465859072    2.0432963915   -1.0166700737
 H   -0.7929424417    2.2026002777    0.1355322815
 H    0.7619854059    1.5819231221    0.6824483932
 H   -1.0790332167    0.1572392943   -1.3505852179
 H    0.4500563609   -0.4657761347   -0.8103742726
 H   -0.4432623233   -2.5538484647    0.6129986236
 H   -2.0263585794   -2.2960700419    2.5336556114
 H   -3.3785699958   -2.1004010500    1.4129996292
 H   -2.5073286424   -3.6459249192    1.4717283158