17

 O   -0.0229552242    1.3987636528    0.0420707999
 C    0.0249121985    0.0050324429    0.0207211907
 C    0.9254849077   -0.4908269244    1.1206647266
 O    1.4363915461    0.2844658526    1.8996496940
 C   -1.4037123041   -0.6526105630   -0.2152463828
 C   -1.2279854957   -0.2104134589   -1.7045143046
 C    0.2290289136   -0.6257778461   -1.4092206552
 O    0.1523447855   -2.0343776515   -1.1552706518
 C   -1.0464400725   -2.1320410544   -0.3403758167
 H    0.5285314315    1.6566619135    0.7991873843
 H    1.1254998670   -1.5736863530    1.1704850077
 H   -2.2560318437   -0.3637213495    0.3971875133
 H   -1.7570979335   -0.7818232530   -2.4706803497
 H   -1.3487559179    0.8615652468   -1.8414981042
 H    1.0864116685   -0.3989456618   -2.0401295564
 H   -0.8157486686   -2.6332667516    0.6053192144
 H   -1.8130852882   -2.7136350114   -0.8656946896