16

 O    0.0444585134    0.0874133392    0.6166440294
 C   -0.0098913245    1.1530296961    0.0683476955
 C   -1.3281122372    1.9007092613   -0.1384231501
 N   -1.3315900456    3.0440519807   -1.0450166492
 C   -0.1029891211    3.8285481049   -0.8876298358
 C    1.1378794257    2.9532750227   -1.1182012382
 O    1.1384218595    1.7662296291   -0.3117343694
 C   -0.0778962319    4.9713807976   -1.7938148753
 C   -0.0218119238    5.8860471379   -2.5701809063
 H   -2.0733895817    1.1691342626   -0.4568397600
 H   -1.6352318112    2.2339389053    0.8631283723
 H   -1.4026135130    2.7338747936   -2.0096541074
 H   -0.0844579182    4.1901849925    0.1508011609
 H    1.1855159243    2.6619899280   -2.1748463777
 H    2.0583546185    3.4865585661   -0.8667879608
 H    0.0136375366    6.7071170124   -3.2434082278