19

 O    0.0397282154    1.3971448785    0.0364095523
 C    0.0007044252   -0.0163412984    0.0216287459
 C   -1.4064092772   -0.6047012170   -0.2053131808
 C   -1.5919330462   -0.2722092317   -1.6960975405
 O   -0.2611933390   -0.3034916299   -2.2616772731
 C    0.6662229483   -0.6083876438   -1.2264128037
 O    0.8922665925   -1.9890115753   -1.0744820821
 C   -0.3085529656   -2.7523631754   -0.9532834040
 C   -1.3154199229   -2.1269830636    0.0257890747
 H   -0.0577309997    1.7036574426   -0.8723720387
 H    0.4676392349   -0.3609443588    0.9458922157
 H   -2.1636575242   -0.1367746401    0.4268532184
 H   -2.2244613982   -0.9925507351   -2.2257451357
 H   -2.0166673082    0.7277639585   -1.8424604330
 H    1.6283497532   -0.1638842920   -1.4889083888
 H   -0.7674880431   -2.8610295232   -1.9452326151
 H    0.0025328058   -3.7459721307   -0.6216011851
 H   -1.0048560839   -2.3165470084    1.0594010231
 H   -2.2927092371   -2.6038712363   -0.1115698193