17

 O    0.3526398211    1.3739562835   -0.1476110051
 C    0.1108223553    0.0175472223   -0.1063480740
 C    0.4147657452   -0.7778797336   -1.3899771747
 C   -0.7541592941   -1.7511122570   -1.1033049568
 C   -0.4241410837   -2.7952623634   -0.0074665943
 C   -0.6596355919   -1.7285016561    1.0955391895
 C   -1.2957919353   -0.7792169177    0.0008944507
 C    0.4462090368   -0.6841171305    1.2047646581
 O    1.0640507965   -0.2453531633    2.1410184652
 H    0.6324403079    1.6390828754    0.7401238033
 H    0.1746546102   -0.1340419018   -2.2413321413
 H    1.4231618954   -1.1820712009   -1.5222489403
 H   -1.3371279073   -2.0872348104   -1.9598379716
 H   -1.2012393832   -3.5618809486    0.0497696026
 H    0.5526865388   -3.2875867120   -0.0430322911
 H   -1.1275929995   -2.0264990872    2.0329514028
 H   -2.2709095123   -0.3078801787    0.0720809570