19

 C   -0.1541757406    1.5470156733   -0.0355317114
 N   -0.2049926859    0.1710486049    0.4298387283
 C   -1.3986236656   -0.5775204319    0.0790891252
 C   -1.7466015569   -0.6707461575   -1.4289136319
 C   -1.2261307981   -1.9912066023    0.6039733963
 O   -0.1776320676   -2.5540697519    0.7624980056
 O   -2.4511398398   -2.5696098732    0.8250419531
 C   -2.4828983603   -3.8747801768    1.2542629730
 N   -3.6082398319   -4.4067566376    1.4306129971
 H    0.7562257422    2.0165127004    0.3481442556
 H   -0.1648675408    1.6788031285   -1.1303568849
 H   -1.0069335324    2.1024926605    0.3725613013
 H    0.6178520421   -0.3528615551    0.1540419566
 H   -2.2567853023   -0.1327970588    0.5976495819
 H   -2.6489226250   -1.2691017644   -1.5823110597
 H   -1.9280145655    0.3254476818   -1.8389985084
 H   -0.9221691523   -1.1292278347   -1.9851039396
 H   -1.4888482289   -4.2989585459    1.3957448930
 H   -3.4886064903   -5.3667102894    1.7514194088