17

 C    0.0203381051    1.4392330293   -0.1903630831
 C    0.0494829034   -0.0594151847    0.0211095700
 O    1.0726547953   -0.6899601422    0.1784309067
 C   -1.2470906253   -0.7163218139    0.0255838200
 C   -2.3204870167   -1.2708380219    0.0153757157
 C   -3.5931454273   -1.9777245194    0.0768452993
 O   -3.4509977825   -3.3883585389   -0.1128828790
 C   -4.3251774820   -1.7173245789    1.4119429161
 O   -5.5239147395   -2.4488955324    1.4486275745
 H    1.0389164948    1.8293103056   -0.1751496310
 H   -0.4585004247    1.6745229300   -1.1470012945
 H   -0.5773359904    1.9183844002    0.5926618773
 H   -4.2493927359   -1.6465215042   -0.7364049124
 H   -2.6692378294   -3.6739216029    0.3748162538
 H   -3.6482511356   -1.9812189805    2.2416983270
 H   -4.5744721315   -0.6559446900    1.5040056906
 H   -5.2959928480   -3.3408171654    1.1544845091