21

 C   -0.0402268386    1.5480993208    0.1595380642
 C    1.2923309704    0.8476929543    0.0148954346
 C    2.2702086767    0.8490055869    1.1763108901
 C    3.0455868752   -0.4613499458    1.3605253281
 O    2.2318434898   -1.6268222218    1.4203288817
 C    1.3076707256   -1.6674736656    2.4651733591
 O    0.2218223769   -0.7837904448    2.3176927684
 C   -0.4573310718   -0.9171470523    1.0745522361
 C    0.0039656397    0.0503424673   -0.0057206348
 H   -0.2743979336    1.9305802562    1.1487948557
 H   -0.4206531598    2.1556331291   -0.6547011142
 H    1.7718988966    0.9368135244   -0.9575508931
 H    3.0083787783    1.6469800884    1.0185266566
 H    1.7446976407    1.0898592310    2.1025703676
 H    3.7155313925   -0.6345868157    0.5116871760
 H    3.6671610007   -0.3949497444    2.2683462354
 H    0.9530759826   -2.7080946447    2.4890644431
 H    1.7659629217   -1.4012473479    3.4289939114
 H   -0.3501092094   -1.9457681062    0.7030926871
 H   -1.5207255452   -0.7510412253    1.2865320431
 H   -0.2825092390   -0.3038183739   -0.9938588865