17

 N    0.1270309106    1.3411630222    0.0803612888
 C   -0.0540606245   -0.0113524196   -0.0062518278
 N   -1.1256946467   -0.6610298307    0.2192927325
 C   -0.8224311824   -2.0515480494   -0.1118437178
 C    0.6748468630   -2.0667822550   -0.5145891164
 C    1.6637753144   -3.0280434108    0.1762800298
 O    1.9611546751   -3.6853134415   -1.0713111449
 C    1.1309437423   -2.7667133426   -1.8098234970
 O    1.0548778134   -0.6843143035   -0.4354071509
 H    1.0720382091    1.6409562087    0.2632867886
 H   -0.5818986022    1.8159895331    0.6170152072
 H   -1.0150239990   -2.7079744078    0.7457162808
 H   -1.4593199746   -2.4052640309   -0.9331665803
 H    2.5386901771   -2.5259376800    0.6071558679
 H    1.2304326209   -3.7149723617    0.9139048479
 H    0.3461974663   -3.2818486147   -2.3776974857
 H    1.7097121072   -2.1202445860   -2.4803987526