20

 C    0.0640910786    1.3521130568   -0.2221655782
 O    0.0050884067   -0.0112060199    0.1825138220
 C   -1.2462173360   -0.5369289521    0.1281655797
 C   -1.7043045860   -1.9638201672    0.0236821155
 C   -2.5742454562   -1.8282940632    1.2691428944
 C   -2.5964911408   -0.2980758307    0.9608028996
 N   -3.2929438529   -0.1053318096   -0.3411332523
 C   -4.6598749177   -0.5837683197   -0.4950727084
 C   -2.2080036801   -0.8424957273   -0.9717530463
 H    1.1107651328    1.6555212723   -0.1564157829
 H   -0.2920358580    1.4738539885   -1.2527870618
 H   -0.5404498150    1.9890359780    0.4365248369
 H   -1.1406391525   -2.8162166381   -0.3332268910
 H   -3.5301418540   -2.3583272878    1.3277488564
 H   -1.9926047983   -2.0220887157    2.1740351391
 H   -2.8033841678    0.4342569323    1.7402928223
 H   -5.3129438988   -0.0289563237    0.1870136989
 H   -4.9928746660   -0.3765248590   -1.5178436380
 H   -4.7974988931   -1.6604530878   -0.3100485512
 H   -2.0687964949   -0.9187479360   -2.0431669946