21

 C    0.1998096276    1.5378000946    0.1303520825
 C    0.0587459641    0.0583481698   -0.0274786954
 C   -1.0422698260   -0.6942989842   -0.1071398974
 C   -2.4809779418   -0.2793021617   -0.0590879287
 C   -3.2060982279   -0.4377519525   -1.3993934032
 O   -4.5494088334   -0.0261915540   -1.2037299973
 C   -0.6376885101   -2.1432065080   -0.2393718705
 O    0.7836406868   -2.1553475246   -0.2576376278
 C    1.2738601630   -0.8302005457   -0.1028242085
 H    0.7751373393    1.7846442260    1.0318140316
 H    0.7451156735    1.9751828273   -0.7158167742
 H   -0.7674404765    2.0408057927    0.2004377779
 H   -3.0225605684   -0.8796459542    0.6841074330
 H   -2.5756896617    0.7649506614    0.2538908616
 H   -2.7018912887    0.1757954572   -2.1624377996
 H   -3.1552956053   -1.4851375225   -1.7356003606
 H   -5.0188047224   -0.1221415383   -2.0374053597
 H   -1.0128395732   -2.7491985182    0.6033656595
 H   -1.0199352773   -2.6127141392   -1.1602642386
 H    1.9282102500   -0.5721704676   -0.9522613877
 H    1.8930202882   -0.7569877681    0.8078282529