18

 C   -0.0250199767    1.4842098869    0.0751546952
 C   -0.0139387834   -0.0144923401   -0.0747205004
 C    0.9240626874   -0.6512130341   -1.0891694787
 C    0.2776767020   -2.0122369356   -1.4091482303
 O    0.5669342553   -2.7482048911   -2.3139496535
 C   -0.7738944027   -2.2333682724   -0.3317700540
 C   -0.0157691335   -2.1871317282    1.0299123359
 N   -0.3021609428   -0.7267217853    1.2146135799
 C   -1.2577426654   -0.8147313268    0.0508465974
 H    0.9467579260    1.8468646855    0.4269364513
 H   -0.2430123233    1.9709850987   -0.8815463927
 H   -0.7795593963    1.7897757782    0.8042563342
 H    0.9872307158   -0.0482228720   -2.0009069929
 H    1.9497016967   -0.7903700102   -0.7286542813
 H   -1.4679686688   -3.0483497167   -0.5201068179
 H   -0.5427142764   -2.7419625122    1.8085646406
 H    1.0434017763   -2.4683532026    1.0443807798
 H   -2.2738886001   -0.4383557119    0.0830458176