17

 N    0.0487013843    1.3567818520    0.0773565109
 C   -0.0558177073   -0.0162167456    0.0571330605
 N   -1.1910303340   -0.5948713721    0.0171716818
 C   -1.2266948577   -2.0568826993    0.0444828775
 C    0.1054801637   -2.6757178884   -0.4321540321
 C    1.2394938409   -1.9856182876    0.3072996511
 O    1.1860966040   -0.5656226985    0.1079604619
 C   -1.5863550389   -2.5503973731    1.3807015244
 C   -1.8581997721   -2.9686092242    2.4746821601
 H    0.9221156418    1.7264170970   -0.2645171720
 H   -0.7791078183    1.8296095471   -0.2496135453
 H   -2.0211386160   -2.3696853324   -0.6453024218
 H    0.1315561318   -3.7526812698   -0.2460122669
 H    0.2098788489   -2.5088894048   -1.5095908008
 H    1.1764495972   -2.1922134479    1.3825551281
 H    2.2232060719   -2.2948532698   -0.0526709558
 H   -2.1156394103   -3.3244961926    3.4414736984