21

 C   -0.3914477657    1.4863771323    0.0326882753
 C    0.0646362136    0.0431706192    0.0416660955
 C   -0.0148557535   -0.6884792879   -1.0830456033
 C    0.2401177517   -2.1396783936   -1.3957738754
 C    1.2842278806   -2.9167735140   -0.5914849449
 C    1.0416680944   -2.9461866972    0.9180399923
 C    1.3841243452   -1.6305460366    1.6257727168
 C    0.4759745784   -0.4275424716    1.4038127575
 O    0.1260868843    0.2244718789    2.3717517872
 H    0.4023911592    2.1530155618    0.3865293291
 H   -0.6890139329    1.7993647058   -0.9708018330
 H   -1.2329074352    1.6282542464    0.7164509675
 H   -0.4150013014   -0.1545883929   -1.9455989720
 H   -0.7277766084   -2.6621423688   -1.3235101892
 H    0.5064861110   -2.2009325180   -2.4583371591
 H    1.3008779023   -3.9430105850   -0.9766087970
 H    2.2808486034   -2.4995716224   -0.7865630389
 H    0.0021551773   -3.2301387366    1.1284973702
 H    1.6659467776   -3.7300797182    1.3615296257
 H    1.4102057848   -1.7721786033    2.7093473351
 H    2.3952632433   -1.3216329781    1.3214860905