14

 O    0.0368247756   -0.0619131989    0.0018220199
 C   -0.0298737246    1.1345336307    0.0106497587
 C   -1.1639967148    2.1830270839    0.0290785044
 C   -0.0076833742    3.2661139572    0.0253773976
 N    0.9268734019    2.1223990844    0.0078298349
 C    0.0463156030    4.0983775957   -1.1761529969
 C    0.0897158401    4.7703422704   -2.1705851725
 C    0.0703800696    4.0808836091    1.2375242740
 C    0.1338332741    4.7382846833    2.2405765404
 H   -1.7904928465    2.1974704328   -0.8623284528
 H   -1.7732647193    2.1848738645    0.9324515029
 H    1.9366210183    2.1031102940   -0.0018517151
 H    0.1293844093    5.3685789492   -3.0476190695
 H    0.1912864275    5.3235194536    3.1253640139