19

 O    0.0565459946    1.3049733408    0.0427168617
 C    0.0065183589   -0.1012442470   -0.0275281403
 C    1.0487186322   -0.7122146175   -0.9866092187
 C    0.3450136078   -1.7028457875   -1.9750383280
 C   -0.3402845643   -2.6745354590   -1.0469146513
 C   -1.1508136609   -2.1315298034   -0.1355817643
 C   -0.9508077931   -2.2030650066    1.3713660109
 C   -0.6900531683   -0.6716100480    1.2530461772
 C   -1.3844424481   -0.6248012888   -0.1006095006
 H    0.8483448716    1.5471401241    0.5349842046
 H    1.5057143064    0.1207925167   -1.5329498091
 H    1.8508055620   -1.2388366424   -0.4580773088
 H   -0.3560142206   -1.1406227984   -2.6001035256
 H    1.0682520244   -2.1851868615   -2.6373921226
 H    0.1214766484   -3.6435479559   -0.8699130795
 H   -1.8631512387   -2.3469429068    1.9624322059
 H   -0.1631791940   -2.8668012334    1.7430806590
 H   -0.8355354378    0.0303728734    2.0686009862
 H   -2.2491964004   -0.0590680988   -0.4229463665