23

 C    0.0388884096    1.3870048565    0.3141084786
 C    0.0910909425   -0.0681683873   -0.1125011334
 C   -1.2495699112   -0.6993003292   -0.4649930895
 C   -2.0710110245    0.0640548137   -1.5086716242
 O   -1.3118073503    0.4226513544   -2.6707703058
 C   -3.3173381111   -0.7047408927   -1.9576442282
 O   -4.0172688069    0.0083995633   -2.9526615163
 C    1.3132275254   -0.5272847228   -0.8740830206
 C    1.1089685933   -0.9599813874    0.5588120945
 H    1.0270677348    1.7369033428    0.6281739704
 H   -0.2942292317    2.0283408260   -0.5079947287
 H   -0.6463636476    1.5296287747    1.1584419017
 H   -1.0811088757   -1.7262011911   -0.8205820505
 H   -1.8645347302   -0.7905143241    0.4412167882
 H   -2.3994100768    1.0255271643   -1.0979929882
 H   -0.7902247841   -0.3441593639   -2.9332741183
 H   -3.0104412123   -1.7048004879   -2.3177607630
 H   -4.0009094325   -0.8566088766   -1.1146439136
 H   -3.3315392725    0.3614214724   -3.5352675620
 H    1.1962512614   -1.2807618623   -1.6473437500
 H    2.0873428155    0.2019209731   -1.0877152125
 H    1.7460120770   -0.5230051778    1.3204782030
 H    0.8448270080   -1.9960131579    0.7453386482