23

 C    0.0632854016    1.6012291604    0.1312592130
 C   -0.3676218620    0.3634015289   -0.6580982120
 C   -1.8366813974   -0.0327983825   -0.4413525054
 C   -2.2641219362   -1.1389123560   -1.4196551183
 N   -2.0307958324   -0.3847765198    0.9747707669
 C   -3.4073264094   -0.4725939212    1.4523947666
 C   -3.4344701599   -1.0562433145    2.8735636884
 C   -4.0178987258    0.8711226334    1.4472685234
 N   -4.5202545327    1.9116341771    1.4401680146
 H    1.1252198533    1.8158906789   -0.0224561937
 H   -0.5047705376    2.4839400309   -0.1820445799
 H   -0.1112700140    1.4570521982    1.2000529172
 H   -0.2101138454    0.5289126638   -1.7306741596
 H    0.2685327685   -0.4927018623   -0.3893096647
 H   -2.4568444156    0.8549710111   -0.6230172548
 H   -3.3080833205   -1.4346622222   -1.2757450634
 H   -2.1600168236   -0.8044808325   -2.4567689304
 H   -1.6390934510   -2.0314911522   -1.2930338673
 H   -1.5638515167   -1.2640239969    1.1774426568
 H   -4.0552764502   -1.0995471989    0.8136536587
 H   -4.4543655033   -1.0821285086    3.2632005348
 H   -3.0469180447   -2.0797613547    2.8565506306
 H   -2.8119992050   -0.4548445307    3.5398381485