18

 O   -0.0078859631   -0.0209108804   -0.1333806733
 C   -0.0378791753    1.1762415655   -0.0216218328
 C   -1.2679488839    2.0911699475    0.0596182382
 C   -0.6204313469    3.3691918274    0.5960639567
 C    0.0130057979    3.0567389460    1.9978811149
 C    1.4356047893    2.7813935235    1.4830558388
 C    1.6516379830    4.0556406087    0.6355789098
 N    0.6017772908    3.4998396526   -0.2924794429
 C    1.1430676933    2.1262349488    0.0794460273
 H   -1.6623465923    2.2419902995   -0.9523444761
 H   -2.0559675935    1.6675455200    0.6854445682
 H   -1.2398345088    4.2644564798    0.5515453078
 H   -0.0107625500    3.9059005408    2.6856112346
 H   -0.4567147160    2.2027670810    2.4936009235
 H    2.1725101644    2.3781700420    2.1787771631
 H    1.4176558383    5.0275943915    1.0820797037
 H    2.6126250117    4.1009018113    0.1184004372
 H    2.0266979411    1.8321354346   -0.4858256788