19

 C    0.0293040836    0.7969558775   -0.6225913404
 C   -0.2345861270   -0.6499382375   -0.2878231841
 O    0.2547214755   -1.5889464959   -0.8818951452
 O   -1.0723151519   -0.7593652868    0.7483710005
 C   -1.3382576124   -2.0960752726    1.2555518456
 C   -2.5010145400   -2.8105764034    0.6018146488
 C   -2.8185823109   -2.6788094521   -0.8845994601
 C   -2.1923575840   -3.9387755780   -0.3756883477
 O   -0.8758211990   -4.2671134590   -0.6691641380
 H    0.5231642794    1.2871717151    0.2214178693
 H    0.6603928976    0.8579951457   -1.5079947829
 H   -0.9155187761    1.3197512114   -0.7935977438
 H   -0.4211048222   -2.6827283350    1.1602379773
 H   -1.5468326450   -1.9327103884    2.3134226336
 H   -3.3638467687   -2.9418266483    1.2466978626
 H   -3.8657192465   -2.6830332244   -1.1675988066
 H   -2.1991350049   -2.0271134707   -1.4890812651
 H   -2.8002393346   -4.8356551194   -0.3146389962
 H   -0.3908780128   -3.4551516984   -0.8876596277