17

 C   -0.0402006488    1.4396052989   -0.0083881857
 C    1.4254904897    1.8591442632    0.0133699250
 C    2.4148281486    0.9574029261    0.0468094086
 C    2.1133666752   -0.5269956167    0.0644593386
 C    0.9572080637   -0.8679006086   -0.9126817873
 C    0.2045840488   -1.8242169414    0.0480016557
 O   -1.0563787096   -1.0419834844    0.0111862219
 C    0.0036504786   -0.0540583814    0.0160912477
 C    0.9200217817   -0.8375299724    1.0063795091
 H   -0.5785170739    1.8481552400    0.8567682457
 H   -0.5443659919    1.8202721355   -0.9062202842
 H    1.6389272964    2.9236075339    0.0006575705
 H    3.4507047293    1.2825026977    0.0617345420
 H    2.9934980816   -1.1713132222    0.0917102640
 H    0.9486663326   -0.8674197374   -2.0028187123
 H    0.1200958994   -2.9097736926    0.0635428876
 H    0.8692605886   -0.8025693282    2.0948063130