15

 C   -0.0481154314    1.4896780936    0.0106946431
 C    0.0105511470   -0.0259329814    0.0024071953
 O   -1.3425951570   -0.5053298784    0.0103128291
 C   -1.5098975579   -1.8342461611    0.0051535587
 C   -2.6927306513   -2.5073511128    0.0106679899
 O   -2.3884834817   -3.8491743147    0.0019633066
 C   -1.0481605046   -3.8951068192   -0.0081069664
 N   -0.4622633573   -2.7380905428   -0.0069486430
 H    0.9657525909    1.9008224463    0.0048933554
 H   -0.5783947015    1.8628172797   -0.8699273416
 H   -0.5645500480    1.8536773740    0.9032870817
 H    0.5270985736   -0.4054141157   -0.8865819755
 H    0.5406780199   -0.4145770995    0.8793481453
 H   -3.7304142144   -2.2322745028    0.0196576888
 H   -0.5891128761   -4.8709779752   -0.0161824674