20

 C   -0.2401342396    1.5740655653    0.0658980037
 C    0.0082222418    0.0813295417    0.0070684868
 C    1.3203049455   -0.5549685714   -0.4147498285
 C    2.5784734588    0.2421398198   -0.6226270415
 O    3.7349658192   -0.4279227970   -0.0814995990
 C    3.8221619802   -0.6523060870    1.2572349789
 N    3.0279967250   -0.5029100662    2.2265985712
 C    1.6501567869   -0.0242340376    2.1089778844
 C    0.8353755203   -0.6929058433    1.0121341905
 H    0.6153959640    2.1418529663    0.4389340653
 H   -0.4838509441    1.9653838668   -0.9278885010
 H   -1.0866726905    1.7951249712    0.7250401294
 H   -0.8608951671   -0.4651955576   -0.3514395110
 H    1.2520007217   -1.4373272465   -1.0443708805
 H    2.8097011667    0.3598797544   -1.6844668380
 H    2.5155361419    1.2433180958   -0.1877053057
 H    4.8200216931   -1.0468629010    1.4545392305
 H    1.1654305868   -0.2152989992    3.0724243136
 H    1.6519481675    1.0666562350    2.0012618361
 H    0.4545843520   -1.6716931497    1.2886457848