21

 C   -0.1080952847    1.5708860242    0.2418254191
 C    0.0450121905    0.0682802605    0.0796965267
 C   -1.1828788598   -0.5929002069   -0.5436935796
 C   -1.4403624650   -0.1296431394   -1.9638489626
 O   -2.5087772140    0.2243122252   -2.3912628645
 C    1.3479361860   -0.6043823772   -0.2980577827
 C    2.5665243029    0.0926625919    0.3210117033
 C    1.9465785225   -0.1157792319    1.7408160090
 C    0.7375340042   -0.8072932947    1.0976382878
 H    0.7667072399    2.0377358979    0.6978183124
 H   -0.2722664710    2.0586005186   -0.7260970792
 H   -0.9738038482    1.8014200478    0.8733238794
 H   -1.0274242374   -1.6807240971   -0.5880094430
 H   -2.0865821170   -0.4098586953    0.0469605938
 H   -0.5381947613   -0.1455302596   -2.6191144871
 H    1.3973748129   -1.3056162330   -1.1240245960
 H    3.4853052407   -0.4824001719    0.1889743448
 H    2.7574822802    1.1214351244    0.0003975673
 H    2.5413119985   -0.8016822593    2.3476824666
 H    1.7407447507    0.7780336053    2.3379100933
 H    0.2398266993   -1.6813245593    1.5032588213