20

 C   -0.1289053197    1.5514860022   -0.0039111675
 C    0.0526945673    0.0205032402    0.0090986220
 C    0.7458908822   -0.4709322125   -1.2385472531
 C    1.9196297790   -1.0994132534   -1.2379041140
 C    2.7021755726   -1.3650000339    0.0208162198
 C    2.2158711755   -0.4646806912    1.1622008124
 N    0.7588659586   -0.4420583978    1.2017183535
 C    0.0907332517   -0.8921749943    2.2992642156
 O    0.6004075407   -1.2946873364    3.3252979412
 H    0.8395566713    2.0597453303    0.0068133637
 H   -0.6640705512    1.8666755422   -0.9053600133
 H   -0.7024697502    1.8763533960    0.8689398653
 H   -0.9484611186   -0.4308464559    0.0405239709
 H    0.2221898022   -0.2762044079   -2.1705855026
 H    2.3455592595   -1.4447387919   -2.1764456337
 H    2.6053554061   -2.4211235321    0.3076424740
 H    3.7713815877   -1.1942101306   -0.1534696989
 H    2.5541184722   -0.8156871913    2.1373708792
 H    2.5941524799    0.5548370977    1.0129362133
 H   -1.0076887868   -0.8539029493    2.1527244523