17

 C   -0.0366664653    1.5235796679   -0.0086606423
 N    1.2384736221    0.7943780784   -0.0882172849
 C   -0.0202168157    0.0366126495    0.0301041729
 C   -0.2116410610   -0.7148860360    1.2901922402
 C    0.3088334770   -0.3822539715    2.6990338188
 C    0.3052073491   -1.9208046482    3.0107641317
 C   -0.2166033449   -2.1608141175    1.5882410457
 O   -1.4458683182   -1.4305824489    1.4562713125
 H   -0.1799566007    2.0845682071    0.9103661290
 H   -0.4290751183    2.0044313085   -0.9005337782
 H    1.5702783430    0.7672054409   -1.0482273514
 H   -0.3968221449   -0.4820491069   -0.8489645485
 H    1.3130023282    0.0442303816    2.6843563172
 H   -0.3560025612    0.2428349718    3.2997763729
 H    1.3101982784   -2.3169481983    3.1731288735
 H   -0.3576731734   -2.2622359992    3.8092182989
 H   -0.0853868743   -3.0222766194    0.9424162722