19

 C   -0.1142544882    1.6455511383    0.2887424469
 C   -0.0312856380    0.1215030694    0.1484470375
 C   -1.4587985271   -0.3772374330    0.0479475703
 O   -1.9297152373   -0.9813497635   -0.8832784098
 C    1.0368008734   -0.5641633611   -0.7684030999
 C    2.1340750736   -0.1485377049    0.2560103064
 C    0.9300971649   -0.6898627745    1.0927601151
 O    0.7631327385   -0.7109351348    2.4636918948
 C    0.8594395797   -1.8677701802    0.0710222106
 H    0.8510835541    2.1133569707    0.4827545375
 H   -0.5291164139    2.0927522419   -0.6210688254
 H   -0.7767541759    1.9127127461    1.1193759224
 H   -2.0935984877   -0.0936503274    0.9202718552
 H    1.0946059139   -0.4983036393   -1.8511615649
 H    3.0305489401   -0.7746317632    0.2610149423
 H    2.3955228172    0.9050275895    0.3404712780
 H    1.4397113862   -1.2781951681    2.8495549008
 H   -0.0801172993   -2.4073277718   -0.0306624669
 H    1.7168868757   -2.5456105140    0.0702544893