13

 O    0.3252310957    1.2649974573   -0.4169677351
 C    0.0083065871   -0.0342787684   -0.0424941129
 C    0.6129784030   -0.4810130835    1.2692104974
 N    1.7032479638   -0.0273611974    1.7048423203
 O   -0.1953489939   -1.3920526371    1.8808098974
 C   -1.4926613888   -1.4274399567    1.2594328618
 C   -1.4756399026   -0.3275591988    0.1894451072
 O   -2.4308924930    0.1707465002   -0.3304621302
 H    1.1315464455    1.4879426003    0.0720856362
 H    0.3214868006   -0.7732737602   -0.8095582228
 H    1.9439505021   -0.3994901764    2.6233816587
 H   -1.6649100160   -2.4140435831    0.8145073288
 H   -2.2631000434   -1.2373939661    2.0112741632