20

 C   -0.0254243515    1.5589134730   -0.0377749522
 C    0.1045870751    0.0354517523    0.0035926809
 C    0.7668249787   -0.5306182506   -1.2644323002
 C    0.9291728952   -2.0379010950   -1.1479621266
 O    1.6015031245   -2.5107677490   -2.3042994798
 C    1.7483428526   -2.3418768255    0.1069167172
 O    1.1946002485   -1.7644192430    1.2925834808
 C    0.7962859574   -0.4504983886    1.2677532707
 N    0.8990641376    0.2757062325    2.2988183780
 H    0.9601311433    2.0318066905   -0.0857928260
 H   -0.5964773966    1.8634818976   -0.9206750116
 H   -0.5253122958    1.9311975594    0.8570662827
 H   -0.9071164402   -0.3969108124    0.0562063004
 H    0.1676412663   -0.2815633807   -2.1454903669
 H    1.7579140762   -0.0817614328   -1.4111967984
 H   -0.0650821827   -2.5031937186   -1.0517224653
 H    1.6018277030   -3.4733078271   -2.2852738002
 H    1.7998130970   -3.4174389352    0.3031919954
 H    2.7716670624   -1.9722576661   -0.0478424934
 H    1.3560266990   -0.2500293705    3.0471285144