18

 C    0.3243641866    1.2144925680   -0.3104741591
 N   -0.3697379500    0.0878242993    0.3213712260
 C    0.3804383542   -0.7167831159    1.1585297417
 C    0.7816795122   -2.0078797799    1.1087969045
 C    0.4863109385   -3.0218124410    0.0583803537
 N    1.5607501184   -2.3104187064    2.2295114670
 C    1.5870962629   -1.1984716426    2.8992171768
 N    2.1643289570   -0.9823144720    4.1277483401
 O    0.9177593649   -0.1706461016    2.3539038731
 H    1.1635785766    0.8297769411   -0.8967471541
 H   -0.3651289433    1.7217285779   -0.9917074237
 H    0.7148549819    1.9525646257    0.4052888312
 H   -1.2409399510    0.3883285598    0.7451002368
 H    1.4104812548   -3.3950711486   -0.3965695752
 H   -0.0320654207   -3.8868891743    0.4862827104
 H   -0.1406121918   -2.5858626257   -0.7224934286
 H    2.8561801663   -1.6802736260    4.3584952753
 H    2.4793444926   -0.0362340578    4.2853307838