19

 C    0.1166442620    1.5307968150    0.0023445872
 C    0.0842605046    0.0159136718    0.0117043838
 C   -0.8630958147   -0.6817041514    0.9787714957
 C    0.6207300925   -0.7685662162    1.1960217899
 C    1.3395042344   -2.0822471605    0.9074201398
 C    1.8680067265   -2.0802465972   -0.5192429718
 O    0.8370691280   -1.7808823649   -1.4769366217
 C    0.1576531856   -0.6081865754   -1.3546804052
 O   -0.3904554859   -0.1425826991   -2.3176518182
 H    1.0835246355    1.9073849331   -0.3484450309
 H   -0.6564008363    1.9201172436   -0.6645013343
 H   -0.0545872137    1.9257261844    1.0082022250
 H   -1.4547472617   -0.0406507936    1.6233775521
 H   -1.3762146357   -1.5761737362    0.6403515177
 H    1.0272839405   -0.1679347026    2.0035927133
 H    2.1786517615   -2.2223169992    1.5964833518
 H    0.6663928985   -2.9350841911    1.0473827593
 H    2.6769634550   -1.3466191282   -0.6300939548
 H    2.2542465834   -3.0578612124   -0.8167142687