19

 C   -0.0308679929    1.5518480876    0.0903021361
 C    0.0562564448    0.0488252875   -0.0345936179
 C    0.6788533791   -0.6695842015   -1.2000160507
 C    1.6279983256    0.0751807919   -2.1388760393
 C    2.9327399094    0.1618523404   -1.3173898946
 O    2.5334878099    0.1219263733    0.0580485030
 C    1.3927866200   -0.6713227327    0.1561597045
 C    1.4715017036   -1.9012488858    0.9714329911
 O    2.4559300155   -2.3100163327    1.5325028305
 H    0.9188467963    2.0312884185   -0.1535120322
 H   -0.8064519274    1.9546187562   -0.5698026925
 H   -0.2851338407    1.8326288968    1.1169320260
 H   -0.7902491800   -0.4849205946    0.3937425251
 H    0.1977398052   -1.5728828734   -1.5576734361
 H    1.7714968560   -0.4746806306   -3.0720480902
 H    1.2502815830    1.0696738049   -2.3949666623
 H    3.5906614207   -0.6905203048   -1.5377910764
 H    3.4946576097    1.0864795702   -1.4718379134
 H    0.4968187923   -2.4439275912    1.0246925593