19

 C    0.6081293288    1.1045590809    0.3089722389
 C   -0.2366894286   -0.1447399164    0.2087964622
 O   -0.7729936842   -0.6533872197    1.1660217568
 C   -0.3710175999   -0.7842415052   -1.1799276118
 C    0.1136461664   -2.2320441276   -1.1443728638
 C    0.0844151672   -3.1412793603   -2.4158118215
 C    1.5382395647   -3.6213842371   -2.1111218622
 C    1.6330275625   -2.4507532471   -1.1214098530
 O    2.5380840314   -1.8184154097   -0.6539254808
 H    1.6400758621    0.8390611247    0.0496289511
 H    0.2766696291    1.8593018676   -0.4130154255
 H    0.5719815859    1.5085751357    1.3212670051
 H   -1.4342534634   -0.7596704787   -1.4481120146
 H    0.1781102762   -0.2115518396   -1.9341161459
 H   -0.3479249768   -2.7402923765   -0.2899907229
 H   -0.6884413785   -3.9100664267   -2.4376209149
 H    0.0326922048   -2.5568728984   -3.3377565799
 H    1.5683614813   -4.5866019076   -1.5954650134
 H    2.2700846808   -3.6334161284   -2.9217760937