19

 O    0.2197831398    1.6086704329    0.1324057034
 C    0.0381990294    0.2167388161    0.1248702199
 C    0.5142592803   -0.3610261994   -1.2035727911
 O    0.9877673260    0.3356253348   -2.0672069266
 C    0.7647041719   -0.4620652275    1.2573217571
 C    0.2874204008   -1.4356549690    2.0348733378
 C    1.3166414949   -1.9422107659    3.0156345930
 C    2.4316207805   -0.8654678136    2.9358842367
 C    2.2066380959   -0.1339388669    1.5882731187
 H    0.5913483100    1.8270091175   -0.7375446562
 H   -1.0345612138   -0.0391696294    0.1950533099
 H    0.4022930588   -1.4573855057   -1.3205900515
 H   -0.7155790863   -1.8455689495    1.9689799230
 H    0.9165830464   -2.0602166639    4.0288140657
 H    1.6816086463   -2.9347184292    2.7142784423
 H    2.3058437732   -0.1544876057    3.7580993106
 H    3.4352012236   -1.2879277970    3.0255007873
 H    2.8793541125   -0.5063474752    0.8014233898
 H    2.3748316998    0.9444768265    1.6520915001