13

 O   -0.0499647850   -0.0816184360    0.0039424645
 C    0.0067185730    1.1338545367    0.0092771173
 N   -1.1758706892    1.9046277903    0.0292668486
 C   -1.2353483753    3.2625548182    0.0367977209
 C   -0.1005767982    4.0092106072    0.0249366468
 C    1.1518612446    3.3150081944    0.0043089579
 C    1.2101395399    1.9476052736   -0.0032590307
 C    2.3638511641    4.0817116025   -0.0085444535
 N    3.3326945559    4.7140118196   -0.0187275332
 H   -2.0254192745    1.3562361911    0.0381934483
 H   -2.2266493073    3.6985113117    0.0525396386
 H   -0.1400798623    5.0881531478    0.0308135640
 H    2.1533744043    1.4179892928   -0.0188478296