16

 C   -0.1261207982    1.3942014800   -0.1064999227
 C    0.0889238174   -0.0944853623    0.0038662189
 N    1.2530691485   -0.5939836173    0.0552958879
 N   -1.1273125617   -0.8076746506    0.0393742772
 C   -1.2685752382   -2.1627869349    0.1352270289
 N   -0.3569875400   -3.0843256510    0.2139592493
 C   -1.0916194533   -4.2678584769    0.2894409404
 C   -2.4091069085   -3.9883444330    0.2516649506
 O   -2.5437346133   -2.6152228212    0.1507417470
 H    0.8450558301    1.8857506463   -0.1293044380
 H   -0.6779895454    1.6475461518   -1.0192526653
 H   -0.7010683142    1.7750389869    0.7457080975
 H    1.2202703250   -1.6126050154    0.1284702021
 H   -1.9890980420   -0.2881336306   -0.0096487342
 H   -0.6042033440   -5.2265143475    0.3651215333
 H   -3.3219189722   -4.5553060145    0.2803660371