13

 O    0.0033167466   -0.0631734807   -0.2879418534
 C   -0.0702427692    1.1268564766   -0.1326938707
 C    1.1243576454    1.9446094982    0.1433167295
 N    2.1050215548    2.5224366530    0.3452040983
 C   -1.3783352214    1.9362613444   -0.1503816463
 O   -1.3654917155    3.1033894610    0.1711147518
 N   -2.4535645600    1.2401555974   -0.6228380427
 C   -3.0576260984    0.0295983646   -0.1048910256
 C   -3.8091270005    1.3313501188   -0.1351474955
 H   -3.2744459361   -0.7386238532   -0.8401913200
 H   -2.7070512643   -0.3357086392    0.8556067224
 H   -3.9584180265    1.8661860294    0.7986362833
 H   -4.5707893549    1.4909876098   -0.8919012010