23

 C   -0.0164151706    1.6264500024   -0.0332600623
 C    0.0172552077    0.0963691031    0.0382613908
 C   -1.3723853701   -0.5444387872   -0.0070653092
 C   -2.1552116164   -0.3142649668   -1.3156393101
 C   -3.1271932800   -1.4934695124   -1.3089220877
 O   -2.3825373314   -2.5832814556   -0.7815743272
 C   -1.4032649461   -2.0768657950    0.1105086405
 C   -0.2083191961   -2.9621254770    0.3032506547
 C   -1.2367492191   -2.8042077662    1.4125856597
 H    0.9918445058    2.0458012773    0.0374767325
 H   -0.4548341330    1.9748072850   -0.9738868547
 H   -0.6104842007    2.0481275801    0.7854190294
 H    0.6226899946   -0.3007336726   -0.7861338097
 H    0.5245298611   -0.2045250385    0.9641420695
 H   -1.9659767205   -0.1308975593    0.8206947194
 H   -2.6587405871    0.6545918035   -1.3548926655
 H   -1.4817019265   -0.3879958550   -2.1777502129
 H   -4.0025878948   -1.2750809387   -0.6752737768
 H   -3.4877198091   -1.7803347753   -2.3009992717
 H   -0.2131510491   -3.8957780516   -0.2482453144
 H    0.7718216520   -2.5184064331    0.4368904184
 H   -0.9580205168   -2.2346426512    2.2944837609
 H   -1.9041554939   -3.6380382358    1.5991173865