17

 N   -0.0647080206   -1.1178558563    0.2015489992
 C   -0.0275303753    0.0348771375    0.1168597942
 C    0.0062499692    1.4690655706   -0.0374520181
 C   -1.0126353448    2.1094256898   -0.9933083148
 C   -0.3162703067    3.3125606256   -1.6374541865
 C    0.0987751362    4.4909763298   -0.7985755312
 C    1.0985122526    3.3978719788   -1.0923035211
 C    1.2817334021    2.2752225724   -0.0926664344
 N    0.4902597381    2.2238116174    1.1319694813
 H   -1.2770586561    1.3807231204   -1.7649306989
 H   -1.9410764646    2.3712157863   -0.4728777894
 H   -0.5179383181    3.4932246944   -2.6870639154
 H    0.2441552226    5.4341938568   -1.3141827811
 H   -0.3003268338    4.6149234347    0.2035644657
 H    1.9438595454    3.6217229715   -1.7312888148
 H    2.2576478947    1.8071033896   -0.0204290559
 H   -0.0611170208    3.0644244608    1.2793863514