23

 C   -0.0366823379    1.4779504941   -0.0923575300
 C    0.1623139971   -0.0198302885   -0.0256726181
 C    1.5580005249   -0.6108444541    0.0959792358
 C    0.5786059526   -0.6975607389    1.2482956740
 O    0.7856346539    0.1692046349    2.3350639700
 C   -0.0184501454   -2.0395359651    1.6331420857
 C    0.8857669507   -2.8516720664    2.5412574935
 C    0.8883285709   -2.6086465903    4.0365798304
 C    0.3090640759   -3.8828034479    3.4740483462
 H    0.6346683907    1.9909040613    0.5994693959
 H    0.1540346602    1.8526555600   -1.1039670560
 H   -1.0622855500    1.7520108809    0.1783495833
 H   -0.5293483697   -0.5928271411   -0.6393683348
 H    1.8018835379   -1.5074381876   -0.4651775792
 H    2.3769131859    0.0921608244    0.2094075226
 H    1.4319201215   -0.2493340768    2.9139771398
 H   -0.9787683715   -1.8669574288    2.1369402159
 H   -0.2352845740   -2.6107428489    0.7218542872
 H    1.8498732587   -3.0988706067    2.1029393349
 H    1.8288200214   -2.6672508179    4.5742880942
 H    0.1960345424   -1.8701936897    4.4274709610
 H   -0.7697908415   -3.9986442121    3.4938761417
 H    0.8567015253   -4.8063061147    3.6253198757