18

 C   -0.0944660280    1.5317406274    0.0847894293
 C    0.0942232100    0.0345723525   -0.0034278448
 C    0.7482038726   -0.6824756850   -1.1752059901
 C    1.6638668445    0.0957494963   -2.1194233973
 C    2.8113992156    0.5325574914   -1.2310613503
 C    2.6715294221    0.0876391435    0.0194422285
 C    1.4109082326   -0.6973580399    0.1908647474
 O    1.4445286557   -1.8682959202    0.9548526842
 H    0.7951328550    2.0747108494   -0.2436564083
 H   -0.9364819073    1.8551291943   -0.5376575007
 H   -0.3087505909    1.8400531128    1.1143551992
 H   -0.7398754347   -0.5399711024    0.3962164566
 H    0.2571381351   -1.5773904151   -1.5381121441
 H    2.0128428232   -0.5295135767   -2.9513229999
 H    1.1575232416    0.9565380676   -2.5769122858
 H    3.6184075875    1.1623559391   -1.5890380978
 H    3.3589895914    0.2638984794    0.8393850982
 H    1.2285776740   -1.6376006846    1.8643752157