17

 C   -0.0915986776    1.5843470715   -0.0183089344
 C    0.0245766233    0.0608050593   -0.0271656345
 C    0.8547348761   -0.5273841106   -1.1631947183
 C    1.4987793080   -1.6095928221   -0.7298780695
 C    2.8386596354   -2.2998713393   -0.6827692573
 O    2.7838320934   -2.2181749702    0.7813166986
 C    1.3718045309   -1.8601195453    0.7317466836
 C    0.8180334477   -0.4950167896    1.2134060582
 O    0.9995403317    0.0757284440    2.2483480373
 H    0.8927674367    2.0531922999   -0.1122887982
 H   -0.7197829173    1.9341178573   -0.8427059973
 H   -0.5318845354    1.9231025444    0.9226692619
 H   -0.9847029879   -0.3753032457    0.0152804672
 H    1.0058007086   -0.0076014209   -2.1026620079
 H    2.8594109420   -3.3477003276   -1.0068196021
 H    3.6934726496   -1.7628728907   -1.1062867478
 H    0.7422646647   -2.6817257944    1.1010879505