19

 C   -0.0594582346    1.4763674437    0.0847898906
 C    0.0111943959   -0.0130686666    0.0073020332
 C    0.9024400812   -0.9760846203   -0.8387885498
 C   -0.2035506996   -2.0185444236   -0.8370023924
 C    0.8487111114   -2.0245120154    0.2637577484
 C   -0.0571029740   -1.0568321846    1.1048633753
 O   -0.1693548255   -0.8138422642    2.4502332831
 C   -1.1172215703   -1.0700769667    0.0009609448
 C   -2.5992298977   -0.8970622843    0.0646861786
 H    0.9082101534    1.9063326611    0.3697662642
 H   -0.3525303301    1.9191791310   -0.8745835433
 H   -0.7899073172    1.7905075271    0.8373809287
 H    1.6810418734   -0.7879773204   -1.5678411763
 H   -0.4343573478   -2.7879204585   -1.5636523342
 H    1.5728863898   -2.7863054071    0.5226443851
 H   -0.6833879653   -1.5256294467    2.8499016258
 H   -2.8682483091   -0.1496051031    0.8189289405
 H   -3.0132692616   -0.5640055366   -0.8946842456
 H   -3.1046511423   -1.8332341549    0.3338283234