17

 C   -0.2413375965    1.4216329184   -0.3034428274
 C   -0.0779250406   -0.0665055339   -0.0447227759
 N    1.1399905212   -0.6943684861   -0.7018118446
 C    1.7878365557   -0.6675718063    0.5291494637
 N    2.9369095103   -0.3658177608    0.9882177398
 C    2.6842131056   -0.0053718430    2.3992936800
 C    1.1635658897    0.3685761021    2.4727809319
 O    0.6419840858    1.1397296241    3.2250262183
 C    0.5494119039   -0.4804172466    1.3394758111
 H    0.6735230060    1.9703679112   -0.0578780947
 H   -0.4835913968    1.6083296833   -1.3547776970
 H   -1.0536104782    1.8246088092    0.3086413072
 H   -0.9898602387   -0.6158583471   -0.2899190164
 H    1.5808511667   -0.2466143597   -1.4998127294
 H    2.8947276753   -0.8264176886    3.0993944379
 H    3.3038864315    0.8448839619    2.6994935117
 H    0.0857208892   -1.3726684583    1.7679080337