22

 C   -0.0554255635    1.5809467215    0.2394876792
 C   -0.0462851444    0.0566430999    0.0322947565
 C    0.8815393575   -0.6332952593    1.0395482838
 C   -1.4566935445   -0.4859181655    0.0513084278
 C   -2.2337707569   -0.9279072490    1.2633404163
 C   -2.0195509415   -1.8869377156    0.1180121224
 N   -2.8587497603   -1.7095239507   -1.1336811475
 C   -3.8226269952   -0.6063575743   -0.9545616542
 C   -2.3968144318   -0.2778020980   -1.1635168635
 H    0.9528971616    1.9968563339    0.1435882462
 H   -0.6959250825    2.0809152662   -0.4944806914
 H   -0.4323556002    1.8333933430    1.2368754140
 H    0.3549669663   -0.1410583859   -0.9730655981
 H    0.8797833899   -1.7203406663    0.9098677925
 H    1.9103528963   -0.2828943317    0.9110015255
 H    0.5881882346   -0.4124323308    2.0716030621
 H   -1.6129572908   -1.1748504563    2.1190807796
 H   -3.1950141099   -0.5131888926    1.5456901945
 H   -1.5365525637   -2.8479196151    0.2459966515
 H   -4.4748340840   -0.5018931033   -1.8176107871
 H   -4.3238695456   -0.4492826133   -0.0067760415
 H   -2.0311362612    0.1572158731   -2.0898232586