18

 C   -0.0745823540    1.6106032223    0.0119646773
 C    0.0484739437    0.0850589124   -0.0115286032
 C    0.7447604036   -0.4934947269    1.2401603810
 C    0.0038849460   -0.1311475424    2.4511011527
 N   -0.6154287228    0.1461276090    3.3867168995
 C    0.9048442224   -2.0580964199    1.1618273909
 N    1.5858571412   -2.5767195494   -0.0139253720
 C    1.6151146384   -2.5385879166    2.3593886292
 N    2.2028613753   -2.8898867192    3.2891809023
 H    0.9097837826    2.0860388020    0.0781182695
 H   -0.5578998356    1.9679508541   -0.9013601268
 H   -0.6697683472    1.9483543307    0.8647913912
 H   -0.9445720098   -0.3709392561   -0.1060706021
 H    0.6287041875   -0.2216995111   -0.8877326624
 H    1.7506620904   -0.0611975011    1.3214827737
 H   -0.1021328998   -2.4919809152    1.1799650653
 H    1.0539872172   -2.3927124397   -0.8558300923
 H    2.5101757607   -2.1712481429   -0.1195864238