16

 O    0.0066502255   -0.0638562918    0.0316421375
 C   -0.0334126598    1.1327036065   -0.0003413055
 N   -1.1370153575    1.9473674128   -0.0628580410
 C   -0.8392049636    3.3510107106    0.0720960240
 C   -1.1474280856    3.9592509850    1.4581496758
 O   -0.0047328105    3.6965915813    2.2527660820
 C    1.1103924876    3.9211438935    1.4051833423
 C    0.7248069570    3.3116672021    0.0515736202
 O    1.0815820227    1.9301560545   -0.0132634862
 H   -2.0466611873    1.5490923648    0.0953994187
 H   -1.2742797539    3.9413610853   -0.7399788736
 H   -1.3171521020    5.0442807288    1.3570057263
 H   -2.0170895218    3.5096041054    1.9435422299
 H    1.3043167527    5.0001985965    1.2870990948
 H    1.9875018635    3.4400697826    1.8407004595
 H    1.1786654831    3.8253056321   -0.7981834647