19

 C    0.0393854318    1.5676231177   -0.0055528841
 C    0.0582515783    0.0468137738   -0.0201111060
 C    0.7820888481   -0.7114359091   -1.1342897140
 C    2.2565158573   -0.8219133847   -0.6326336635
 O    2.3378674904   -0.1385134120    0.6124868005
 C    1.0319938265   -0.7026942867    0.9488292569
 C    0.7941568264   -0.8690599514    2.4166551819
 C    1.2272693008   -1.8079253347   -0.1991813101
 O    1.0388204409   -3.1599137564   -0.2924464839
 H    1.0573213034    1.9620093295   -0.0488986000
 H   -0.5201287264    1.9588787028   -0.8621575543
 H   -0.4397810752    1.9504100793    0.9027545517
 H   -0.9474431582   -0.3705444601    0.1029082696
 H    0.5356846374   -0.7909693858   -2.1857660563
 H    3.1236995053   -0.8684443737   -1.2775567499
 H    0.8043765646    0.1052281774    2.9177404082
 H   -0.1786333023   -1.3367788743    2.5954897198
 H    1.5703258943   -1.4911579890    2.8724388739
 H    1.7547123966   -3.6019626928    0.1790924397