19

 C   -0.2371310298    1.6328230622   -0.0570526378
 C    0.0177972234    0.1319322672   -0.0256470525
 C    1.0987615647   -0.5721959318   -0.9023978580
 C    2.4108671217    0.1289998527   -0.4952083587
 C    2.3428960385   -0.3906295673    0.9509938556
 O    2.4748416792   -1.8268187864    0.7353951816
 C    1.1479722637   -1.7328432927    0.2141276971
 C    0.7601932313   -0.5638338928    1.1324725066
 O    0.2348257147   -0.7683548576    2.3979229665
 H    0.6635231623    2.2221644178    0.1375943518
 H   -0.6370253880    1.9483645867   -1.0267154649
 H   -0.9769445146    1.9059557516    0.7040506619
 H   -0.9335422349   -0.4008807466   -0.1495502501
 H    0.9166502463   -0.7904718027   -1.9520735904
 H    3.2987718537   -0.2634761382   -0.9952965183
 H    2.3811644045    1.2139953405   -0.6070803356
 H    2.9979978670    0.0018466805    1.7285689691
 H    0.6109476886   -2.6692226633    0.0762107252
 H    0.3260681276    0.0444449102    2.9066237508