13

 C    0.1589370065    1.7419083050    0.1841470846
 C    0.0568781814    0.2237335965   -0.0398312551
 N    0.6882706073   -0.2058146906   -1.2798271324
 C   -0.0451909593   -0.6686595436   -2.3338186051
 O   -1.2536247815   -0.7410507453   -2.3533897919
 C    0.6262071873   -0.5157133831    1.0990094124
 N    1.0974766393   -1.0741253198    1.9939479000
 H    1.2036623084    2.0588536725    0.2466820307
 H   -0.3202515497    2.2594536079   -0.6498375959
 H   -0.3419259384    2.0246322321    1.1135527137
 H   -0.9957702482   -0.0594127016   -0.1447280043
 H    1.6944945797   -0.1997075783   -1.3425474775
 H    0.5984924672   -0.9670603817   -3.1823294093