15

 C   -0.0119987731    1.5191899401   -0.0221782182
 C   -0.0705835197    0.0223810384    0.0992749894
 C   -1.2506546146   -0.7634207760   -0.4552008451
 C   -1.1530553864   -2.1360589908    0.2130576647
 O   -1.7709386425   -3.1264549157   -0.0566486543
 C   -0.1426265414   -2.0226169393    1.4026725555
 O   -0.0428971732   -2.8097743913    2.3029530717
 C    0.5796514648   -0.7247894197    1.2065441615
 O    1.1485486033   -0.6920937866   -0.1219279714
 H    0.9105109260    1.9044704158    0.4187117906
 H   -0.0403804120    1.8168290240   -1.0757320022
 H   -0.8654912163    1.9821964165    0.4827979504
 H   -2.2104125977   -0.3043220882   -0.1874368777
 H   -1.2152672996   -0.8498406240   -1.5449935160
 H    1.1569414622   -0.2595374032    1.9989682711