21

 C   -0.0527164389    1.5590208417   -0.0299514477
 C    0.0245505413    0.0262474424   -0.0405293178
 C    0.7452727968   -0.4618809664   -1.3041896258
 C    0.7100944914   -0.5250025226    1.2444588686
 C    0.0379430632   -0.0560108567    2.5555743007
 C    0.7648593616   -1.9848797042    1.2390910571
 C    0.7964116405   -3.1933107327    1.2732441566
 C    0.8111801197   -4.6319950185    1.2834802396
 O    1.5466842445   -5.3092369332    1.9656804230
 H    0.9450379117    2.0022902943    0.0754297178
 H   -0.4749848321    1.9218729591   -0.9721221166
 H   -0.6795222023    1.9424193163    0.7789420385
 H   -0.9989250442   -0.3726544667   -0.0522501876
 H    1.7698392875   -0.0726433343   -1.3449264640
 H    0.7993742524   -1.5529693234   -1.3420434694
 H    0.2249113558   -0.1163557036   -2.2027584195
 H    1.7474680970   -0.1574267065    1.2489287404
 H    0.5159923758   -0.5237889522    3.4194493267
 H    0.1194507282    1.0272502677    2.6659365325
 H   -1.0218657231   -0.3285091180    2.5653686724
 H    0.0737122934   -5.0971995025    0.5972194545