17

 C    0.0436525716    1.4738814834   -0.1185784305
 C    0.0323713579   -0.0552177645   -0.0256427543
 N    0.7042799246   -0.6091052682    1.1480889062
 C   -1.4147723410   -0.6015102466   -0.0083694775
 O   -2.1167552047   -0.0851519947   -1.1446188714
 C   -3.4577030039    0.0911986450   -1.0304443376
 O   -4.1184482150    0.5136904067   -1.9254904628
 C   -1.4397789662   -2.0732351097   -0.0382103106
 N   -1.5001308257   -3.2250156340   -0.0937829546
 H    1.0766744445    1.8323771525   -0.1447781008
 H   -0.4699075023    1.8308361761   -1.0140443247
 H   -0.4445627258    1.9195784164    0.7573641044
 H    0.5145734857   -0.4751871079   -0.9146314589
 H    1.7042476002   -0.6663247170    0.9965023053
 H    0.5614676480   -0.0128937485    1.9580460359
 H   -1.9048792459   -0.2687575928    0.9175949659
 H   -3.8451387920   -0.1870551160   -0.0321922342