23

 C   -0.1657824002    1.6096076191    0.0050423509
 C   -0.0272282392    0.0856578412   -0.0174182311
 C    0.6870177067   -0.4701038834    1.2155469111
 O   -0.0120641486   -0.1569580542    2.4224345037
 C    0.9203046246   -1.9944708459    1.1206546058
 O    1.5637115736   -2.3530968917   -0.0918389123
 C    1.7309928994   -2.5198555923    2.3175668934
 C    1.7109592804   -4.0425837528    2.4123078612
 O    3.0612731807   -2.0315179547    2.0857352502
 H    0.8174994669    2.0926638073   -0.0108571251
 H   -0.7283640672    1.9694693763   -0.8617187836
 H   -0.6803590726    1.9420973178    0.9110875414
 H   -1.0231515044   -0.3809390830   -0.0812754968
 H    0.5176558168   -0.2451679775   -0.9062619220
 H    1.6639570248    0.0160328338    1.3257595135
 H   -0.9250685978   -0.4461189430    2.3101081060
 H   -0.0611302591   -2.4898773277    1.1148174923
 H    2.5064627874   -2.2169476686    0.0766556214
 H    1.3229527281   -2.0720258970    3.2322056393
 H    2.0295038618   -4.4864766484    1.4651659117
 H    2.3766450035   -4.3946388118    3.2093113758
 H    0.7035216722   -4.4030313330    2.6441972186
 H    3.6569647622   -2.4633464604    2.7043500548