19

 C   -0.4141097167    1.5781680093    0.2011341953
 C   -0.4691640460    0.0561960449    0.3452530164
 C    0.8498977764   -0.5405204007    0.8481286218
 O    1.2529953966    0.0096727450    2.1104544512
 C    0.8140573103   -2.0381709698    0.9271133210
 C    0.0162429435   -3.0210054862    0.3932495732
 N    0.4500114215   -4.2708795101    0.7740744798
 C    1.4985956534   -4.0531569462    1.5346595239
 N    1.7658312501   -2.7235262425    1.6550677018
 H    0.3282085949    1.8765519243   -0.5472836627
 H   -1.3829081478    1.9784616989   -0.1108418846
 H   -0.1353735541    2.0469692834    1.1484576571
 H   -1.2700823112   -0.2348811845    1.0381806213
 H   -0.7142456684   -0.4070081786   -0.6177123226
 H    1.6549526162   -0.2247477898    0.1695493719
 H    0.5691420175   -0.2219232496    2.7507894293
 H   -0.8428609930   -2.9018208710   -0.2491597678
 H    2.0941662238   -4.8088350361    2.0250508731
 H    2.4763802029   -2.2795408407    2.2137684706