16

 C   -0.2562290765    1.6506425130    0.2564714662
 C   -0.1128998453    0.1518213803    0.1323475394
 C   -1.2789906165   -0.5864643117   -0.5077651156
 C   -1.4293079368   -0.2266791887   -1.9784497949
 O   -2.4627638652    0.1159306045   -2.4885146426
 O    1.1774666164   -0.3207024408   -0.2852384786
 C    0.7698478565   -0.6082589297    1.0537637073
 C    1.5058529792    0.0464026471    2.1135166544
 N    2.0781240329    0.5540328282    2.9799177444
 H   -1.1287102387    1.8995491373    0.8684612644
 H    0.6303925865    2.0949232405    0.7114300910
 H   -0.4019746267    2.0987406336   -0.7316436902
 H   -1.0927916935   -1.6666512821   -0.4561719891
 H   -2.2187070354   -0.3673297384    0.0065532022
 H   -0.4906867057   -0.3173496724   -2.5678573385
 H    0.5431810289   -1.6538392906    1.2560192102