20

 C   -0.0726423549    1.5889225966   -0.3182063325
 C    0.2736038347    0.5981249134   -1.4318936435
 C    0.5997902827   -0.7994040301   -0.8932206951
 N    1.0151445960   -1.6819786218   -1.9790385501
 C    0.3649377853   -2.7214086736   -2.2121192069
 O   -0.7544979021   -3.2641894480   -1.5491803563
 C   -0.6571898418   -4.4518252266   -2.3725997613
 C   -0.9038772136   -4.0983062574   -3.7932806666
 C    0.4786576284   -3.8580764743   -3.1726652812
 H   -0.9432662291    1.2547696124    0.2571647658
 H    0.7611031821    1.7055880104    0.3834021363
 H   -0.3038681427    2.5777376131   -0.7257689763
 H   -0.5627157442    0.5187432975   -2.1371950702
 H    1.1319712038    0.9584774472   -2.0101260845
 H    1.4408288425   -0.7211931447   -0.1915813366
 H   -0.2578287635   -1.1950414521   -0.3324371688
 H   -0.7824732243   -5.4083658892   -1.8847380224
 H   -0.9320266896   -4.9268352014   -4.4945904870
 H   -1.5509566622   -3.2607183611   -4.0336276149
 H    1.3884418826   -4.2861704204   -3.5659360279