21

 O   -0.2553489586    1.4607906437    0.2853243558
 C    0.0422067351    0.0657675473    0.1822122172
 C    0.5190295061   -0.4865347911    1.5278655129
 C    1.1194028043   -1.8976818110    1.4727318460
 C    0.1570660224   -3.0355333604    1.2498844325
 C   -0.9692674009   -3.0566426874    0.5339791767
 C   -1.6346978601   -1.9963048125   -0.2609667324
 C   -2.4286975713   -0.8780446653    0.4068799643
 C   -1.2052203463   -0.5559911924   -0.4065017669
 H    0.5467582214    1.9112548798    0.5689565856
 H    0.8604440529   -0.0819953967   -0.5454333914
 H    1.2956493427    0.1983463040    1.8950784192
 H   -0.2945563259   -0.4446806758    2.2601337686
 H    1.9028158518   -1.9224378193    0.6981953928
 H    1.6480410177   -2.0821559724    2.4152253828
 H    0.4390872733   -3.9661542151    1.7387525491
 H   -1.5115866912   -4.0014310382    0.5107959724
 H   -2.1121429581   -2.3992038244   -1.1512571154
 H   -3.4013106766   -0.6128941320    0.0072117770
 H   -2.3570399658   -0.8179258201    1.4865408947
 H   -1.4178192730   -0.1316170705   -1.3842623016