20

 C    0.0565185108    1.5500648933   -0.1287433137
 C   -0.0132126214    0.0300093054    0.0139866536
 C   -1.4444637708   -0.4939117528    0.0287032903
 O    0.6437845827   -0.6357755486   -1.0751226305
 C    2.0283778032   -0.7263171450   -0.9932707350
 C    2.6517267686   -1.6874777878   -2.0471175637
 N    3.4801164878   -0.5621614573   -2.4869822737
 C    2.9170702781    0.3822441120   -1.6681429024
 O    3.0821473779    1.5680103676   -1.5489583416
 H    1.0893385934    1.8987285565   -0.1997614267
 H   -0.4698017450    1.8668657809   -1.0353534075
 H   -0.4214189947    2.0307259978    0.7315192074
 H    0.4902451575   -0.2693336322    0.9483181186
 H   -1.9484988582   -0.2430843973   -0.9099634933
 H   -1.4584975686   -1.5807718024    0.1464204935
 H   -2.0078812717   -0.0448813552    0.8518552574
 H    2.3638129090   -0.9324579377    0.0339929971
 H    3.2125344283   -2.5394633220   -1.6518683336
 H    1.9177912353   -2.0238239914   -2.7847978822
 H    4.1705982678   -0.4818729939   -3.2181317141