19

 C   -0.0516368076    1.5539420155    0.1102870211
 C    0.0116519054    0.0480395446   -0.0576192456
 C    1.2715663074   -0.5930149839   -0.6506683503
 O    2.0285379918   -0.2246281863    0.6029130924
 C    0.7342867715   -0.8144030520    1.0359586648
 C    0.0798138378   -1.3629255630    2.2830498167
 C   -0.7278734542   -2.4758643301    1.5823897541
 C   -0.3241084462   -2.7518776450    0.3285446048
 C    0.9286574941   -1.9587184816    0.0471669764
 H    0.8987712641    1.9408160555    0.4828495800
 H   -0.2757253955    2.0410163923   -0.8453102077
 H   -0.8448708056    1.8359735863    0.8115390075
 H   -0.9306458690   -0.3738983926   -0.4161420871
 H    1.7994436101   -0.3950854739   -1.5852451695
 H    0.7969539395   -1.7843644193    2.9997013103
 H   -0.5537627558   -0.6494384318    2.8196353445
 H   -1.5428210364   -2.9796042777    2.0919777842
 H   -0.7593563162   -3.5204091349   -0.3002657681
 H    1.8420296749   -2.5387014023    0.2143043416