25

 C   -0.1114676288    1.5175440109   -0.1942944651
 C   -0.0690041359   -0.0006603257   -0.0006519887
 C   -1.4570953430   -0.6466306591   -0.0467857465
 C   -1.4165431957   -2.1557007073    0.1509738421
 O   -2.7321882275   -2.6601358276    0.0771512344
 C   -2.8052568492   -4.0588608754    0.2606159095
 C   -4.2443902245   -4.4914111901    0.2032128335
 C   -4.9025843361   -4.7369577926   -1.1288205529
 C   -4.5810518912   -5.8985396128   -0.2223925086
 H    0.8918073007    1.9533231650   -0.1569256320
 H   -0.5536477145    1.7805500204   -1.1616066064
 H   -0.7135106462    1.9985463570    0.5844852666
 H    0.5686890442   -0.4498296328   -0.7736536512
 H    0.4106560668   -0.2328354279    0.9596157355
 H   -2.1014489510   -0.2098688215    0.7262419929
 H   -1.9393684553   -0.4342494098   -1.0089927289
 H   -0.7813237641   -2.6265426841   -0.6208051855
 H   -0.9639022597   -2.4032858501    1.1279186613
 H   -2.2245560683   -4.5811036302   -0.5210626599
 H   -2.3565657542   -4.3376006102    1.2305284822
 H   -4.8671760792   -4.0543063220    0.9782040142
 H   -5.9404677845   -4.4481488377   -1.2501372211
 H   -4.2976429671   -4.6044332808   -2.0196584699
 H   -3.7634821856   -6.5533893704   -0.5064731129
 H   -5.3964261102   -6.4046574952    0.2820024474