20

 C    0.0522318146    1.3217245947    0.3265035992
 O   -0.0204377150    0.0213192074   -0.2324619804
 C   -1.2655729449   -0.5651436640   -0.1320364466
 C   -1.7656541535   -1.1408367681    1.1667899514
 C   -1.5596413001   -2.0493801055   -0.0267126292
 C   -2.7402885753   -1.8982388081   -0.9933314392
 C   -2.3982870148   -0.3735065726   -1.1600560696
 C   -3.4886752758    0.6630920774   -0.9169594886
 H    1.0921135605    1.6467513672    0.2443535741
 H   -0.5843448628    2.0368720627   -0.2130584172
 H   -0.2436809619    1.3210301977    1.3848558861
 H   -0.9975702754   -1.2210194762    1.9295867131
 H   -2.7647831205   -0.9438232128    1.5494787240
 H   -0.8652067545   -2.8793569236    0.0067363058
 H   -2.6320939207   -2.4620647838   -1.9221839270
 H   -3.7240342979   -2.1161918054   -0.5628233700
 H   -1.9443322338   -0.2148294885   -2.1436371957
 H   -3.9328522317    0.5548563870    0.0781700063
 H   -3.0976693153    1.6832107992   -0.9983812574
 H   -4.2957928513    0.5603590153   -1.6510399292