18

 C   -1.3801919749    1.4433114305   -0.2275229915
 C   -0.4672290431    0.2375686765   -0.1682595966
 C   -1.0066798325   -0.9633947097    0.5926185204
 N   -1.0449123600   -0.7091496330    2.0227197487
 C   -2.1841070691   -0.7206350038    2.7619988707
 O   -3.2961069661   -0.9602856398    2.3387612130
 C    0.5106192319    0.0073715772   -1.2600760035
 N    0.9773343379    0.4458358857    0.0718296156
 H   -0.9043901974    2.2713392842   -0.7629850873
 H   -2.3173007064    1.2027250504   -0.7403847295
 H   -1.6356811766    1.7885658847    0.7797456480
 H   -2.0280377130   -1.2020938821    0.2872965150
 H   -0.3726061766   -1.8340732448    0.3919190525
 H   -0.1729049911   -0.4676175146    2.4677453893
 H   -1.9821954130   -0.4835628095    3.8259253721
 H    0.7993815132   -1.0033762789   -1.5360331972
 H    0.5353559521    0.7214105393   -2.0790370233
 H    1.1912221446    1.4400587076    0.0451305733