23

 C    0.4258891819    1.2343316690   -2.5966813139
 O    0.6882209858   -0.1071322475   -2.2688642322
 C   -0.2553683074   -0.6397172755   -1.3518506311
 C    0.0387901417   -2.0884587821   -1.1327385600
 C    0.1872242400   -2.7318966141    0.0330497036
 C    0.1303152886   -2.1836644960    1.4249151017
 C    0.3813574127   -4.2198564452   -0.1861983755
 C    0.6829622255   -4.3335323227   -1.6980402145
 C    0.1181938432   -3.0331193487   -2.3153988789
 H   -0.5663496218    1.3573702332   -3.0610605389
 H    0.4693435370    1.8905284508   -1.7120620062
 H    1.1906150931    1.5541742986   -3.3089539136
 H   -0.2307435492   -0.0722824633   -0.4084360348
 H   -1.2740444960   -0.5202533099   -1.7683452280
 H   -0.7090497596   -2.6186251278    1.9838260672
 H    1.0389714445   -2.4446670129    1.9823361554
 H    0.0193789020   -1.0970427543    1.4512857583
 H    1.1826043280   -4.6335477638    0.4386155508
 H   -0.5322816058   -4.7657613484    0.0942483043
 H    1.7664872326   -4.3665024963   -1.8501016086
 H    0.2662509650   -5.2373635388   -2.1498736393
 H   -0.8826963787   -3.1854763444   -2.7478486991
 H    0.7431897768   -2.6344355100   -3.1197048464