18

 N   -0.1490428671   -1.1235499528    0.3874173760
 C   -0.1054648490    0.0018491664    0.1287104872
 C   -0.0259928808    1.4261298357   -0.2072122782
 C    1.3970815314    1.9576083084   -0.1608636834
 C    1.9935602204    2.4403189551    1.1457827331
 C    1.7238670715    3.4310931976    0.0390745508
 C    2.8639622228    3.7876600831   -0.9147841104
 C    3.2198531344    2.4587935656   -1.5498980824
 C    2.4050774927    1.4777290218   -1.1576448746
 H   -0.4584566577    1.5670975140   -1.2053306955
 H   -0.6597360862    1.9806963722    0.4935929537
 H    1.3383738043    2.4868328547    2.0105393078
 H    3.0169402121    2.1579990096    1.3692715322
 H    0.9297942252    4.1521515475    0.1977672008
 H    2.5462114339    4.5196027612   -1.6693767778
 H    3.7178683988    4.2371273627   -0.3918664776
 H    4.0621518314    2.3414764574   -2.2220964725
 H    2.4590207118    0.4412062399   -1.4711144393