20

 C   -0.0163840682    1.5067012370   -0.0083175890
 C    0.0245158419   -0.0221043953   -0.0198397200
 C    0.7211353152   -0.5963169838    1.2117674077
 C    0.8942596152   -2.1172489764    1.1647489345
 O    1.5892719388   -2.6155361761    2.2968437934
 O   -1.2946407991   -0.5870649491   -0.0290544248
 C   -1.9641958158   -0.4935976780   -1.2599299021
 C   -3.1884779301   -1.2993420307   -1.1961653286
 N   -4.1589847241   -1.9240755015   -1.1730655570
 H    1.0001668702    1.9104052419    0.0173937860
 H   -0.5061326277    1.9112653765   -0.8991552710
 H   -0.5550674041    1.8660208545    0.8738213089
 H    0.5535202234   -0.3639929923   -0.9264744899
 H    1.7066906677   -0.1299863246    1.3168431111
 H    0.1365158184   -0.3188781436    2.0991660011
 H   -0.0840422036   -2.5998739429    1.0419404900
 H    1.5059811772   -2.3939612014    0.2978892137
 H    1.0104668019   -2.5251078436    3.0603061339
 H   -2.2481022182    0.5399619703   -1.5100631353
 H   -1.3428568790   -0.8693537209   -2.0895325027