21

 C   -0.2269416323    1.4446769406   -0.1567749138
 C    1.3243257785    1.4582115286   -0.1126404119
 C    1.2806119570    0.0856043501    0.6255738879
 C   -0.1811794055   -0.0834385478    0.1102950560
 C    2.2978604830   -0.9635314543    0.2396674540
 C    3.7429891240   -1.0337506144    0.8203880245
 C    3.2028610267   -1.5663590679    2.1692181927
 C    2.5008979998   -2.3062956162    1.0053902188
 O    3.8205481796   -2.4348504346    0.3424034970
 H   -0.6608611607    1.9903163641    0.6861248819
 H   -0.7116656097    1.7853338534   -1.0744426015
 H    1.7570752212    1.3533154140   -1.1130593012
 H    1.8185522334    2.2919225521    0.3923823184
 H    1.2668431813    0.2553062687    1.7062800049
 H   -0.9167634292   -0.5090506595    0.7974281426
 H   -0.2057837396   -0.6566703946   -0.8223965743
 H    2.3058571529   -1.1287111217   -0.8428589810
 H    4.6015272299   -0.3902479812    0.6234706144
 H    3.9107396065   -2.1754438746    2.7322748326
 H    2.6179685833   -0.9025206599    2.8085298300
 H    1.8659281499   -3.1929304048    1.0309295481