18

 C   -0.0515229544    1.6322571174   -0.1941067649
 C   -0.0046222089    0.1132493539    0.0710169136
 C   -1.3094389016   -0.3943788443    0.4916755990
 C   -2.3850064099   -0.8042905761    0.8374623044
 C    0.5404373597   -0.6288280195   -1.1545662626
 C    0.3937954231   -2.1618709553   -1.2505023272
 C   -0.4574909882   -1.8452549737   -2.4613008277
 N   -1.0721797403   -2.5221846496   -3.3167128877
 O   -0.3203715803   -0.4742619385   -2.3305144464
 H    0.9471464575    2.0064695291   -0.4404546074
 H   -0.7198835703    1.8460211577   -1.0313052984
 H   -0.4150099618    2.1657303061    0.6868457206
 H    0.7146803286   -0.0759750030    0.8816492927
 H   -3.3364977093   -1.1660475483    1.1406478800
 H    1.5420088087   -0.2521862177   -1.3861418626
 H    1.3060852126   -2.7213636626   -1.4610196042
 H   -0.1528414579   -2.6282361846   -0.4298620211
 H   -1.5368719673   -1.9220573411   -4.0002480501