18

 N   -0.4030351133    1.4137531843   -0.3522974225
 C   -0.1983804733    0.0481625543   -0.1145792602
 C   -1.1184324750   -0.9673746105   -0.1122330241
 C   -2.6067549429   -1.0549719083   -0.2208808511
 C   -3.2302524811   -0.3611024822   -1.4322869681
 O   -3.2192729138    1.0488624056   -1.2000253849
 O   -0.4676214889   -2.1706739905    0.0699490093
 C    0.8507003366   -1.9019438491    0.2017590028
 C    1.0833915916   -0.5697745083    0.0937837124
 H    0.0723165588    2.0056387325    0.3167723688
 H   -1.3887998136    1.6444909004   -0.4136680815
 H   -2.8665585895   -2.1176753690   -0.2592742727
 H   -3.0989760101   -0.6456088380    0.6733058534
 H   -2.6693869154   -0.6153828783   -2.3414911499
 H   -4.2665224318   -0.7087931755   -1.5579401798
 H   -3.3950187824    1.4958791332   -2.0331498695
 H    1.4923647792   -2.7539550906    0.3574275772
 H    2.0397758347   -0.0716784399    0.1393558704