18

 C    0.1731703415    1.5073219431   -0.5887790318
 C   -0.0488404635    0.0849987944   -0.1211932064
 C    1.0355258775   -0.9241077512   -0.2130198165
 N    0.6202041267   -0.3940453735    1.1014931226
 C   -1.4911477935   -0.3778292573   -0.2351506915
 O   -1.6968560931   -1.7671836621    0.0985945945
 C   -2.4491962793   -1.4797492255    1.2980481225
 C   -2.3726130353    0.0129716575    0.9670682604
 O   -2.7915503091    1.0299597089    1.4271247369
 H    1.2213693525    1.7969760443   -0.4657156615
 H   -0.0851931785    1.6218390000   -1.6474093012
 H   -0.4471424759    2.2051989351   -0.0157849648
 H    0.7823184741   -1.9666758964   -0.3725370601
 H    1.9881466777   -0.6039872740   -0.6276977650
 H    1.2859666359    0.3040967465    1.4238403443
 H   -1.9036248859   -0.1285756764   -1.2222934426
 H   -3.4515439003   -1.9243769954    1.2902431336
 H   -1.9113302914   -1.7647406581    2.2095258664