16

 O   -0.2223380636    0.1412106966    0.6105271790
 C   -0.1394784373    1.2622629190    0.1898792373
 C   -1.2881871958    2.1519423951   -0.2915920371
 O   -0.6997731418    3.3840255649   -0.6653963904
 C    0.5143967656    3.5317497916    0.0668238246
 C    1.1274713861    2.1253892772    0.1046502536
 C    2.1315093629    1.8588463719    1.2357414678
 C    2.8682008937    0.6071449896    1.0690456142
 N    3.4854055304   -0.3584249307    0.9253847664
 H   -1.8098457003    1.7171836081   -1.1494114451
 H   -2.0141878876    2.2684992114    0.5293221557
 H    1.1274245833    4.2698134940   -0.4539688478
 H    0.3182901417    3.8979072653    1.0891382492
 H    1.5944118280    1.9201260565   -0.8668525350
 H    2.8631454711    2.6740069004    1.2813539080
 H    1.6152495236    1.8385716091    2.2019471196