15

 C    0.0799425408    1.4064401833    0.0064780230
 O    0.0193842948   -0.0082574383    0.0026334142
 C   -1.2172436396   -0.5711191470    0.0108788183
 C   -2.4000089696    0.0878657531    0.0223825166
 O   -3.5876919812   -0.5612314659    0.0300010303
 C   -3.6988098451   -1.9545126803    0.0270331648
 O   -4.8015083376   -2.4341405286    0.0331152102
 C   -2.4298927813   -2.6625890332    0.0139647131
 C   -1.2502765792   -2.0043983191    0.0065588893
 H    1.1382013784    1.6693362686   -0.0013434537
 H   -0.4076345040    1.8288018906   -0.8823435954
 H   -0.3930513553    1.8233252496    0.9057047313
 H   -2.5270092209    1.1608517524    0.0266453519
 H   -2.4917250451   -3.7432128564    0.0107012847
 H   -0.3019361351   -2.5320286687   -0.0029377983