18

 C    0.0237420358    1.5670068346   -0.1133459599
 C    0.0129899451    0.0578807912    0.0040405391
 C    1.2924476932   -0.7520937246   -0.1557081730
 C    0.6110893448   -0.6449103274    1.1847741311
 C    1.2205367869    0.0716018008    2.3883360387
 O    1.2898261206   -0.9270964568    3.4134562525
 C    0.5282845135   -2.0103204744    3.0655189472
 O    0.3820966573   -2.9718944007    3.7655449974
 N   -0.0200633566   -1.7680799329    1.8223369700
 H    0.9424930910    1.9966319977    0.2992500435
 H   -0.0386654167    1.8758720033   -1.1619770995
 H   -0.8220483128    2.0161182790    0.4182614224
 H   -0.8804782997   -0.4154787962   -0.3974892528
 H    1.2405336185   -1.6987637199   -0.6842536458
 H    2.2239529606   -0.2112893470   -0.2984382261
 H    2.2269350184    0.4524616893    2.2022227321
 H    0.5841662556    0.8930963751    2.7392788351
 H   -0.3595179156   -2.5622141610    1.3042902079