17

 C    0.0116062929    1.4577821063   -0.2404475976
 O    1.3824803596    1.5861309923    0.2886370230
 C    1.1841245056    0.3185716359    0.8839754429
 C    1.9709004260   -0.8894656719    1.4027625451
 C    0.7144959190   -1.7927210162    1.6091340836
 C    1.2484852541   -0.9327269563    2.7282043263
 C    0.2919259139    0.1689269573    2.1931992944
 C   -0.4814248851   -0.8231188138    1.2572058990
 C    0.0125591193   -0.0886834836   -0.0049823994
 H   -0.6953910928    2.0401850792    0.3593856237
 H   -0.0280505587    1.7768776651   -1.2838074061
 H    2.9219225060   -1.3121767021    1.1066830917
 H    0.7675217046   -2.8674852171    1.4881306690
 H    1.5942003958   -1.1897967931    3.7209193434
 H   -0.1293843984    1.0098994464    2.7355830954
 H   -1.4914619685   -1.1939548699    1.4314095747
 H    0.1836120666   -0.6635820585   -0.9174006790