16

 C   -0.0283316229    1.4111821232   -0.1076062951
 N   -0.0123914742   -0.0431240715   -0.0740878716
 C   -1.0926138520   -0.6674006039    0.0665767894
 O   -2.3540985244   -0.1103708363    0.1982783947
 C   -3.2499888011   -1.1506413605    0.5414007391
 C   -3.2733302366   -2.3840525383   -0.3502577967
 O   -2.0990317866   -2.4187806180   -1.1480255211
 C   -1.2930516938   -2.1607112624    0.0585535425
 C   -2.5246952241   -2.3945890265    0.9641638320
 H    0.8424392016    1.7864942812    0.4384914185
 H    0.0724538657    1.7503394603   -1.1456815699
 H   -0.9383303200    1.8561108590    0.3110654620
 H   -4.1464504619   -0.8008329124    1.0356091332
 H   -4.1607431935   -2.8886705168   -0.7138304163
 H   -0.3986288486   -2.7744130396    0.1114823436
 H   -2.6068839976   -2.9472616876    1.8893084956