11

 N    0.2601903617    1.2894617041    0.0052215923
 C    0.0213514033    0.0464223338    0.0020327062
 N   -1.2573402894   -0.5096748443    0.0109144624
 C   -2.4914632998    0.1360114562    0.0265653094
 O   -2.6618053973    1.3290624567    0.0356279779
 C   -3.5933586859   -0.8221979963    0.0313413270
 C   -4.5240385060   -1.5836707168    0.0356833563
 H    1.2672818403    1.4442569675   -0.0032100997
 H    0.7759984091   -0.7503005525   -0.0084357304
 H   -1.3004458015   -1.5170124708    0.0055749110
 H   -5.3583661545   -2.2424780276    0.0397634374