20

 C   -0.5869175111    1.3490198244    0.2482574512
 C   -0.0968877338   -0.0714934565    0.0504725291
 C    0.5667365205   -0.6504124630   -1.1571899116
 C    1.3376647119    0.1993178687   -2.1386295406
 O    1.4686110553    1.5950835010   -1.8204217476
 C    2.5337739457    0.7129401799   -1.4553116811
 C    2.4977340419    0.2183398214   -0.0099203440
 C    2.6740878331    1.2911712803    1.0641450376
 N    1.2749657014   -0.6140673038    0.1447025316
 H    0.0031244332    2.0901114712   -0.2808345767
 H   -1.6200684967    1.4113501533   -0.1130036969
 H   -0.6057915067    1.5887312465    1.3172500304
 H   -0.7682580032   -0.7746414018    0.5475954309
 H    0.2657053122   -1.6271006221   -1.5335492694
 H    1.3017685025   -0.0326136797   -3.1992548995
 H    3.4856964261    0.9033713623   -1.9481249905
 H    3.3309016156   -0.4931320515    0.0853738749
 H    1.9617410299    2.1088796884    0.9425293231
 H    2.5364878635    0.8536890145    2.0567445586
 H    3.6840643487    1.7105515967    1.0160084205