18

 N   -0.0755046235    1.3239172091    0.1708010366
 C   -0.0147542294    0.0788140369   -0.0464716649
 C   -1.2680752352   -0.7661788724   -0.0802917711
 C   -1.1976554002   -1.9221611715   -1.1025406053
 C    0.1225950015   -2.6826461095   -0.8733858449
 C    1.2899492914   -1.7151955198   -1.0038013608
 O    1.1851447020   -0.5732155978   -0.1410668869
 C   -2.3642188775   -2.7918336326   -1.0106749987
 C   -3.3198537045   -3.5144208815   -0.9142090847
 H    0.8690027379    1.7151009519    0.2035122003
 H   -1.4036440515   -1.2019462970    0.9177537686
 H   -2.1183177831   -0.1100099821   -0.2664494160
 H   -1.1681114204   -1.4892380724   -2.1131001407
 H    0.1125766714   -3.1359772458    0.1239892048
 H    0.2388548991   -3.4902019792   -1.6025959507
 H    2.2353617493   -2.1922493187   -0.7351851569
 H    1.3724111137   -1.3621108337   -2.0420713914
 H   -4.1677621810   -4.1493018539   -0.8386359271