14

 C   -0.0172426018    1.5751878231    0.0379133135
 C    0.0207145407    0.0809855669   -0.0010319094
 C    0.1010032641   -0.7685190386   -1.0704644032
 N    0.2157728378   -0.5446460300   -2.4234228599
 O    0.1319063396   -2.0512499366   -0.6815599509
 N    0.0742282209   -2.0976125876    0.7342358155
 C    0.0068735523   -0.8357820890    1.0848744104
 O   -0.0587760456   -0.4689678819    2.3765386494
 H    0.5268581085    2.0077809254   -0.8085215215
 H   -1.0388087459    1.9754647233    0.0161094352
 H    0.4524429951    1.9455400874    0.9535147845
 H   -0.2638682072    0.2793632858   -2.7546719706
 H    0.0135111481   -1.3593171130   -2.9862434104
 H   -0.0248017566   -1.2749964851    2.9088466375