15

 O    0.6032838983    0.5284318710   -1.0395198698
 C    0.0712811317   -0.3097773206   -0.0749718144
 C    0.1452396334    0.0598623286    1.4299525159
 C   -1.2562013111   -0.5971743481    1.6141985787
 C   -2.1956465304    0.0019494688    2.5432488190
 N   -2.9356613695    0.4822188837    3.2897760897
 C   -1.5013460339   -0.4471598712    0.0667016598
 C   -2.1573070795    0.7881275890   -0.3211373847
 N   -2.5991361080    1.8019306501   -0.6598353095
 H    0.1804510066    1.3947989354   -0.9776748201
 H    0.4933448775   -1.3015977398   -0.2574417491
 H    0.9684231254   -0.3395866795    2.0224291017
 H    0.0858637389    1.1423657004    1.5701002165
 H   -1.1575771334   -1.6609463146    1.8458334851
 H   -1.9749827860   -1.2960499333   -0.4292337588