19

 C   -0.0519495790    1.6075750364    0.2064894439
 C    1.4745282663    1.4026996397    0.0391037178
 C    1.7112679004    0.4371069552    1.2324483903
 O    0.5616386625   -0.4566439964    1.1203761070
 C   -0.0322243092    0.0677009913   -0.0598262001
 C   -1.1523992775   -0.6067630630   -0.8216648337
 C   -0.8368681182   -0.0831126243   -2.2231042084
 C    0.3775200066    0.4771634276   -2.3266985767
 C    1.1475573240    0.3199132508   -1.0420152915
 H   -0.4216245204    1.9195424245    1.1862918675
 H   -0.5070038658    2.1899509661   -0.5920742696
 H    2.1920086158    2.2150028495   -0.0811502848
 H    2.6361886330   -0.1455946512    1.1480488436
 H    1.6914666067    0.9452481622    2.2025645733
 H   -1.0856286513   -1.7019128339   -0.7729072434
 H   -2.1532268511   -0.3234074220   -0.4777043878
 H   -1.5494478867   -0.1665870589   -3.0374076584
 H    0.7861195448    0.8915590788   -3.2421903512
 H    1.9004882792   -0.4744718823   -1.1264838677