20

 C    0.8679285564    0.2699286076    0.7030418556
 N   -0.1707671052    0.2386218811   -0.3287260849
 C   -1.3381954825   -0.4753541674   -0.0491923128
 C   -1.5185727982   -1.8353143050    0.1693906125
 C   -0.4743833004   -2.9077732046    0.1624698314
 C   -2.9120410584   -1.9613096005    0.3489633589
 N   -3.5557277595   -0.8040814121    0.2419954700
 N   -2.5726663084    0.1051931410    0.0205536392
 C   -2.9176795758    1.4900170926   -0.1978804687
 H    1.7276242681    0.8270045240    0.3208765208
 H    0.5399824015    0.7301149220    1.6476295324
 H    1.2000472615   -0.7476357589    0.9213136337
 H   -0.3610042741    1.1619400402   -0.6926039463
 H    0.0368354530   -3.0134934749    1.1285480659
 H   -0.9186420713   -3.8800675830   -0.0709725097
 H    0.2944403752   -2.7038460880   -0.5910749242
 H   -3.4725089359   -2.8667546829    0.5380274325
 H   -2.2576094501    2.1494535970    0.3752883096
 H   -2.8643921331    1.7673211659   -1.2582075954
 H   -3.9423811627    1.6249456159    0.1470291198