23

 C    0.0075474038    1.5371870798    0.0927540034
 C   -0.0135342599    0.0139966209    0.0114119816
 C    0.6566696226   -0.4989335201   -1.2712485089
 C    0.6514874912   -2.0211529088   -1.4882154419
 C    1.3876803977   -2.8130859042   -0.3925434152
 C    0.5751434347   -2.9473964788    0.8840096057
 C    1.1896449517   -2.6348199064    2.2361100700
 C    0.1868852449   -1.6991754610    1.6343917717
 O    0.6590995298   -0.4681448987    1.1832724188
 H    1.0399885567    1.9014836126    0.1011642591
 H   -0.5086263951    1.9826863842   -0.7629454261
 H   -0.4792788996    1.8768651472    1.0106648486
 H   -1.0586351978   -0.3341911894    0.0364124538
 H    0.1636551739   -0.0162141563   -2.1251450748
 H    1.6952561731   -0.1408502306   -1.2685230086
 H   -0.3824782643   -2.3838389060   -1.5684462009
 H    1.1208618159   -2.2254169749   -2.4584595985
 H    1.6368616903   -3.8145208941   -0.7626431302
 H    2.3422999882   -2.3193221820   -0.1786910311
 H   -0.1735877318   -3.7357854427    0.8645008930
 H    0.8989568104   -3.2198261046    3.1016393599
 H    2.2202082698   -2.2963784471    2.2407134625
 H   -0.8085406762   -1.6562635692    2.0801982180