17

 C   -0.4201163040    1.2963470314    0.0998907445
 N    0.1823074380   -0.0393340511    0.0603764316
 C    1.4831996176   -0.2374801323   -0.5473282272
 C    2.2636202482    0.8579727514   -1.0753251248
 N    2.8800643586    1.6912484282   -1.5874763832
 C    1.2843120647   -0.4137848806    0.9473701235
 C    1.9375310966    0.5356568231    1.9209078815
 C    2.4339046595   -0.1033527141    3.2019695919
 O    2.0473229437    1.7208751284    1.6993690242
 H    0.2890537617    2.1097895128    0.2687322239
 H   -0.9363875944    1.4475230342   -0.8518807452
 H   -1.1669866447    1.3009727998    0.8982512163
 H    1.5765783614   -1.1439700739   -1.1421388740
 H    1.2191754369   -1.4425604390    1.2962704185
 H    1.5960242213   -0.5437111087    3.7552244076
 H    3.1298216179   -0.9199289333    2.9771100688
 H    2.9290945369    0.6464162135    3.8189655318