20

 C    0.1800111399    1.5068674454    0.2038454561
 C    0.2055821976   -0.0225332733    0.1264767583
 C    0.6088338455   -0.5565492356   -1.2554598786
 O    1.9294384791   -0.1581058751   -1.6106754202
 C    0.5875374335   -2.0892031123   -1.3059421318
 C    1.4940904046   -2.7969496084   -2.2590098545
 N    1.7799844075   -2.8231329344   -0.8177106171
 C   -0.6923503178   -2.6772340895   -0.9942036588
 C   -1.7769503051   -3.1445465455   -0.7675168981
 H    1.1738892029    1.9459519484    0.0528247751
 H   -0.4958783882    1.9344597606   -0.5457316503
 H   -0.1622985708    1.8414646811    1.1871394090
 H    0.8997777966   -0.4267038836    0.8730024624
 H   -0.7852596325   -0.4202177135    0.3672599572
 H   -0.1105843295   -0.1861006283   -2.0042902192
 H    1.9791748148    0.7999754309   -1.5552331650
 H    1.1695851830   -3.7442408935   -2.6780437693
 H    2.1158646111   -2.1791814204   -2.8977189931
 H    2.4972793644   -2.1234698041   -0.6308405304
 H   -2.7260584067   -3.5716225885   -0.5571141816