12

 N   -0.3294294096    1.3482641097   -0.2706677511
 C   -0.0925291607    0.0989164537   -0.1882417216
 C   -1.1891374022   -0.8342268283    0.0955919984
 N   -1.0823160155   -2.1045371024    0.2036279884
 O    0.2244530394   -2.6215191668    0.0276561143
 C    1.2249631689   -1.7680509528   -0.2325612473
 C    2.5648493558   -2.4456239184   -0.4004363368
 O    2.7343465976   -3.6291469674   -0.3128305759
 N    1.1698955776   -0.4942286831   -0.3500741377
 H    0.5409099369    1.8473729294   -0.4720893976
 H   -2.1930300777   -0.4427032562    0.2315011601
 H    3.3656513694   -1.7119055475   -0.6136358631