17

 C   -0.0305747957    1.5817533864   -0.0255745128
 C    0.0059795248    0.0460743608    0.0985786876
 C    0.6531463436   -0.5647925989   -1.1249574715
 C    1.7823816316   -1.2377096065   -0.8746489361
 C    2.0589256265   -1.2406677165    0.5745660998
 O    3.0146474523   -1.6994474310    1.1566056913
 C    0.8600006971   -0.5386283269    1.2536548079
 C    1.3011716068    0.3350912283    2.4152706464
 O    0.7121140806    1.3009922060    2.8278067987
 H    0.9797261779    1.9938421599   -0.1107169067
 H   -0.5869265301    1.8676471822   -0.9241512712
 H   -0.5049115996    2.0298738629    0.8471226502
 H   -1.0304625982   -0.3042773604    0.1785409647
 H    0.2284667029   -0.4052862257   -2.1112911896
 H    2.4351248064   -1.7175971548   -1.5920470459
 H    0.3064918803   -1.3549295010    1.7443993589
 H    2.2327128726   -0.0315540046    2.8947142583