21

 C    0.1003895036    1.5399534209   -0.0732892283
 C    0.0867072932    0.0152970297    0.0310115130
 O    0.7008524672   -0.4635908432   -1.1586604366
 C    0.9290608019   -1.8639067474   -1.1360937372
 C    2.0028820124   -2.1833687256   -0.0997655331
 O    3.2965617049   -1.7810224645   -0.5511485583
 C    1.6363178999   -1.5229479668    1.2055823037
 C    0.7585533510   -0.5188809562    1.2856543446
 C    0.3572326207    0.1001061739    2.5975624846
 H    1.1251129596    1.9197652459   -0.0178869079
 H   -0.3263767353    1.8368432359   -1.0344646173
 H   -0.4885014991    1.9990386083    0.7241144764
 H   -0.9690633197   -0.3216890592    0.0455786653
 H   -0.0028188876   -2.4093238821   -0.9135108122
 H    1.2724500284   -2.1410867909   -2.1362612144
 H    2.0745535015   -3.2692929367    0.0323952041
 H    3.2341928686   -0.8310451311   -0.7079539652
 H    2.1340107891   -1.8850406486    2.1020508688
 H    0.8020579986   -0.4400586040    3.4369899730
 H    0.6668260366    1.1493294108    2.6669256348
 H   -0.7329313458    0.0861524107    2.7249987723