13

 O    0.0760955100    1.3538442678    0.1854108038
 C   -0.0033576209    0.0054566170    0.0677960239
 C   -1.1572657048   -0.6784640478    0.0563593378
 C   -1.1456269658   -2.1382378497   -0.0050020514
 N   -2.2385269112   -2.8049954356   -0.0229362404
 N    0.1262134843   -2.7749286359   -0.0553849482
 C    1.1808749642   -2.0554998910   -0.0402835831
 N    1.2066671215   -0.6761825658   -0.0162692466
 H    0.7420757156    1.6987003083   -0.4220735187
 H   -2.1031214620   -0.1561812833    0.0773871138
 H   -2.0095973309   -3.7993541404   -0.0790373733
 H    2.1641896676   -2.5228759500   -0.0584816607
 H    2.0559364424   -0.2020953335    0.2502224133