18

 C   -0.1648686563    1.5600459717    0.2212508761
 C   -0.0524039760    0.0562544368    0.1307602410
 C    1.1599886059   -0.6294182825   -0.3901457268
 C    0.8384752686   -0.7517461233    1.1025586463
 C    1.7163071808   -0.0620576126    2.1290259201
 C    0.2362207415   -2.0570153532    1.4757623165
 O   -0.4223341800   -2.7573657979    0.7384560956
 C    0.4637782355   -2.5082908573    2.8686724422
 N    0.6312669486   -2.8748187078    3.9526054630
 H    0.8034420708    2.0421428563    0.3768641012
 H   -0.5790979038    1.9545363595   -0.7128062307
 H   -0.8314334693    1.8646588850    1.0344943052
 H   -0.9848251562   -0.4567101867   -0.0876386842
 H    1.0291987028   -1.5260688210   -0.9850077161
 H    2.0309158699   -0.0280925624   -0.6304378293
 H    2.1323563572    0.8630493988    1.7266450832
 H    1.1611356397    0.1893776233    3.0382097096
 H    2.5576524803   -0.6988780868    2.4200324370