19

 C    0.1665860886    1.4458167590   -0.0171654216
 C   -0.1184266137   -0.0319115975   -0.0161246605
 O    0.6906521486   -0.7056259563   -0.9931117316
 C   -0.1535348722   -1.6735671559   -1.6854749200
 C   -1.0572044749   -2.0076854247   -0.5271158592
 C   -0.6372822398   -2.8390041665    0.4383018216
 C   -0.5120624404   -2.1174948903    1.7675365066
 C   -0.6655131076   -0.6602182090    1.3258774805
 C   -1.4602370032   -0.6548008959    0.0431685050
 H    1.2136701444    1.6351578990    0.2413906201
 H   -0.0150796791    1.8692167535   -1.0104016383
 H   -0.4634871164    1.9706391578    0.7062846375
 H   -0.6385139955   -1.1938995247   -2.5445086817
 H    0.4800666644   -2.4958256873   -2.0227192285
 H   -0.1120730807   -3.7694712772    0.2457243790
 H   -1.2605909788   -2.3801452222    2.5297277396
 H    0.4692371717   -2.3464852274    2.2037956659
 H   -0.8579822965    0.0872686457    2.0914624803
 H   -2.4179904688   -0.1836047102   -0.1545780948