21

 C    0.0069202780    1.5201156384   -0.0358943857
 C    0.0181134587    0.0069281071    0.0106925778
 C    0.8039108918   -0.7035775945   -1.1021470122
 C    0.5706048420   -2.1895980571   -0.7280189078
 C   -0.2885094098   -2.0030843441    0.5182308117
 C    0.2360820040   -0.7910740738    1.3499761143
 C   -1.2165635352   -0.4754005509    1.7875334977
 C   -1.2834051363   -0.8157409125    0.2777009392
 O   -2.3681199476   -0.7746651975   -0.5839621330
 H    1.0282036714    1.9158055374    0.0055043719
 H   -0.4421766090    1.8694452808   -0.9722387441
 H   -0.5562907452    1.9682197700    0.7870347196
 H    0.4108001813   -0.4490687634   -2.0916938635
 H    1.8623629055   -0.4218861513   -1.0885772153
 H    0.0390130280   -2.7413685158   -1.5097403143
 H    1.5001213728   -2.7282023552   -0.5184722738
 H   -0.6444331062   -2.8837350307    1.0582935674
 H    1.1285067970   -0.7780619071    1.9738892234
 H   -1.6784974429   -1.1943646821    2.4715113808
 H   -1.4454217485    0.5485978136    2.0890141665
 H   -3.0376493797   -1.3899760812   -0.2661145607