13

 C   -0.0176235817    1.5287430925   -0.0033558475
 C    1.4155531424    2.0455375811    0.0150644832
 O    2.1417094464    1.5102533913    1.1323406796
 C    1.8438852121    0.2305729777    1.4696648484
 N    0.9430518527   -0.5351797865    1.0230139231
 C    0.0182855314   -0.0032114576    0.0239988059
 H   -0.5461601598    1.9045874519    0.8800128948
 H   -0.5420234424    1.9051248782   -0.8877197743
 H    1.9421705268    1.7611015458   -0.9057418791
 H    1.4698923059    3.1317876396    0.1188249863
 H    2.5236153597   -0.1068713985    2.2505468434
 H   -0.9764796215   -0.4096990607    0.2366595946
 H    0.3036703180   -0.3988812548   -0.9603046485