19

 C    0.0710661723    1.4497454209   -0.5177290830
 C    1.5090304042    1.5794575683    0.0622719412
 C    1.6307440096    2.2671892985    1.4403116621
 O    1.9976500349    1.2631289121    2.3851178123
 C    1.5921412966   -0.0141860264    1.9435422535
 O    0.3262050236   -0.4157212874    2.4200866800
 C   -0.6989052368   -0.0708387712    1.4897019494
 C   -0.0408623704    0.0239447122    0.0951354420
 C    1.4796231724    0.0659266259    0.4135453747
 H   -0.6632143858    2.1885425819   -0.1798180068
 H    0.0661396100    1.4315677248   -1.6099753768
 H    2.2758839390    1.9187335294   -0.6350390567
 H    2.4091441162    3.0358479331    1.4635147114
 H    0.6831264668    2.7423889538    1.7331568338
 H    2.3135553107   -0.7239524213    2.3546221761
 H   -1.4647266824   -0.8503589759    1.5454870679
 H   -1.1702041396    0.8816196948    1.7729452344
 H   -0.3918304252   -0.7586549752   -0.5784933684
 H    2.1416396938   -0.6052093583   -0.1303461871