21

 C    0.0705629733    1.4547319882    0.0084298710
 C   -0.0277157026   -0.0487219062   -0.0103156789
 C   -0.9252810640   -0.8129639607    0.9321144931
 C    0.5757534735   -0.9602886028    1.0425696468
 C    1.3324994009   -1.9412858019    0.1155731472
 C    2.3040546980   -2.9151385358    0.7207885871
 C    0.3201669407   -2.2977925187   -1.0019330557
 C    0.5292973409   -0.7928357572   -1.2498979191
 O    1.9332148814   -0.9894095300   -0.8557424761
 H    1.0648625133    1.7759433225   -0.3202048395
 H   -0.6716424806    1.9172292485   -0.6534956153
 H   -0.0948086462    1.8508614462    1.0155392830
 H   -1.3895243974   -0.2155478164    1.7127209678
 H   -1.5524721728   -1.6310234818    0.5987268153
 H    1.0973508963   -0.5717133366    1.9106590678
 H    1.7775206189   -3.6194925539    1.3728593968
 H    2.8265001085   -3.4795294519   -0.0560381520
 H    3.0498200106   -2.3865131511    1.3239407367
 H    0.8083489914   -2.8848943811   -1.7799101772
 H   -0.6623147276   -2.7085067036   -0.7681581910
 H    0.4104643535   -0.3218175558   -2.2261225276