17

 C   -0.0803860420    1.5970684370    0.0246224977
 C   -0.0185193781    0.0548606809   -0.0400765121
 C    0.8022733280   -0.4788837676   -1.2003592224
 C    1.8222400358   -1.2449217283   -0.8160586645
 C    1.9106965535   -1.3993728586    0.6765550163
 C    0.7888623340   -0.4898585885    1.1909148435
 O    0.5745274124   -0.1942428380    2.3325873063
 C   -1.3634611926   -0.5172137122   -0.0315702572
 C   -2.4670445400   -0.9945528164   -0.0300413392
 H    0.9279991540    2.0192561224   -0.0179127809
 H   -0.6616238587    1.9910344579   -0.8129994168
 H   -0.5528670823    1.9050594224    0.9600789814
 H    0.5405394978   -0.2435204771   -2.2252158772
 H    2.5235761421   -1.7205180817   -1.4917935776
 H    1.7391344377   -2.4291355766    1.0180713892
 H    2.8707218259   -1.0912272472    1.1079365824
 H   -3.4426521473   -1.4140062184   -0.0232956290