18

 C    0.3385500368    1.3657233986    0.1040406305
 C   -0.3914341209    0.0531185705   -0.1917738956
 N    0.1164813329   -0.6312511101   -1.3702456548
 C    0.9339713592   -1.7239086288   -1.2977663802
 O    1.2356723401   -2.2541528080   -0.2422858873
 C    1.4587818606   -2.2228501985   -2.6444328890
 C    1.7218949673   -3.7291580844   -2.6359809873
 H    1.4019443825    1.1826035764    0.2828206937
 H    0.2486887743    2.0703057005   -0.7302567254
 H   -0.0823447711    1.8454625476    0.9935475245
 H   -0.2689589419   -0.6463888002    0.6377032535
 H   -1.4648508243    0.2365027120   -0.3213164230
 H   -0.0534356290   -0.2191724285   -2.2733090834
 H    0.7679235350   -1.9469285713   -3.4499796526
 H    2.3943970878   -1.6825630042   -2.8422008791
 H    2.3553247185   -3.9909318795   -1.7862842806
 H    0.7883780784   -4.2915057453   -2.5382103608
 H    2.2148742037   -4.0440911768   -3.5599250232