17

 N    0.0382492498   -1.1050028202    0.6673071742
 C    0.0292347293   -0.0229980784    0.2619149477
 C    0.0352022907    1.3547271509   -0.2421302184
 C    1.3929611480    2.0036012315   -0.1437083177
 C    2.0798974047    2.5352276658   -1.1545048260
 C    3.3685302432    3.1735845968   -0.6979892662
 C    3.5195419234    2.6557209410    0.7572499963
 C    2.1041601128    2.1882902684    1.1801962299
 H   -0.3141766056    1.3487813314   -1.2797257733
 H   -0.7051212199    1.9214496218    0.3398280906
 H    1.7487654239    2.5499647792   -2.1879164199
 H    4.2226036043    2.9050098512   -1.3294467291
 H    3.2904319931    4.2693653686   -0.7395865263
 H    4.2002091389    1.7992962087    0.7671440246
 H    3.9357023602    3.4065589413    1.4328213587
 H    1.5836327385    2.9423925057    1.7887987446
 H    2.1239444845    1.2713406265    1.7792696804