20

 C   -0.6863252478    1.6142968793   -0.5332874338
 O   -0.4784569481    0.2297431045   -0.6820966773
 C   -0.5476250858   -0.4698689787    0.5365825733
 C   -0.3069909148   -1.9401203006    0.2303313433
 O   -0.3750640957   -2.6496210798    1.4511487021
 C   -0.1670770960   -4.0313805070    1.3035039712
 C   -0.2715874382   -4.6466594073    2.7046274552
 C   -0.0726287846   -6.0920611686    2.6859674845
 N    0.0873619209   -7.2357523193    2.6524422264
 H   -0.6136015695    2.0640327811   -1.5262367127
 H   -1.6806391511    1.8348328927   -0.1140777464
 H    0.0712343549    2.0724795154    0.1218506026
 H    0.2118088237   -0.1097972919    1.2498698692
 H   -1.5330287680   -0.3463347612    1.0149907892
 H   -1.0668841476   -2.3017815632   -0.4794293430
 H    0.6783660939   -2.0649699792   -0.2445226177
 H   -0.9202669131   -4.4792727226    0.6365075546
 H    0.8234940948   -4.2418400022    0.8707642765
 H    0.4746288990   -4.1849993017    3.3595599970
 H   -1.2560207267   -4.4202239294    3.1271612558