17

 C   -0.2816773093    1.5371531089    0.1942609002
 C   -0.0594916376    0.0698877960   -0.0779427270
 C    0.6933275777   -0.5600797329   -1.2112823220
 C    1.7263679713    0.1119006197   -2.0956611037
 N    2.0596425831    1.5093351420   -1.7719191925
 C    2.8984411090    0.4041480553   -1.2339901499
 C    2.4677225291    0.0954733591    0.1976002055
 O    3.0712726683    0.3635438101    1.2005562407
 N    1.2344729366   -0.6225605537    0.1564652267
 H    0.5307616768    2.1571815308   -0.1769696505
 H   -1.2114077778    1.8529328224   -0.2916433651
 H   -0.4006418856    1.6934086680    1.2715797240
 H   -0.8800009250   -0.5482888024    0.2879371427
 H    0.3193261578   -1.5050473543   -1.6011869945
 H    1.8285281080   -0.2349977022   -3.1172107373
 H    2.5481794416    1.9262195347   -2.5614995888
 H    3.9394825762    0.3287730187   -1.5241467184