21

 O   -0.0625828752    1.3545749877   -0.2815748524
 C   -0.0240361708   -0.0618785404   -0.1853039608
 C   -1.4264888693   -0.5495401536    0.1657435541
 C   -2.4146893736   -0.2863534514   -0.9881905590
 O   -2.3407562413   -1.4498227863   -1.8061972225
 C   -2.2897919724   -2.5363420012   -0.9125986851
 C   -3.5143812877   -3.4095969290   -0.7961163720
 C   -2.2656499788   -3.8964480445   -1.5181727051
 C   -1.4738966078   -2.0951097376    0.3040852164
 H    0.7850727668    1.6585430962   -0.6180169462
 H    0.2863795163   -0.5216753602   -1.1370814924
 H    0.6864599006   -0.3883922438    0.5908776214
 H   -1.7450416910   -0.0422811817    1.0806850465
 H   -3.4374653386   -0.1474804129   -0.6057092986
 H   -2.1404151615    0.5796354716   -1.5930593822
 H   -3.7579172913   -3.8471188214    0.1669404263
 H   -4.3675586480   -3.1471161034   -1.4116604439
 H   -2.3073083897   -3.9526366479   -2.6002832796
 H   -1.6565437958   -4.6605658103   -1.0463372328
 H   -0.4646245967   -2.5218752294    0.2814779711
 H   -1.9401348044   -2.4113690405    1.2401405769