20

 O   -0.4358673004   -0.7661201300    3.0043084531
 C   -0.4066098192   -1.8730977066    2.1648968372
 C   -1.6731307230   -2.6714792577    1.9076417105
 C   -1.0847330128   -1.7809359212    0.8267900756
 O   -1.6999475801   -0.5248375809    0.6400943052
 C   -0.4644286520   -2.3581225117   -0.4320119876
 C   -1.4607029979   -2.5121380740   -1.5625171491
 C   -1.3773698231   -3.6427353884   -2.5164834499
 N   -2.4803603148   -3.5779353010   -1.5384579664
 H   -0.9349360491   -0.0879850086    2.5271868877
 H    0.5322190854   -2.4160434076    2.2330698142
 H   -1.6027136348   -3.7488458957    1.7974458744
 H   -2.5706667258   -2.3173653298    2.4043967145
 H   -2.6138457261   -0.6692899193    0.3731358910
 H    0.3476315904   -1.6966879797   -0.7614135874
 H   -0.0110685427   -3.3291492466   -0.1967798869
 H   -1.8507529768   -1.5679568006   -1.9380232460
 H   -1.6756645943   -3.5100120940   -3.5524955856
 H   -0.5897047867   -4.3769386146   -2.3647536369
 H   -2.2888822663   -4.2150575619   -0.7685995677