23

 C   -1.0977513547   -1.0098163915   -0.2519058197
 C    0.1681324960   -0.1736024960   -0.0441206269
 C    0.8234167626   -0.3596718871    1.3366337150
 C    1.3176778729   -1.8032902700    1.6080463321
 C    2.6446451242   -1.6637598035    2.3918307339
 C    3.0685518275   -0.2493745413    2.0838849989
 C    2.0984795386    0.4526595746    1.5024909018
 O   -0.1283039343   -0.0831566306    2.3877461344
 C   -0.4721476866    1.2675630969    2.5963247485
 H   -1.8404230791   -0.7877058647    0.5186854358
 H   -1.5440848152   -0.8053574056   -1.2298603907
 H   -0.8823394830   -2.0821808215   -0.2036653299
 H    0.9166641207   -0.4197342921   -0.8069958137
 H   -0.0662156783    0.8883550946   -0.1910324867
 H    0.5549407669   -2.3699579078    2.1447481485
 H    1.5067228463   -2.3082010199    0.6557783018
 H    2.5044220616   -1.7996992153    3.4722538094
 H    3.3916412206   -2.4036247856    2.0830034730
 H    4.0523525853    0.1346587919    2.3342647692
 H    2.1722765056    1.4901352685    1.1955868463
 H    0.3910619663    1.8756728633    2.9016975780
 H   -0.9293396483    1.7359623951    1.7120642581
 H   -1.2069769357    1.2805893575    3.4059452429