16

 O    0.0517799972    1.4316063278   -0.0433920823
 C   -0.0263742531    0.0405493593    0.0162028005
 C    0.2140737994   -0.7374516091    1.3030457621
 C   -0.7661735775   -1.7737669893    0.8971643528
 N   -1.0801595720   -0.9071218868    2.0577990833
 C   -2.1148209712   -0.1860439936    1.2362298925
 C   -1.4299810722   -0.6817855778   -0.0400254076
 C   -2.1300491932   -0.8660484502   -1.3364463537
 O   -3.2385331801   -0.4484410033   -1.5686746508
 H   -0.3567405726    1.8044170669    0.7444046152
 H    0.6169022932   -0.3427580815   -0.7811089190
 H    1.1246597238   -0.8365135472    1.8790236769
 H   -0.7488406252   -2.8545820149    0.9033199517
 H   -3.0852676830   -0.6545995471    1.4066883985
 H   -2.1980268940    0.8937103513    1.4078511697
 H   -1.5520781495   -1.4258884645   -2.1072412096