18

 C    0.4487462983    0.1940373735   -1.0295131539
 C   -0.0784845270    0.0545682577    0.4059996252
 O    0.1945172205    1.2155480307    1.1457565730
 C   -1.5691536653   -0.2310249375    0.4273284881
 N   -2.3748085008    0.5749155651    0.9585239828
 O   -1.8245682312   -1.4492538957   -0.1962964279
 C   -3.0839887109   -1.9757863346   -0.3344161252
 C   -2.9994904939   -3.2998479112   -1.0459669825
 O   -4.0910432236   -1.4509146497    0.0564084573
 H    1.5167259755    0.4217413538   -0.9933928184
 H    0.3031675499   -0.7274743587   -1.5992762486
 H   -0.0607795666    1.0172396054   -1.5391307096
 H    0.4182634327   -0.8100238953    0.8764875997
 H   -0.6693350891    1.5600767022    1.4242277804
 H   -3.3432496427    0.2696458132    0.9064022752
 H   -2.3522405895   -3.9826112580   -0.4884353666
 H   -3.9986190854   -3.7223123206   -1.1421000988
 H   -2.5523455809   -3.1628526302   -2.0347487701