18

 C   -0.2478919183    1.3633172602   -0.1395538683
 O    1.0283120652    0.7237747572   -0.1493731843
 C   -0.1424492982   -0.0990736743   -0.0563525406
 C   -0.3200704964   -0.8004494258    1.2505096421
 N   -1.4535108930   -1.7360301478    1.3519161508
 C   -0.0910705911   -2.2632617837    1.4502496508
 C    0.3707255892   -3.2160071787    0.3875696920
 C   -0.5477068871   -4.1847182072   -0.2295894640
 O   -0.1015173571   -3.0294527267   -0.9427194809
 H   -0.4753690619    1.9405365725    0.7567443129
 H   -0.5484469767    1.8288664725   -1.0771557902
 H   -0.3619241888   -0.6944302200   -0.9373666274
 H   -0.1042317552   -0.1692298309    2.1120816257
 H   -1.8903409998   -1.6785658884    2.2667668005
 H    0.2755141725   -2.5434718420    2.4382691232
 H    1.4284920805   -3.4762147479    0.4522235494
 H   -0.1669702061   -5.1355353021   -0.5987565202
 H   -1.5956885178   -4.1641389266    0.0609621186