18

 O   -0.1019251517    1.4522181930   -0.0190791629
 C    0.0089828229    0.0381154214   -0.0004983766
 C   -1.4048616079   -0.5331358025    0.0453194155
 C   -1.3797263090   -2.0622802929    0.1576690749
 C   -0.3792334594   -2.6810135729   -0.8008948886
 C    0.5701523558   -1.9704559427   -1.4285064016
 C    0.7528848359   -0.4926331707   -1.2349851794
 C   -0.4787049584   -4.0911280555   -1.0170656077
 N   -0.5885439238   -5.2347672410   -1.1662411346
 H    0.7849998858    1.8264506344   -0.0134485412
 H    0.5484123090   -0.2923591390    0.9032204851
 H   -1.9473591213   -0.0964936543    0.8884761057
 H   -1.9303200957   -0.2302390924   -0.8682501277
 H   -1.1281945798   -2.3713252450    1.1811433129
 H   -2.3748059777   -2.4747103060   -0.0395891354
 H    1.2459416559   -2.4762224605   -2.1119531555
 H    0.3853337077    0.0467959462   -2.1201101992
 H    1.8249476617   -0.2628225696   -1.1682781838