16

 O   -0.4141548586    0.0336574549   -0.1969635160
 C   -0.0906065452    1.1818627299   -0.0442314307
 C    1.3119246578    1.7197137966   -0.2033732600
 C    1.3602944554    2.9125777463   -1.1640525412
 C    2.6395642775    3.7345427547   -0.9848493731
 O    3.3206075858    3.6918152253    0.0057609000
 N    2.9153360971    4.5617665495   -2.0826189947
 C    3.9600749250    5.4769539770   -2.2247597707
 O    4.8126590624    5.7177461858   -1.4188759851
 H   -0.8427470697    1.9562090646    0.2433006913
 H    1.6623369761    2.0680660529    0.7772678823
 H    1.9726593940    0.9120126393   -0.5267346486
 H    1.2585586098    2.5842043407   -2.2048841548
 H    0.5152334962    3.5904250741   -0.9723026179
 H    2.2846855681    4.4999061978   -2.8689319599
 H    3.8959897182    5.9707467709   -3.2160516009