16

 C    0.0247657800    1.5682204151   -0.4595765352
 C   -0.0421632569    0.0950596265   -0.1312047407
 C   -1.4023618956   -0.4390381296    0.3308676658
 C   -1.9145759558    0.2337380721    1.5145035259
 C   -2.3343463894    0.7992052037    2.4960852456
 C   -2.8148911902    1.4358592171    3.6040295786
 N   -3.2260427559    1.9794441683    4.5448263716
 C    0.8877020501   -0.8575899191   -0.7543025179
 O    1.0661299166   -0.4298968756    0.5997221498
 H    1.0379952929    1.8414053664   -0.7615650901
 H   -0.6636211928    1.8181774372   -1.2740464034
 H   -0.2496866215    2.1701954848    0.4118295472
 H   -2.1302367670   -0.3323116035   -0.4845595490
 H   -1.3088009688   -1.5104878885    0.5401073261
 H    0.5985627342   -1.9002805231   -0.8814416942
 H    1.6307595501   -0.4943339319   -1.4624087900