14

 C   -0.0106412469    1.5245188332   -0.0572447177
 N    1.3639058784    2.0053530631    0.1233656646
 C    2.3336378271    1.2111177089    0.2733701350
 O    2.3567752263   -0.1596991244    0.3038918126
 C    1.1137797429   -0.7080615443    0.1428824098
 C   -0.0151447746    0.0338758802   -0.0281053446
 N   -1.0131945378   -0.9135843305   -0.1472357918
 C   -0.4178137256   -2.1388474279   -0.0404371232
 N    0.8857773674   -2.0452050227    0.1380375201
 H   -0.6343750040    1.9698036833    0.7323579982
 H   -0.3941882390    1.9351494580   -1.0033265823
 H    3.3440498330    1.5882857168    0.4056444613
 H   -1.9945434713   -0.7398765940   -0.2864357261
 H   -0.9786136160   -3.0586810496   -0.0996594759