16

 C   -0.1041301064    1.5613445539   -0.0220952745
 C    0.0933604583    0.0442292915    0.0713140579
 C    0.7386623461   -0.5326078728   -1.1867406517
 C    0.8038081662   -2.0844195315   -1.3372147772
 N   -0.0180684472   -1.9366547010   -2.5411764910
 C   -0.1603421770   -0.5733241307   -2.4532707660
 O   -0.7732557294    0.2291662788   -3.1076982183
 H    0.8579118855    2.0779059420   -0.1121806166
 H   -0.7036916920    1.8179948608   -0.8994040022
 H   -0.6077610855    1.9470222353    0.8693045765
 H    0.7158515915   -0.2034557884    0.9405119810
 H   -0.8749282063   -0.4467948411    0.2343801597
 H    1.6987540116   -0.0470823168   -1.3885792400
 H    1.7979930392   -2.5043390266   -1.5193912781
 H    0.3147833624   -2.6371712277   -0.5275988454
 H   -0.4376923168   -2.6134348058   -3.1611897540