13

 N    0.1159503637    0.9824010323   -0.9974106242
 C    0.0351278123    0.1826646780   -0.0162207610
 O    1.0477537735    0.0610359010    0.8984517416
 N    1.4701710986   -1.2521039480    1.3152288475
 C    0.5982990712   -1.9193870669    1.9542680999
 C   -0.8181046079   -1.5555703800    2.2526005351
 N   -1.2184708010   -1.7133196398    3.4485153641
 N   -1.6611171524   -1.1907490889    1.1931152277
 C   -1.2639044828   -0.5032207809    0.1977435651
 H    1.0409177651    1.4179060077   -1.0264050782
 H    0.9598275538   -2.8697589379    2.3425646008
 H   -2.2079080115   -1.4580075705    3.5170375540
 H   -1.9702501828   -0.3093023961   -0.6086578724