15

 O   -0.1523460501   -0.0333570292   -0.3403241007
 C   -0.0345182170    1.1397997223   -0.0745357106
 N   -1.0870858756    2.0254139531    0.1674818647
 C   -0.6412540290    3.3196470229    0.4944698846
 C    0.6747067025    3.4135670327    0.2598821031
 C    1.8977921695    3.8328185577    1.0468030158
 C    2.1791210748    2.2900152097    1.1569096516
 C    1.2069853007    2.0373489407   -0.0600077149
 H   -2.0481701624    1.7271416103    0.1292507379
 H   -1.3110214121    4.0028448175    0.9996424661
 H    2.6613024045    4.3405571645    0.4491066915
 H    1.7427155475    4.3871892999    1.9748453316
 H    3.2095651009    1.9600837613    1.0106246208
 H    1.7859793077    1.8744139492    2.0861118866
 H    1.7630660779    1.9044687473   -0.9916548184