11

 N   -0.0646139940    1.2383993940   -0.0226028936
 C   -0.1167791593   -0.0171372978    0.0539255440
 O   -0.8420901283   -0.7163460305   -0.8499404616
 C   -0.9746467123   -2.1101995478   -0.6433900564
 C   -2.2941539613   -2.4507313754    0.0440418027
 O   -2.5949110791   -3.5682802274    0.3644819439
 H    0.5357883493    1.6099850001    0.7102325904
 H    0.3894830064   -0.6553706518    0.7920333533
 H   -0.9582160964   -2.5928601381   -1.6264077490
 H   -0.1450533642   -2.5254924703   -0.0560548266
 H   -2.9564007807   -1.5726913650    0.2129745029