11

 N   -0.0466400947    1.2652432811    0.3437614670
 C   -0.0572158530    0.0576730740   -0.0458629174
 O    1.1264695269   -0.5737816584   -0.4208699927
 N    1.1913278875   -1.8942734614   -0.8578922973
 C    0.0827612892   -2.5441124865   -0.9086829957
 C   -1.2088312632   -2.0086882683   -0.5492195578
 C   -1.2700663493   -0.7359138553   -0.1281680850
 H    0.9016337014    1.6440366809    0.3298583436
 H    0.1895816772   -3.5673640865   -1.2554872716
 H   -2.0876450014   -2.6379163940   -0.6264254643
 H   -2.1873142307   -0.2405440056    0.1644057713