17

 C   -0.5714872495    1.4112398000    0.2021955234
 C    0.0747906948    0.0808065877   -0.0578704136
 C   -0.0485429155   -0.5730654302   -1.2142292644
 C    0.6108368584   -1.9033057403   -1.4395514211
 O    0.1075763007   -2.9548691100   -0.5907042971
 C    0.2227776090   -2.8210555292    0.7523805900
 N    0.5622868835   -1.8681279479    1.5065323684
 C    0.8974537616   -0.5145630719    1.0774944960
 H    0.1775137441    2.1604737897    0.4898739661
 H   -1.1063969507    1.7821910094   -0.6759646254
 H   -1.2800155932    1.3455776152    1.0374544581
 H   -0.6470583895   -0.1599541179   -2.0214372521
 H    0.4320642234   -2.2704565254   -2.4515494025
 H    1.6983386262   -1.8398234324   -1.2957189633
 H   -0.0532582998   -3.7736312561    1.2073335957
 H    1.9676191433   -0.4684587852    0.8197333106
 H    0.7901852034    0.1229792845    1.9616410013