18

 O   -0.0054708081    1.4061098977   -0.3100114335
 C    0.0263869611    0.0398777902    0.0710839568
 C   -1.3774032100   -0.5254986862   -0.0988057466
 C   -1.4605470620   -2.0154866879    0.2779064804
 C   -2.8369148405   -2.5813338561    0.1177781934
 N   -3.6981869861   -2.6527667404    1.1381184980
 N   -4.7872652511   -3.1739707517    0.5870721440
 N   -4.7235213796   -3.4582005879   -0.7051515338
 C   -3.4847579453   -3.0854203759   -1.0275959375
 H    0.8753685411    1.7728836886   -0.1912791486
 H    0.7356851062   -0.5319112993   -0.5508165543
 H    0.3487230620   -0.0763132862    1.1191694195
 H   -2.0707721507    0.0515147986    0.5225481939
 H   -1.6914418133   -0.3813054086   -1.1389715944
 H   -0.7605109185   -2.5891880364   -0.3417698857
 H   -1.1491505247   -2.1502217029    1.3191589646
 H   -5.6163448233   -3.3579982087    1.1281560605
 H   -3.1191038871   -3.1948996570   -2.0364335766