16

 O   -0.0151273035    1.4919684391   -0.0652292480
 C    0.0659503590    0.0872117577   -0.0297201814
 C    0.0643341507   -0.6054093867    1.3497251197
 C   -1.4726210696   -0.3566587755    1.5379921582
 N   -1.8378841799   -1.7892793823    1.7849902315
 C   -0.7235666159   -1.8460992673    0.7698742298
 C   -0.1863697517   -3.0559565569    0.2278800370
 C    0.2773004606   -4.0731605945   -0.2166661777
 C   -1.3017247728   -0.5995500198    0.0051201060
 H    0.8738299978    1.8497980247    0.0210588599
 H    0.7817048749   -0.3051778437   -0.7640838957
 H    0.8303291730   -0.6429138977    2.1268005229
 H   -1.9674172058    0.4773219209    2.0293626963
 H   -1.4839105772   -2.0920943972    2.6977476560
 H    0.6775347685   -4.9736740120   -0.6126119715
 H   -2.0926724481   -0.6285242489   -0.7422635632