16

 O    0.1906160431    1.2864776537    0.3956663054
 C   -0.0586289829    0.1456138150   -0.4374751552
 C   -1.3708886427   -0.4932885463   -0.1734266260
 C   -1.7175468019   -1.7759100847    0.1784653918
 O   -0.8121416845   -2.7862416052    0.3409435928
 C   -3.1389373802   -1.8601870348    0.3113351453
 C   -3.6125608021   -0.5944953528    0.0364397857
 O   -4.8591758972   -0.0622681384    0.0286203859
 N   -2.5734619371    0.2173807888   -0.2722966094
 H    0.0916264907    0.9873745992    1.3063606188
 H    0.0080405082    0.5426144809   -1.4584861168
 H    0.7240766978   -0.6176331398   -0.3320913900
 H   -1.2832265214   -3.5773192236    0.6155981890
 H   -3.7268799294   -2.7320309220    0.5559069216
 H   -5.4823802451   -0.7423987610    0.3005500996
 H   -2.6379790355    1.2154766009   -0.3767745386