17

 O    0.0117387772    0.0710638094    0.2465494892
 C   -0.0503398116    1.2619675971    0.0881962317
 C   -1.3306018803    2.0936504620   -0.0769264834
 C   -0.8231013454    3.5092767022   -0.0099902628
 C    0.5074283068    3.5761065504    0.0676953572
 C    1.1599159089    2.2188720225    0.0649959775
 C    2.1325644373    1.9233357325    1.2327704068
 C    3.3405848654    2.7347024401    1.1783811769
 C    4.3254283941    3.4205090278    1.1076777232
 H   -1.8100806260    1.8483012362   -1.0346598399
 H   -2.0583099700    1.8338092913    0.7014211685
 H   -1.4866661774    4.3659736904   -0.0308866890
 H    1.0878835554    4.4893509924    0.1229236234
 H    1.7117883681    2.0453030229   -0.8703298039
 H    1.6156443407    2.0921875468    2.1856892788
 H    2.3833339599    0.8569016361    1.1991494346
 H    5.2040430469    4.0146670700    1.0591273412