17

 O    0.1082195644    1.5336221216    0.0609017982
 C    0.0455940746    0.1253688781    0.0372880687
 C    0.2638082752   -0.6419009915    1.3967690307
 C   -1.1659154763   -1.1603033514    1.3353614023
 O   -1.4592631463   -2.4727361885    1.5580855177
 C   -2.1587509761   -0.0847393345    1.2137576279
 C   -1.3770054432   -0.3988289594   -0.0644598784
 C   -1.9848157375   -1.1601078028   -1.1344672029
 O   -2.9476463216   -1.8939046816   -0.9594959664
 H    1.0250022450    1.7950647838    0.1963805804
 H    0.6838524442   -0.2905282135   -0.7542455902
 H    0.9947491156   -1.4473454526    1.3084223233
 H    0.5015042831   -0.0160178791    2.2622185963
 H   -2.2658871247   -2.6786756312    1.0572750731
 H   -3.1931326768   -0.4087428643    1.1688222661
 H   -1.9904325724    0.8927880272    1.6559883643
 H   -1.4770475771   -1.1146688003   -2.1215038011