15

 O   -0.0446241305    0.0070351208   -0.3870176161
 C   -0.0676437268    1.1697106451   -0.1276024323
 C   -1.1871535825    2.1940908315    0.0939913424
 C   -1.5536250242    2.3163161312    1.5954249139
 O   -0.4691483649    3.2404089152    1.8344969561
 C   -0.1003159276    3.2541737085    0.4521244639
 C    1.0465504794    2.2491909373    0.0987710708
 C    2.1208098987    2.0069672477    1.0280847801
 C    3.0024355695    1.7900894949    1.8153994015
 H   -1.9775666362    2.2836643334   -0.6487543925
 H   -2.5262473000    2.7905370469    1.7681353820
 H   -1.4785993674    1.4062112792    2.1995913482
 H   -0.0271019305    4.2597475439    0.0353515008
 H    1.4327917015    2.5019732674   -0.9004075859
 H    3.7804498014    1.6019031471    2.5131344772