15

 O    0.0020983663   -0.0154476782   -0.0409583909
 C   -0.0136926459    1.1718326821   -0.0074969144
 O   -1.1507807678    1.9266602299    0.0305593533
 C   -0.8119603291    3.3117507225    0.0732552627
 C   -0.8088437489    4.0126448638    1.4341134251
 C   -0.0076375508    3.2376555787    2.4357758868
 C    0.7435871676    4.0339006323    1.4122888556
 C    0.7276351922    3.3328388845    0.0516063827
 O    1.1029200750    1.9575283999   -0.0011332202
 H   -1.3405984093    3.8369161822   -0.7220477295
 H   -1.4968778302    4.7968438647    1.7211399186
 H    0.0004729383    3.6675567123    3.4316092374
 H    0.0071539862    2.1527337172    2.4312729477
 H    1.4176928505    4.8367492782    1.6801669276
 H    1.2191289259    3.8719766000   -0.7580407124