12

 O   -0.0083407945    1.4247860969    0.3064265711
 C   -0.0328465927    0.0546868864    0.1161118230
 C   -0.4833147349   -0.8079436467    1.2755235904
 O   -1.1871961613   -0.1478415486    2.2962754542
 C   -2.3341154453    0.3931901105    1.7960304234
 O   -3.1037427505    1.0553449286    2.4077645928
 O   -2.4719511259    0.0568769614    0.4742983049
 C   -1.3551468541   -0.6881217355    0.0534637748
 H   -0.4851881934    1.8482260127   -0.4163710431
 H    0.7680404668   -0.3730093955   -0.4879254163
 H    0.0509864437   -1.6856619327    1.6128188806
 H   -1.5903313979   -1.4625643576   -0.6648374257