18

 O    0.1599264260    0.0779751146    0.5099314421
 C    0.0855670522    1.1962664437    0.0586503540
 N    1.1019523608    1.8588843988   -0.6030335491
 C    2.4860171274    1.8293625651   -0.1684750617
 C    3.3499972966    2.3393540216   -1.3361818830
 C    2.5279253563    3.6560836734   -1.3012060060
 C    3.0759886620    5.0474550720   -1.4060720065
 C    2.0848923687    4.5345695714   -2.4288478819
 C    1.6985513326    3.1180493067   -0.1514828276
 H   -0.8506191214    1.7877574565    0.0573926647
 H    2.7714185333    1.1863545874    0.6536666599
 H    4.3942645045    2.4900516811   -1.0513656071
 H    3.2962750570    1.7429944699   -2.2500615591
 H    2.7346143356    5.7888965373   -0.6904242407
 H    4.1122374748    5.1652896628   -1.7065186580
 H    2.4530540914    4.3044633310   -3.4231970675
 H    1.0737109114    4.9273864837   -2.4086165770
 H    1.2728046509    3.6552968731    0.6888688446