19

 O    0.1844564599    1.3933145494    0.0358627537
 C    0.0547094812   -0.0117349278    0.0308640246
 C   -1.4110750219   -0.4867121432    0.0781945488
 C   -2.0652388745   -0.0779261721    1.3467103674
 N   -2.6305615457    0.2508088242    2.3002711545
 N   -2.1509904703   -0.0658655519   -1.0989861256
 C   -2.6714666947    1.3212143475   -1.2323614795
 C   -3.9320459253    0.7454732106   -1.9189645015
 C   -3.5071923403   -0.6191691886   -1.3268468980
 H   -0.0307321669    1.7167979934   -0.8438383032
 H    0.5147172557   -0.4644842039   -0.8574194484
 H    0.5794841403   -0.3781283969    0.9186665133
 H   -1.3897009962   -1.5848207725    0.0687008637
 H   -2.8934732070    1.7966873393   -0.2680318525
 H   -2.0400065468    1.9928316770   -1.8242126260
 H   -4.8930158752    1.1444458199   -1.5958418198
 H   -3.8722499812    0.7720037776   -3.0081100497
 H   -3.5307351448   -1.4987761677   -1.9780040726
 H   -4.0417784163   -0.8469662145   -0.3931667192