20

 C   -0.1353249415    1.5129074809   -0.0158843574
 C    0.0756351413    0.0389245607    0.0207994309
 C    0.3731308174   -1.0041069393   -0.9897187825
 C    1.4169578155   -1.6749220075   -0.0989524296
 C    0.6876221786   -0.9752076245    1.0818911982
 C   -0.6835972324   -1.6269424674    1.0280424339
 C   -1.1762698182   -2.9687044594    1.4536208415
 C   -1.7395002336   -1.6952552431    2.0755631532
 N   -0.9682255268   -0.9896105136   -0.2788722482
 H    0.8186722115    2.0516405262   -0.0253080465
 H   -0.6934757457    1.7872697380   -0.9164425626
 H   -0.7080674005    1.8540595560    0.8535955647
 H    0.3327267661   -0.9450194562   -2.0699973594
 H    1.4734156174   -2.7680178156   -0.0746298126
 H    2.4084515767   -1.2514961875   -0.2808654672
 H    1.1999968229   -0.7466932467    2.0150885081
 H   -1.8132548146   -3.5116425574    0.7636402243
 H   -0.5284078262   -3.5936999910    2.0605354424
 H   -1.4707131862   -1.4651284369    3.1016200845
 H   -2.7439765516   -1.4006587058    1.7911698844