17

 O    0.3630524814    0.0972938973    0.1859621840
 C    0.1593689250    1.2414542353   -0.0621795042
 O   -0.9844866182    1.8053933736   -0.5686722394
 C   -0.4104424669    3.1518984211   -0.5075932845
 C    0.9101796034    2.5760695778    0.0441436742
 C    1.3699467632    2.9654065298    1.4388843819
 C    2.6331700849    2.2228431954    1.9351606250
 O    3.4312472314    3.4206229497    1.8214097630
 C    2.2706184793    4.2203748995    1.5295061765
 H   -0.3735584098    3.6016767468   -1.5012913194
 H   -0.9817658642    3.7814244944    0.1787747510
 H    1.7435681484    2.6300671437   -0.6633032296
 H    0.5273254083    2.9511646316    2.1349520961
 H    2.5752152964    1.8638655691    2.9699421252
 H    3.0013541313    1.4125778860    1.2968012600
 H    2.3904668236    4.8038420670    0.6077745364
 H    2.0222930125    4.9037449518    2.3522352439