18

 C    0.0420676179   -1.2132025494   -0.1921879891
 C   -0.0235403009   -0.0192075795   -0.0655600902
 C   -0.0674685193    1.4089802147    0.0855626632
 N   -1.1799446405    2.0137043328    0.0762219924
 C   -1.2716081987    3.4667072621    0.0831128608
 C   -0.6168091195    4.1937049881    1.2669919633
 C    0.9117846832    4.1747475946    1.2221261608
 C    1.4986868602    2.7720170539    1.3017902820
 O    1.1951800876    1.9426820487    0.1703068526
 H    0.0871189570   -2.2682704313   -0.3059959788
 H   -0.8366111161    3.8510684090   -0.8525968928
 H   -2.3368538701    3.7149495083    0.0604049342
 H   -0.9687695830    5.2317834539    1.2620421545
 H   -0.9729390478    3.7446375084    2.2030915988
 H    1.2650789643    4.6537145245    0.3001388193
 H    1.3208756060    4.7546228348    2.0589156272
 H    2.5907494042    2.8128730035    1.3226890020
 H    1.1592769659    2.2651320527    2.2152711298