14

 C    0.0250286458    1.4809593858    0.1723122474
 O    1.3095634394    2.1371083434   -0.0675025161
 C    2.1086247586    1.4520867504   -0.8847485428
 C    2.0265004343    0.1234109788   -1.2404531056
 C    0.9649007324   -0.6766996143   -0.6753128473
 C    0.0365022204   -0.0264413972    0.0400574939
 N    3.0878675194   -0.1670884801   -2.0436297484
 N    3.8161742802    0.8970791275   -2.2021693722
 N    3.2188132041    1.9084279338   -1.4824377208
 H   -0.2603488622    1.7895943641    1.1815741278
 H   -0.6976369590    1.9279623079   -0.5284025156
 H    0.9607313171   -1.7536968651   -0.7944621317
 H   -0.7776303304   -0.5473896866    0.5318260220
 H    3.6283392298    2.8282082216   -1.4667789304