15

 O    0.2252104406    1.2952990770   -0.3702238439
 C    0.0448706236   -0.0553292628   -0.1299868573
 C   -0.5640053709   -0.9088368991   -1.2129223986
 C   -1.3048051186   -0.7333567079    0.0935635315
 C   -1.0774452961   -1.8420412774    1.1164116305
 O   -0.1613037003   -2.8480515952    0.6813094425
 C    0.3284230293   -1.8334510067    1.5721788268
 C    0.9754950946   -0.6400057499    0.9013547651
 O    1.9595189127   -0.0557039936    1.2929657536
 H    0.9998572770    1.5495894721    0.1534560802
 H   -0.9323843443   -0.3228227613   -2.0481262401
 H   -0.1507795924   -1.8783228028   -1.4557776185
 H   -2.2235829375   -0.1618717088    0.1274027002
 H   -1.8903482650   -2.1880988643    1.7474962481
 H    0.6923686973   -2.1631138193    2.5398538399