16

 N   -0.1271094461   -1.1310594401   -0.6088386566
 C   -0.1350781586   -0.0284704883   -0.2618255239
 C   -0.1464095503    1.3512553952    0.2070173312
 C   -0.4485322036    1.5000272858    1.7281849865
 N    0.0567534980    2.8179785972    2.0967154890
 C    1.3076312887    2.9879809503    1.3302032297
 C    1.2174487409    2.0776952552    0.0485141370
 C    1.5490152123    4.3945731791    1.0133956424
 N    1.7252280876    5.5041299814    0.7439396988
 H   -0.9152683426    1.8941582624   -0.3533352839
 H   -1.5094329260    1.4074704746    1.9651612096
 H    0.0934191470    0.7274312974    2.2854938518
 H   -0.6082563385    3.5339541040    1.8207905825
 H    2.1421675594    2.6392594299    1.9496932770
 H    2.0435642285    1.3649115119    0.0337941504
 H    1.2590523633    2.6591390639   -0.8727323413