25

 C   -0.3375203722    1.3746789229   -0.1389943961
 O   -0.4295272259    0.0127499614   -0.4896341432
 C    0.6654481319   -0.5232387500   -1.2121086352
 C    0.7492864308    0.0801882896   -2.6147199017
 C    2.0485867526   -0.5484843496   -0.4919503140
 C    2.1950996050   -2.0356181493   -0.9062641148
 C    0.6595319144   -2.1020218957   -1.1748954084
 C   -0.0929182822   -2.6381426697    0.0488660053
 C    0.2088943614   -2.8511629433   -2.4270204144
 H    0.6049960238    1.6047908659    0.3794290810
 H   -0.4262500522    2.0453948969   -1.0055987504
 H   -1.1674767394    1.5829792282    0.5414645326
 H    0.9471549725    1.1555978780   -2.5634197149
 H    1.5630385148   -0.3669987577   -3.1923210516
 H   -0.1864526979   -0.0711761813   -3.1608907381
 H    2.8100830290    0.1517250661   -0.8447745915
 H    1.9374816820   -0.4334212830    0.5889641821
 H    2.7833386538   -2.1566293777   -1.8203928090
 H    2.5848901610   -2.7239831574   -0.1521166759
 H    0.2203855961   -2.1477577814    0.9737356283
 H   -1.1705343344   -2.4837253399   -0.0522329153
 H    0.0940217890   -3.7130869111    0.1534549652
 H    0.3861497633   -3.9262853795   -2.3074716849
 H   -0.8634640488   -2.7144797772   -2.6081430739
 H    0.7460055215   -2.5289929052   -3.3233082911