15

 O   -0.8815403863    1.2743978280    0.1978846797
 C    0.2160840888    0.8861162649   -0.1292640014
 C    1.3970826439    1.7137048089   -0.1374175037
 C    2.4110092440    2.3701792057   -0.1598715001
 C    3.5798817157    3.1873300276   -0.1525444245
 N    4.7543070235    2.7456642883   -0.4285992924
 C    5.6513439483    3.9095370297   -0.3285993862
 C    4.8292099956    5.0270271496    0.3680933966
 N    3.4611674512    4.5474555494    0.1263460596
 H    0.3936978436   -0.1584018871   -0.4526894134
 H    6.5635872859    3.6448489004    0.2121850922
 H    5.9485117462    4.2061642548   -1.3431357425
 H    5.0501721814    5.0836031776    1.4429224899
 H    4.9885431012    6.0151419718   -0.0701199095
 H    2.7252685471    4.8326938902    0.7562172457