18

 C    0.0605759252    1.6187106378    0.1133294110
 C    1.5681459866    1.5612396543   -0.1325498644
 C    2.2787612800    0.6149526430    0.8139188981
 C    1.8934275290    0.3168294920    2.2628113999
 C    0.6171008697   -0.4748233855    2.4017470626
 C   -0.2462939843   -0.6192518840    1.3971862017
 C    0.0119151176    0.0419272701    0.0717520756
 C    1.5042930756    0.0504914729   -0.3396531861
 H   -0.2875527899    2.0930051444    1.0363095474
 H   -0.4738025642    2.0581369531   -0.7332941802
 H    2.1330206417    2.2973439765   -0.6930983698
 H    3.3527185537    0.6247200380    0.6451583365
 H    2.7095958259   -0.2445310877    2.7374434545
 H    1.8190475057    1.2505595215    2.8397820607
 H    0.4272271642   -0.9343291561    3.3683747724
 H   -1.1611576470   -1.1900003078    1.5301164297
 H   -0.6553188350   -0.3291947435   -0.7069050242
 H    1.9435110953   -0.5727996088   -1.1088736755