14

 C    0.0062521915    1.5318898872    0.0552969536
 C    0.0590471944    0.0134151613    0.0485913941
 C   -1.1157043834   -0.6297183118   -0.4991436634
 N   -2.0540439753   -1.1357385826   -0.9470717912
 C    1.3250042917   -0.7780218998   -0.1653758840
 O    2.4539814680   -0.0334003561    0.3401130540
 C    1.9504778630   -0.1405199421    1.6405947535
 O    2.4691374839    0.2046426240    2.6462811304
 C    0.6881886777   -0.8395485220    1.1927445637
 H    0.9640744073    1.9483032178    0.3692167205
 H   -0.2164604810    1.9011094956   -0.9493983550
 H   -0.7751070594    1.8846265860    0.7329291383
 H    1.5074841280   -1.5289560346   -0.9202771635
 H    0.1391727637   -1.6117211529    1.7102584091