20

 C    0.0508277309    1.3589405108    0.1381287569
 C   -0.0826294006   -0.1646726398   -0.0052404774
 C   -1.4868007733   -0.5774328502   -0.0358696477
 C   -2.6481739689   -0.8980517699   -0.0400601580
 C   -4.0409942144   -1.3422173834   -0.0665848915
 O   -4.2430941904   -2.6202071256    0.5227273949
 N    0.5976918564   -0.5956014402   -1.2362339356
 C    2.0215322214   -0.8911998806   -1.0982453493
 C    1.0297772482   -1.9872387988   -1.2769609595
 H    1.1074145667    1.6383607261    0.1860091981
 H   -0.4031289096    1.8557711575   -0.7223462750
 H   -0.4450265643    1.7030317363    1.0490044879
 H    0.3862900337   -0.6375587509    0.8795497079
 H   -4.6684315504   -0.6495976144    0.5054817710
 H   -4.4088500838   -1.3175720340   -1.1049323492
 H   -3.6170429180   -3.2258621992    0.1124901660
 H    2.6526233173   -0.5706812903   -1.9218486636
 H    2.4722783025   -0.7882359815   -0.1118434371
 H    0.8205183180   -2.6128235250   -0.4106629836
 H    0.9205749788   -2.4866850070   -2.2350531652