21

 C    0.0580394887    1.4953981171    0.0206517392
 C    0.0525832965   -0.0176343488    0.0246491238
 O    0.7250000648   -0.4530933781   -1.1400610422
 C    0.9431173739   -1.8372767386   -1.1873131584
 C    2.2326729180   -2.3584430981   -0.6091187422
 C    0.9218028768   -2.6235155433    0.0995175708
 C    0.5507018879   -1.8790411952    1.3716939289
 C    1.3789709486   -2.2739785768    2.5852541131
 O    0.7021482564   -0.4707967336    1.1873953068
 H    1.0889886256    1.8552604567    0.0607836325
 H   -0.4127634020    1.8675324910   -0.8920149567
 H   -0.4865540636    1.8733818497    0.8887197987
 H   -0.9786453478   -0.4184721979    0.0173019216
 H    0.5486605277   -2.2879858446   -2.0942259917
 H    2.7337158886   -3.1877662250   -1.0959747048
 H    2.8870862387   -1.6051210012   -0.1845935647
 H    0.5302477720   -3.6350728105    0.0464997179
 H   -0.5142360475   -2.0848522103    1.5792456220
 H    2.4405326137   -2.0866130129    2.4028863790
 H    1.0686999286   -1.6948066429    3.4594093194
 H    1.2468403844   -3.3376541567    2.8053816970