23

 C   -0.6233022405    0.2802933795   -2.7238290398
 C   -0.2452978907   -0.5897696984   -1.5148531796
 C    0.8504293955    0.0756829866   -0.6691864597
 C   -1.4757982941   -0.8793750123   -0.6710883167
 C   -2.4934913057   -1.9259206673   -1.0644780249
 O   -2.2107943577   -2.6595864487   -2.2249339937
 C   -1.6522432787   -2.1081972156    0.1883816650
 C   -0.6228146144   -3.2111461386    0.2643250815
 O   -2.2892119849   -1.8226504153    1.4118730078
 H    0.2557430517    0.4970772813   -3.3402552500
 H   -1.3646785656   -0.2246679490   -3.3489289201
 H   -1.0462400841    1.2389761733   -2.4000118996
 H    0.1446667654   -1.5364425309   -1.9025760065
 H    1.1424414957   -0.5524372744    0.1780687000
 H    1.7447591962    0.2709957474   -1.2706054368
 H    0.5051597705    1.0352568479   -0.2664056631
 H   -1.9172684733    0.0085538621   -0.2227294662
 H   -3.5450492018   -1.6800607826   -0.9129409219
 H   -2.5701204755   -3.5463141367   -2.1171724144
 H   -0.2022442488   -3.4388372449   -0.7168121220
 H    0.1900775031   -2.9416955773    0.9454125832
 H   -1.0827816080   -4.1319284372    0.6481960862
 H   -2.7775561443   -2.6092505792    1.6816200915