22

 C   -0.1463478874    1.5919763764   -0.0461062179
 C   -0.0849213315    0.0625982582   -0.0360740333
 C    0.7616721811   -0.5010647177   -1.1839109993
 C    0.8286429319   -2.0345016036   -1.2089517464
 C    1.3462268913   -2.5518479520   -2.5606786848
 O    1.0474349972   -3.9455307037   -2.6710928668
 C    1.6896879543   -2.5732946978   -0.0480708258
 N    1.6649713797   -3.9309939955    0.0903063191
 O    2.3222323894   -1.8471327976    0.6979017303
 H    0.8536197278    2.0268741002    0.0598466017
 H   -0.5740232480    1.9700338361   -0.9821118033
 H   -0.7611854168    1.9706244490    0.7764667944
 H    0.3339746857   -0.2838506882    0.9130341398
 H   -1.1029051904   -0.3451182540   -0.1043944337
 H    0.3480451574   -0.1509537800   -2.1389957511
 H    1.7796521795   -0.1032563301   -1.1074943349
 H   -0.1834635777   -2.4463471912   -1.0953423973
 H    0.8495486981   -1.9970002641   -3.3687625770
 H    2.4283020111   -2.3731457178   -2.6464451946
 H    1.5136998867   -4.2981973704   -3.4344610190
 H    1.3635283270   -4.4881484514   -0.6963793930
 H    2.3191820036   -4.3279344548    0.7467615630