16

 C    0.0213515819   -1.2264597547    0.0388558372
 C    0.0314284378   -0.0320076642    0.1712161902
 C    0.0766385152    1.4169329918    0.3159930977
 C    1.3458380045    2.0358293500   -0.3229740071
 C    1.4036973193    3.5211236201   -0.1373651759
 N    1.1966585852    4.3208308095   -1.1584069393
 O    1.2973291605    5.6162063116   -0.6580822055
 C    1.5626587830    5.5528734445    0.6534058054
 C    1.6447138894    4.2623524772    1.0596242290
 H   -0.0019135992   -2.2820016196   -0.0734965111
 H   -0.8098643009    1.8666531796   -0.1469306378
 H    0.0342706546    1.6822545733    1.3797567131
 H    2.2311028845    1.5710291063    0.1230569773
 H    1.3603312934    1.8117067534   -1.3920114533
 H    1.6694653721    6.5007782606    1.1580580251
 H    1.8510190886    3.8881150305    2.0485989250