25

 C    0.0275446941    1.6480018455    0.1216491653
 C    0.0964424691    0.1129268823    0.1637575264
 C    0.7631989480   -0.3434759106    1.4714690285
 C   -1.2723502064   -0.5726632323   -0.1017388481
 C   -2.3223267149   -0.2322536103    0.9728803683
 C   -1.8542665644   -0.1865716671   -1.5028457051
 C   -2.4492715336   -1.4697866863   -2.0243987887
 C   -2.0600355799   -2.5234239739   -1.3103250162
 C   -1.1363355556   -2.1299807708   -0.1857491748
 H    1.0323008356    2.0769416487    0.1981097032
 H   -0.4182818956    2.0152200493   -0.8073417788
 H   -0.5591229506    2.0479274155    0.9556277797
 H    0.7511772446   -0.2044661525   -0.6613510690
 H    0.2003377567   -0.0078866002    2.3490839854
 H    0.8550715108   -1.4319893584    1.5291946751
 H    1.7707320417    0.0779559470    1.5529674517
 H   -2.5249452986    0.8422953346    1.0182811244
 H   -3.2671064870   -0.7363083284    0.7441314328
 H   -2.0070132861   -0.5596872300    1.9684383325
 H   -2.5878955120    0.6257260078   -1.4329722181
 H   -1.0668437356    0.1724674155   -2.1817094300
 H   -3.0891327740   -1.5048497169   -2.8996753395
 H   -2.3320422468   -3.5542504318   -1.5107492566
 H   -0.1043434620   -2.4329803142   -0.4159298600
 H   -1.3903258878   -2.6160559823    0.7640619616