21

 O   -0.0712484788    1.4410330410    0.0071540582
 C    0.0611279303    0.0169386277    0.0065381436
 C    0.1963844216   -0.5574153176    1.4414869531
 C   -1.3687146498   -0.6229013473    1.5051280319
 O   -1.9217729632    0.5599802332    2.0540468316
 C   -1.3581924560   -0.5857940898   -0.0605258424
 C   -1.9990476955   -1.8087549213    2.1843067949
 C   -2.3761174700   -1.7528303551    3.6438109410
 C   -3.4522704441   -1.7846916571    2.5874039359
 H    0.7668936634    1.8150614949    0.3002616394
 H    0.7922638133   -0.3013176022   -0.7457967113
 H    0.6506703742   -1.5526883782    1.4400116148
 H    0.6894079547    0.0681998930    2.1913789398
 H   -1.5345524913    1.2960780590    1.5615851679
 H   -2.1243258211    0.0232739279   -0.5452297195
 H   -1.3507108693   -1.5885773771   -0.4954861870
 H   -1.6145470553   -2.7579915969    1.8211938856
 H   -2.2140863786   -2.6389756671    4.2476426457
 H   -2.2175535562   -0.8118684317    4.1561788110
 H   -3.9953173513   -0.8644472325    2.4105793569
 H   -4.0320068369   -2.6927700629    2.4632312589