14

 C   -0.3329480188    1.2271522883    0.0185785761
 O    0.6984311985    0.2324864077    0.1222737515
 C    0.8688191657   -0.5250365326   -0.9585488261
 C    0.5769861192   -1.7996470692   -1.3017681848
 O   -0.1019329029   -2.7189886292   -0.5870286612
 N    1.0908165534   -2.0909424488   -2.5617702729
 C    1.6568890314   -0.9795583645   -2.9133296855
 O    2.2980141831   -0.7097814368   -4.0484940988
 O    1.5921367065    0.0221269186   -2.0419229092
 H   -0.0797364153    1.9700822315   -0.7452634648
 H   -1.2933448003    0.7602927133   -0.2254450745
 H   -0.3914819346    1.7109327699    0.9947886952
 H   -0.0973834759   -3.5308730546   -1.1068924127
 H    2.2695975300   -1.5136129536   -4.5830005722