23

 C   -0.0763732734    1.7628755120   -0.0872507407
 C    0.0691448916    0.2389155330   -0.0752703050
 C    1.0218087997   -0.2779706590   -1.2009132420
 C    1.9382233814   -1.3046117893   -0.4895908012
 O    1.3979559392   -1.4954170947    0.8138372231
 C    0.8223698754   -0.2554934741    1.1827956299
 C   -1.2596664218   -0.5143616560   -0.1579452916
 C   -2.5622582749   -0.0002304142    0.3999865302
 C   -2.3783304885   -0.1391352080   -1.0946733473
 H    0.9093705176    2.2375743876   -0.0506121654
 H   -0.5765592051    2.1191150040   -0.9930841460
 H   -0.6463189364    2.1243320760    0.7747446905
 H    0.4511226561   -0.7302905996   -2.0152726786
 H    1.6093263726    0.5395521067   -1.6278187506
 H    1.9723990677   -2.2807705945   -0.9806946881
 H    2.9688347218   -0.9228035582   -0.4190071590
 H    1.6035100281    0.4683552682    1.4749419765
 H    0.1666349302   -0.4268420390    2.0407012810
 H   -1.1095323323   -1.5845439917   -0.0382633622
 H   -3.2132818569   -0.7024499775    0.9092937430
 H   -2.6011806320    1.0052001088    0.8039154557
 H   -2.2902958250    0.7755154541   -1.6712994742
 H   -2.9056315251   -0.9336397447   -1.6116446279