20

 C   -0.0616980366    1.5436469003    0.0652719483
 C    0.0197609011    0.0209878205   -0.0086914971
 N    0.7251846035   -0.4655723077   -1.2245330769
 C    2.1422129173   -0.1111692062   -1.3904083321
 C    1.7672958388   -1.4250731411   -0.8049238457
 C    1.7527614915   -1.5105057425    0.7010441939
 O    2.0592759738   -0.2717536070    1.3638671852
 C    0.6758796333   -0.6441961587    1.2100173099
 C   -0.0995560291   -0.8554673685    2.4815284621
 H    0.9233969468    1.9823706451    0.2429628153
 H   -0.4616535256    1.9468695295   -0.8688982975
 H   -0.7226883047    1.8548609836    0.8804689748
 H   -0.9994947078   -0.3814522758   -0.0841414414
 H    2.4614072118   -0.0533025193   -2.4276919009
 H    2.5992468228    0.6059427558   -0.7182857485
 H    1.8536380634   -2.3527046111   -1.3641563773
 H    2.0912237027   -2.4110632342    1.2067472694
 H   -0.4081513178    0.1029643496    2.9135287908
 H   -1.0022445425   -1.4463432670    2.2952919029
 H    0.5152964473   -1.3748461555    3.2205844246