14

 C    0.0573828879    1.3871865048    0.0069645489
 O   -0.0099268797   -0.0299758641    0.0024972231
 C   -1.2277241824   -0.5977322724    0.0102946146
 C   -2.4137694227    0.0597684193    0.0221109989
 O   -3.6259700978   -0.5426565221    0.0298952429
 N   -3.7328421157   -1.9128329813    0.0263837530
 C   -2.6310953595   -2.5816383358    0.0152375694
 C   -1.2524598238   -2.0600340687    0.0052052802
 O   -0.2740443084   -2.7853123230   -0.0040786653
 H    1.1175535682    1.6403589518   -0.0007080879
 H   -0.4255037769    1.8118248403   -0.8828225994
 H   -0.4110347444    1.8054929197    0.9074221996
 H   -2.5336609834    1.1345473478    0.0267607236
 H   -2.7565295015   -3.6608883663    0.0129851184