17

 O    0.0884255578    1.3343862739   -0.2395187581
 C    0.0698409856    0.0092597066    0.2358634905
 C   -1.3414709289   -0.5842636650    0.1013092333
 N   -1.8746288809   -0.4415404144   -1.3118414414
 C   -2.2113177182   -1.8893445529   -1.3199558252
 C   -0.9414645196   -2.6675149984   -1.2557295072
 C   -1.5373983311   -2.1161771552    0.0219237683
 C   -2.2584179485    0.0097091154    1.0750299872
 N   -2.9945429992    0.4672228846    1.8403420405
 H   -0.2238923038    1.2896025113   -1.1530051672
 H    0.7702650644   -0.6356954926   -0.3121122238
 H    0.3781516735    0.0334046911    1.2851512957
 H   -2.7123320698    0.1320522759   -1.3112723214
 H   -3.1468350949   -2.2551607561   -1.7225604945
 H   -1.0445412828   -3.7439223816   -1.3478866112
 H   -0.0366348459   -2.2555604725   -1.6913241962
 H   -1.8114639179   -2.7376342101    0.8627819908