21

 C    0.1598831463    1.4614799583    0.0277327608
 C    0.0068971276   -0.0262833622   -0.0059924449
 C    0.0097160340   -0.8135681819   -1.0857628194
 C   -0.1226063584   -2.2723267694   -0.7546678838
 O    1.0376806302   -3.0267196585   -1.1623690201
 C   -0.3970616616   -2.2847710717    0.7887402316
 C    0.4701181418   -3.2959885044    1.5478290544
 O    0.3312101677   -4.6142202839    1.0633994889
 C   -0.1822946362   -0.8249904310    1.2644969401
 H    1.0159670355    1.7539437509    0.6489391882
 H    0.3024808065    1.8793741869   -0.9721113341
 H   -0.7222315457    1.9364435238    0.4752593771
 H    0.1359775681   -0.4704851793   -2.1076415799
 H   -0.9371903176   -2.7593789464   -1.2995365087
 H    1.8155382826   -2.5102869972   -0.9229900256
 H   -1.4432340181   -2.5691567592    0.9365640430
 H    1.5234286043   -2.9652641926    1.5206231710
 H    0.1751133579   -3.3109408725    2.6031095929
 H    0.6707437802   -4.5831118820    0.1585032429
 H    0.6940717214   -0.7226869546    1.9228047832
 H   -1.0337375564   -0.4532076333    1.8475184324