18

 N   -0.4317834948    1.0842310573    0.1474658346
 C   -0.6769877091   -0.0807117679   -0.2703254796
 O   -0.3995365041   -1.1434851250    0.5186664077
 C   -0.7406609137   -2.4284762850   -0.0074384769
 C   -2.2019575633   -2.7200218755    0.0767207704
 C   -2.9816527955   -3.0668295184    1.3059716348
 C   -3.0168211650   -3.9972217814    0.1094816724
 C   -3.8384476844   -3.3443964621   -0.9961616859
 O   -3.0639774773   -2.1155365368   -0.9017332801
 H   -0.6865257004    1.7650038947   -0.5652664470
 H   -1.1083862356   -0.3543679398   -1.2408760660
 H   -0.4002309215   -2.5148903932   -1.0474228904
 H   -0.1858330608   -3.1480389397    0.5996915430
 H   -2.3976038386   -3.4284101713    2.1462776384
 H   -3.8503423728   -2.4699217141    1.5684747686
 H   -2.7045397625   -5.0319242362    0.1495323261
 H   -3.7046817158   -3.8059901328   -1.9805763355
 H   -4.9048327948   -3.1784579029   -0.8049301847