16

 C    0.0523376825    1.4867080139   -0.1142203825
 C   -0.0075971001   -0.0013332735    0.0113566612
 O    0.5543593020   -0.8369590173   -1.0630445421
 C    0.0660509588   -1.8073028596   -0.0829351616
 C    0.5923533131   -0.9522820134    1.1075643503
 C   -0.4339757227   -1.0523595646    2.2226055539
 O   -1.6717700631   -1.0563566742    1.4712364754
 C   -1.2254056091   -0.9735718590    0.1421634839
 H    1.0890573964    1.8363315127   -0.1414695046
 H   -0.4474453007    1.8129156839   -1.0314624512
 H   -0.4512775441    1.9557280186    0.7370079568
 H    0.2028310977   -2.8672641386   -0.2926144283
 H    1.6574491511   -0.9217101897    1.3304499513
 H   -0.3562830576   -1.9746613915    2.8105390197
 H   -0.4206116782   -0.1970667905    2.9088401272
 H   -2.0433738760   -0.9702938470   -0.5751710794