18

 C   -0.2410792377    1.6713823012    0.1309529443
 C    0.1549607972    0.1967693343    0.2619033534
 C    0.6230091395   -0.4194877512   -1.0450137858
 C    0.5877814541   -1.9736298862   -1.1556025168
 C   -0.4732226310   -1.7221078535   -2.2031390438
 N   -1.1849950271   -2.4510314153   -2.9290701854
 O   -0.3987739031   -0.3440538921   -2.1058015313
 C    1.9277483703    0.1553130577   -1.5736491397
 O    2.7676083775    0.6708148790   -0.8845024921
 H    0.6157045533    2.2867208846   -0.1558807020
 H   -1.0248114526    1.7962440471   -0.6214863806
 H   -0.6212050824    2.0494013439    1.0838110638
 H    0.9714145372    0.0854804011    0.9837774312
 H   -0.6932312820   -0.3887601434    0.6336873787
 H    1.4923950955   -2.4540473220   -1.5349488861
 H    0.2529502700   -2.4893879100   -0.2546782371
 H   -1.7967307873   -1.8995878380   -3.5329798252
 H    2.0545644588    0.0296433127   -2.6721304855