18

 O    0.4461391897   -0.2231300051   -0.2790542190
 C    0.8611033394    0.5875541438    0.5080557902
 C    1.1977763496    2.0315124101    0.1623501023
 C    0.7276258738    2.4339774789   -1.2487657733
 C    0.8016191512    3.9242595922   -1.4360720579
 C    0.7061512334    4.7659065997   -0.4051443429
 C    0.5297241538    4.2900156711    0.9880374205
 C   -0.6112010020    3.3673843631    1.3092110688
 N    0.7592209606    2.8693024936    1.2825501073
 H    1.0374266274    0.3339920072    1.5758680181
 H    2.2982406930    2.0874356427    0.1841176903
 H    1.3431551437    1.9135314906   -1.9895612271
 H   -0.2907556036    2.0615967206   -1.4178349345
 H    0.9284702813    4.3048739539   -2.4450673269
 H    0.7668232348    5.8399915582   -0.5522226328
 H    0.8722690676    4.9645884670    1.7698093959
 H   -1.0734994383    3.3915154280    2.2924277518
 H   -1.2850366254    3.1230084445    0.4916731492