15

 C    0.4530993492    1.4881274319   -0.0082587261
 C    0.1184161503    0.0168540041    0.0757692964
 O    0.8956118910   -0.8149161472   -0.8413504832
 C    1.3002272619   -1.7024903680    0.2204245655
 C    0.6109837476   -0.8155287545    1.2737312072
 O    1.9117099067   -0.3962503345    1.7785641631
 C    2.5820621130   -1.2401624410    0.8933231006
 N    3.8010937862   -1.4832381742    0.7614403995
 H    1.4949193872    1.6659081817    0.2653672105
 H    0.2896788392    1.8468754144   -1.0285783871
 H   -0.1917569269    2.0632432971    0.6645689752
 H   -0.9515440039   -0.1585536704   -0.1029005560
 H    1.1422281311   -2.7588010592    0.0061784514
 H   -0.0616631694   -1.1165527277    2.0736803165
 H    4.3697187770   -0.9371550625    1.4114481664