21

 C    0.0128848960    1.5273818979    0.0670987395
 C   -0.0603688231    0.0362342315   -0.0020169987
 C    0.0027857203   -0.7566479298   -1.0810782954
 C   -0.0298115982   -2.1856575097   -0.6640228484
 C    0.9024428909   -2.6569003603    0.4891981950
 C    1.4197000464   -1.4838101760    1.3080221152
 C   -0.0258375881   -0.8489321702    1.2295637072
 C   -0.5337904090   -2.2591530511    0.7536765242
 C   -1.7169733975   -3.0262111937    1.2585021398
 H    0.9102133282    1.8633550172    0.6037120831
 H    0.0326087379    1.9752594679   -0.9305457531
 H   -0.8453436817    1.9442436007    0.6102364880
 H    0.1063235531   -0.4279361091   -2.1086941114
 H   -0.3116051385   -2.9686041875   -1.3602541242
 H    1.3384382959   -3.6490798425    0.4478740298
 H    1.6473087856   -1.8039644605    2.3282934068
 H    2.2484261345   -0.8823083888    0.9179440232
 H   -0.4192969850   -0.4214395612    2.1528834286
 H   -2.6560210460   -2.5044472191    1.0379103150
 H   -1.7674127655   -4.0144252784    0.7886652986
 H   -1.6678994061   -3.1775345674    2.3435288271