13

 O    0.2187345297    1.2784350488   -0.2207266715
 C    0.1045206928   -0.0616654580    0.0970099067
 C   -0.0122549924   -0.3211813391    1.6044037815
 O   -1.2561709331   -1.0529592428    1.4367393607
 C   -1.3486924202   -0.7278723630    0.0436723824
 C   -2.4241757058    0.2251104612   -0.2551542840
 N   -3.2469333401    0.9997741702   -0.4920943839
 C   -1.4537246067   -1.9197833144   -0.8030995446
 N   -1.4671417872   -2.8550656336   -1.4808699885
 H    0.3626773496    1.3820683295   -1.1677431302
 H    0.8309764971   -0.6967825773   -0.4193568211
 H    0.7607997673   -0.9412468712    2.0637268248
 H   -0.1587106008    0.6001915598    2.1761196677