16

 N   -0.0339562319    1.5097839292    0.0131229173
 C   -0.0031641707    0.0501706696   -0.0126291309
 C    0.2062557881   -0.5012768626    1.4316223059
 C   -1.3445629555   -0.5484216056    1.5896087879
 C   -1.4577596961   -0.5117294415    0.0345976034
 C   -1.9257066088   -1.6787176238    2.2902732236
 N   -2.3807992245   -2.5888273703    2.8391488104
 C    0.8740207214   -0.5000542470   -1.0533349834
 N    1.5730890487   -0.9009533359   -1.8829998622
 H    0.9021036394    1.8769349784    0.1635313958
 H   -0.3468671768    1.8690836217   -0.8849980250
 H    0.6427499102   -1.5006022487    1.4265174019
 H    0.7575799147    0.1464511869    2.1138709573
 H   -1.7141798944    0.3822666422    2.0229018969
 H   -2.2298986232    0.1276838993   -0.3942677998
 H   -1.5209255406   -1.5141935420   -0.3899968091