20

 C    0.0567484059    1.5551852327   -0.2795199889
 O   -0.2722407175    0.1874165397   -0.3606472882
 C    0.6630425146   -0.5901033262   -1.0926179254
 C    1.9236747444   -0.9662623970   -0.3450263468
 C    2.1991805456   -2.2644938594   -0.4576777732
 C    1.1748531719   -3.0040832909   -1.2807218755
 C    0.0688138717   -1.9598576527   -1.4585081458
 C   -1.3565851418   -2.2550965030   -1.1795798379
 N   -0.8773727409   -2.1108428608   -2.5691339582
 H    0.9809307029    1.7319386471    0.2902249823
 H    0.1789814526    2.0043504087   -1.2780081743
 H   -0.7677354947    2.0555301031    0.2344077140
 H    0.9210314819   -0.0327006184   -2.0140658741
 H    2.5311642190   -0.2347804953    0.1749495092
 H    3.0700938211   -2.7551495644   -0.0362898533
 H    1.5813189162   -3.3074603655   -2.2547493528
 H    0.8185587934   -3.9196911448   -0.7945094898
 H   -1.6438366436   -3.2660057624   -0.9011918233
 H   -1.9594646070   -1.4626769520   -0.7512981601
 H   -1.1422495957   -1.1910546786   -2.9173294179