15

 O   -0.0609358646    0.0736385117   -0.2055762298
 C    0.0237170765    1.2488541447   -0.0227239587
 O   -1.0662024347    2.1049378327    0.0571559824
 C   -0.4944045045    3.4367357142    0.2865065612
 C    0.7457771786    3.5262134531   -0.6078381739
 C    1.7742295109    3.9793719790    0.4744474866
 C    2.6207050075    2.6709607836    0.3144775992
 C    1.1528099423    2.2216118647    0.1778760009
 C    0.6583635656    3.2393674054    1.2754761571
 H   -1.3099270031    4.1541920137    0.3579378976
 H    0.8150702641    3.6401815406   -1.6895092022
 H    2.1408037214    4.9911249459    0.6455594086
 H    3.2421986711    2.5910094219   -0.5808594585
 H    3.1595952590    2.3200676133    1.1980767289
 H    0.6278710798    3.0258722255    2.3437890707