16

 C   -0.0013877934    1.4780872936   -0.0460472616
 C   -0.0298869560    0.0242012705   -0.0151759414
 C   -0.0560895829   -1.1822061675    0.0037268518
 C   -0.0471146597   -2.5964666214    0.0601567467
 N   -0.3437141249   -3.4826669614   -1.1057768400
 C   -1.1672743537   -3.5870062663    0.1097227631
 C   -0.3700028906   -4.4283836583    1.1678796075
 O    0.8938469373   -4.7954027845    0.6124099531
 C    0.7366909166   -3.4777978885    1.1193180033
 H    0.8215276354    1.8665882443    0.5641304340
 H    0.1406407666    1.8516015394   -1.0663474490
 H   -0.9322993179    1.9082780219    0.3403381510
 H   -0.8659109376   -2.9050005486   -1.7659798294
 H   -2.2333628263   -3.4034578524    0.1138159793
 H   -0.7754969908   -5.0289147166    1.9720113480
 H    1.4270427680   -3.1120916841    1.8692260236