18

 C    0.0089374570    1.5883916089   -0.0170492730
 C    1.5157038123    1.9217680114    0.0045133553
 O    2.0264215924    1.7432687225    1.3488400899
 C    2.1767183451    0.3291307529    1.0703920023
 C    0.8269505044   -0.3825158126    1.3019871653
 C    0.0389963904    0.0394873829    0.0355678832
 C    1.0747569174   -0.2702205204   -1.0695386162
 C    2.1834277981    0.5927912939   -0.4675734990
 H   -0.5049154250    2.0557650044    0.8269795804
 H   -0.4613552087    1.9325158989   -0.9456075451
 H    1.7975712343    2.8874061166   -0.4206409167
 H    3.0391728168   -0.1040872219    1.5814271692
 H    0.9513698679   -1.4712819989    1.3323979392
 H    0.3724156526   -0.0580592699    2.2416646478
 H   -0.9362254522   -0.4380775953   -0.0732179166
 H    1.3394103752   -1.3309927346   -1.1278930332
 H    0.7596559956    0.0658615207   -2.0627379300
 H    3.1487589663    0.6610229405   -0.9642806928