17

 C    0.2460909409    1.5683511945   -0.3196148809
 C    0.1451406247    0.1337106360   -0.1025999775
 C    0.0475156201   -1.0512723970    0.0866948818
 C   -0.0811871910   -2.4781463106    0.2960324650
 N   -0.3305281755   -2.9355919736    1.6877821875
 C   -1.2625813434   -3.9822277853    1.2246030564
 C   -1.4088955374   -3.2214282034   -0.1279617295
 C   -2.5884137312   -2.3811961363   -0.2317782655
 N   -3.5393045373   -1.7311855788   -0.3285161495
 H    1.0345746274    1.8103194835   -1.0403923991
 H   -0.6966517877    1.9731899359   -0.7026781517
 H    0.4762239594    2.0902357393    0.6155736206
 H    0.7591690405   -3.0023590220   -0.1851486134
 H    0.4906969616   -3.2563566056    2.1889265078
 H   -0.8159162290   -4.9736093712    1.0668205841
 H   -2.1658877250   -4.0857687339    1.8305012306
 H   -1.3188655271   -3.8294003415   -1.0290411767