19

 C   -0.1662532772    1.5146749712   -0.0006732072
 C    0.0298867211    0.0036638344   -0.0291465596
 O    0.7903975407   -0.3020888715   -1.1896005319
 C    0.7344733939   -0.4937001958    1.2270058980
 C   -0.0418611818   -1.1870328267    2.3203129661
 C    0.8842969299   -1.9858548353    1.4162732945
 O    0.3035543576   -2.7463085053    0.3801016875
 C    2.1009454602   -2.5302962177    1.9574617046
 C    3.1010379568   -3.0201624061    2.4125885496
 H    0.8031225251    2.0214912453    0.0399999457
 H   -0.6841161373    1.8425061619   -0.9057552047
 H   -0.7550714535    1.8138295118    0.8713994131
 H   -0.9543114114   -0.4843458907   -0.0870864774
 H    0.8548460823   -1.2640340164   -1.2238695820
 H    1.5949002032    0.0962210242    1.5280661328
 H    0.2501533454   -1.0447958106    3.3541012941
 H   -1.1032807389   -1.3389413137    2.1518013726
 H    0.1296071182   -3.6323385279    0.7161573588
 H    3.9941750761   -3.4406906811    2.8040179154