18

 C    0.0414755934    1.6095935426   -0.0205946621
 C    0.0721300828    0.1078324015    0.0883216339
 O   -1.2291876198   -0.4821693948    0.3899555624
 C   -0.7021059966   -1.1805698968    1.5434202793
 C    0.7223325366   -0.6569981092    1.2742603930
 N    1.6581984267   -1.6629689573    0.7579207155
 C    1.3115239174   -1.8975882067   -0.6537239378
 C    0.6202182310   -0.6211155046   -1.1545992982
 O    0.5186204842   -0.2499906933   -2.2940358323
 H    1.0578311985    2.0109560186   -0.0977568362
 H   -0.5030286873    1.9024548791   -0.9232528878
 H   -0.4475438812    2.0516587196    0.8515563490
 H   -1.1720953164   -0.8322127536    2.4703519604
 H   -0.8121733734   -2.2679141812    1.4656990706
 H    1.1800310368   -0.0769119179    2.0755430058
 H    2.6011911733   -1.2943613235    0.8115218619
 H    2.1871988775   -2.1393626796   -1.2589513433
 H    0.6091461162   -2.7371168929   -0.7475074941