16

 N    0.3706590909    1.2091239091    0.0027253142
 C    0.0608182550   -0.0207362121    0.0008694697
 N   -1.2420609520   -0.4891844610    0.0112796896
 C   -2.4306547521    0.1945228223    0.0256395726
 N   -2.6526099524    1.4536611639    0.0321061073
 C   -4.1075229513    1.6819673132    0.0476906316
 C   -4.8233544440    0.3140177992    0.0497598633
 C   -3.6666149203   -0.6676227781    0.0352092698
 O   -3.6671218535   -1.8753893817    0.0314161387
 H    1.3844097957    1.3074414929   -0.0062379613
 H    0.7672904216   -0.8602165451   -0.0088391198
 H   -1.3774438895   -1.4918754841    0.0093984338
 H   -4.3545052666    2.2825625824    0.9297983860
 H   -4.3722942422    2.2893077381   -0.8245725358
 H   -5.4437393631    0.1436438257    0.9346344987
 H   -5.4602041860    0.1498949554   -0.8245616384