19

 C   -0.2503260973    1.5245691074    0.2267568818
 C    0.0296884346    0.0562677579   -0.0219604124
 C    0.5943164890   -0.5974992949   -1.2880961443
 C    1.4342068350    0.1669398931   -2.2793730737
 O    1.6879500219    1.5491130989   -1.9771556328
 C    2.6929408087    0.5868965791   -1.6364973950
 C    2.6840612745    0.1250762122   -0.1853892421
 C    1.3620970001   -0.6422073649    0.0205666648
 O    1.4597838623   -1.8545195103    0.7152601497
 H   -1.1303267853    1.8491808822   -0.3390121260
 H   -0.4670036494    1.6835627320    1.2897470866
 H    0.5779732968    2.1650102672   -0.0664053749
 H   -0.7376740230   -0.5908728403    0.4021352111
 H    0.0867721658   -1.4837092803   -1.6514756964
 H    1.3534918267   -0.0604491764   -3.3386150513
 H    3.6350454229    0.7031801809   -2.1668998251
 H    3.5001843496   -0.5859010284   -0.0225090841
 H    2.8239484942    0.9597442134    0.5101881338
 H    1.3237973030   -1.6743426288    1.6516414002