15

 C    0.0324627177    1.4398327425   -0.0141305415
 N   -0.0599402327   -0.0074705351   -0.0524821539
 C   -1.2608421310   -0.6413210985   -0.0586081950
 N   -2.3653873969    0.0038157286   -0.0046062826
 C   -3.6244646425   -0.7133369685    0.0252170361
 C   -4.3682936779   -0.4054293711    1.2562399503
 N   -4.9576696430   -0.1725026673    2.2216883842
 C   -1.1553672789   -2.0953231573   -0.1325396040
 N   -1.1037478083   -3.2481535150   -0.2010974974
 H    1.0849588211    1.7188425155    0.0502619189
 H   -0.4100163913    1.8921703739   -0.9087039234
 H   -0.5011778034    1.8305187377    0.8567752953
 H    0.7697004558   -0.5571725974   -0.1908402037
 H   -4.2400864738   -0.3862422330   -0.8225496178
 H   -3.5291727549   -1.8072852250   -0.0495778956