19

 O    0.3443785820    0.9275785187   -1.1091964010
 C    0.0875261511   -0.1025655163   -0.1914504110
 C    1.1994147870   -1.0904117626    0.0014848266
 C    0.8486465709   -0.1174301925    1.1100157156
 C   -1.3175861155   -0.5936378845   -0.2314093527
 C   -2.2110957550   -0.6364873205   -1.4286709609
 C   -2.6738355663    0.0893983723   -0.1765228341
 C   -2.9944159291   -0.9402158613    0.8981758439
 O   -1.7051656599   -1.5934502054    0.7213182538
 H   -0.0195984596    1.7413181356   -0.7423863910
 H    0.9348924177   -2.1325556199    0.1370114252
 H    2.1045872143   -0.9054280328   -0.5648745652
 H    1.5301883077    0.7075768087    1.2855777908
 H    0.3440963207   -0.5095836319    1.9849901261
 H   -1.9090624340    0.0169301275   -2.2396996488
 H   -2.6715898229   -1.5757272286   -1.7249144338
 H   -2.9503541858    1.1352352079   -0.1605637755
 H   -3.0730011965   -0.5190558896    1.9065777002
 H   -3.8305904868   -1.6260555147    0.7162935519