23

 C   -0.0561189906    1.5140467863    0.0891190751
 C   -0.0231395449   -0.0021794743    0.0512304856
 C   -1.2736253265   -0.6407487161   -0.5230359904
 C    1.3086029024   -0.6782290882   -0.2170730736
 C    0.6966331893   -0.7223809850    1.1585997359
 C    1.3350344010   -0.1513439579    2.4347717888
 C    1.3003010382   -1.5782885648    3.0248440959
 O    0.8825002613   -1.6212519986    4.3695292740
 C    0.2934143665   -1.9995894525    1.9121157289
 H    0.8639311742    1.9283056216    0.5115517128
 H   -0.1772934825    1.9293055388   -0.9185451332
 H   -0.8937266055    1.8763786675    0.6975859866
 H   -1.4433277458   -0.3124334134   -1.5554700846
 H   -1.2047709909   -1.7324843347   -0.5278635986
 H   -2.1613305006   -0.3661270826    0.0598429391
 H    1.3113146218   -1.5914090335   -0.8059959984
 H    2.1820911314   -0.0499599979   -0.3685407931
 H    2.3095547589    0.3367228351    2.3564948860
 H    0.6505380063    0.4982904326    2.9903879752
 H    2.2658064582   -2.0856853662    2.8902489172
 H    0.8677343927   -2.5414026756    4.6516995885
 H   -0.7327493148   -1.9537605448    2.2928728046
 H    0.4548561497   -2.9624231558    1.4190575576