23

 C   -0.2753665252    1.5659892520   -0.0158588048
 C    0.0572557298    0.0644689658    0.0431973411
 C    0.7782826782   -0.4493098340   -1.1794446532
 C    2.0687644026   -0.7883456725   -1.1631415752
 C    2.8062472955   -1.3431173291   -2.3572914494
 C    3.5954488606   -2.6048859981   -2.0131912007
 O    1.9291335052   -1.6859577375   -3.4209828857
 C    0.9398392110   -0.7030078570   -3.6591810611
 C   -0.0075410413   -0.5769735331   -2.4658891623
 H    0.6381584323    2.1628443932   -0.1009377971
 H   -0.9135261177    1.8086314921   -0.8714078880
 H   -0.8044808918    1.8812572377    0.8888923308
 H    0.6675762175   -0.1331716646    0.9313814291
 H   -0.8768888625   -0.4998013450    0.1752446283
 H    2.6537015643   -0.6821997087   -0.2513194673
 H    3.5207059560   -0.5763041820   -2.7166420731
 H    2.9236839195   -3.3795036754   -1.6325068152
 H    4.0982112236   -2.9865512351   -2.9059389608
 H    4.3508900801   -2.3899445102   -1.2514222820
 H    1.4104236437    0.2733720850   -3.8639083661
 H    0.4074199310   -1.0150983135   -4.5624903796
 H   -0.6673176458   -1.4543984657   -2.4137723767
 H   -0.6635539366    0.2911102956   -2.6081154311