18

 C   -0.1006546574    1.5076808112    0.1573116770
 C   -0.0086841528    0.0336550140   -0.0429897840
 C    0.9145941622   -0.9096991613   -0.9238625608
 C    1.1865759121   -1.6583498176    0.3864960080
 N   -0.0465421963   -1.0242878001    0.9853076645
 C   -1.0885248032   -1.0383584548   -0.1047373073
 C   -2.5352376595   -1.0133530352    0.2634920611
 C   -0.4282482782   -1.5289954472   -1.3604362706
 O   -0.8461148593   -1.9786768404   -2.3913270163
 H    0.8429239850    1.9164270527    0.5339545047
 H   -0.3384518744    2.0139852058   -0.7838418916
 H   -0.8849450542    1.7422406580    0.8830195009
 H    1.6694934911   -0.6385136333   -1.6572591022
 H    1.1851402564   -2.7540946343    0.3642700289
 H    2.0555469838   -1.2964537763    0.9411238099
 H   -2.7202483287   -0.3011220354    1.0720309869
 H   -3.1436949368   -0.7346785166   -0.6019495165
 H   -2.8641497800   -1.9994792890    0.6064115073