10

 O    0.0080446008    1.4930092546    0.1469332475
 C    0.0106351592    0.1126130905    0.0849450640
 C    0.6857359952   -0.3900260912   -1.1844543661
 O    1.1599805453    0.3846661760   -1.9767349549
 C    0.6723466974   -0.5503581394    1.3073047619
 O    1.2545572925    0.0500895112    2.1628999447
 H    0.5092844050    1.7982366346   -0.6260287499
 H   -1.0188426224   -0.3002633415    0.0641400453
 H    0.7169721839   -1.4860547017   -1.3386631701
 H    0.5425828330   -1.6571405032    1.3358255777