16

 O    0.0280690957    1.3909632446   -0.1087136674
 C    0.0147220206    0.0017570017   -0.1107723333
 C   -1.3799709665   -0.6774677670    0.0354352992
 N   -1.0569478718   -2.0703310511    0.4879883980
 C    0.4399576856   -2.1268980116    0.5984873359
 C    1.0186266743   -1.9774410573   -0.7905895932
 C    0.7734806237   -0.7224833026   -1.2040803041
 C    0.7252379050   -0.6960447328    1.0803668486
 O    1.2591844364   -0.1807285464    2.0197939422
 H    0.5334866567    1.6606661643    0.6719356109
 H   -1.9692344433   -0.1291841109    0.7781354453
 H   -1.9331053783   -0.6952886986   -0.9079434736
 H   -1.4524967977   -2.2243621079    1.4109743400
 H    0.7740725626   -2.9664056963    1.2032270138
 H    1.5141813050   -2.7688186125   -1.3364992839
 H    1.0367321219   -0.2618897956   -2.1477479983