18

 C    0.0940970794    1.4553074403    0.2668703571
 C    0.0456104745    0.0162225991    0.0499905005
 C    0.0143244598   -1.1748129642   -0.1230990427
 C   -0.0409954482   -2.6191894998   -0.3304453729
 C   -1.4372349088   -3.2122571741   -0.1382232486
 C   -2.5392092892   -2.6289453196   -0.9920062392
 C   -1.5434941295   -4.5871460323    0.3702542815
 O   -1.7900263690   -3.4677522135    1.2260393677
 H    1.0878721226    1.7727675128    0.6017558614
 H   -0.1372712352    2.0072483834   -0.6509345581
 H   -0.6264343770    1.7662743605    1.0313583300
 H    0.3049602742   -2.8615629800   -1.3450385410
 H    0.6430129348   -3.1220023221    0.3629287250
 H   -2.3281471791   -2.7814647853   -2.0562071227
 H   -3.4955378297   -3.0998721839   -0.7533012784
 H   -2.6242987137   -1.5527884827   -0.8166129366
 H   -2.4170681870   -5.1882772498    0.1203430366
 H   -0.6418055989   -5.1571856688    0.5936919801