16

 C    0.4317484953    1.4032230446   -0.2066839380
 C   -0.1233592790    0.0365645451    0.1565655619
 O    0.0686874601   -0.9105264525   -0.9420861375
 C    1.2005565255   -1.6477095793   -0.7735215464
 N    1.7208855194   -2.4420369953   -1.6037675697
 C    1.7226666045   -1.3678410536    0.6159665736
 O    2.8137167969   -1.5814748227    1.0729622622
 C    0.6034870694   -0.6381296874    1.3397897300
 O    1.0664787985    0.2241963165    2.3340216813
 H    1.5122175757    1.3596878277   -0.3779125577
 H   -0.0503461175    1.7746842252   -1.1141874851
 H    0.2491718483    2.1047261776    0.6105004811
 H   -1.2031439300    0.0844461080    0.3083239367
 H    1.1844739724   -2.4635449296   -2.4745522015
 H   -0.0662375122   -1.4124478466    1.7558235846
 H    1.9669430228   -0.0659573177    2.5444616146