19

 C   -0.1015331653    1.3840247970    0.0524004765
 O   -0.0749881676   -0.0414069854   -0.0917082388
 C    0.7122194321   -0.5084603371   -1.0843117536
 O    1.3435982808    0.2061594409   -1.8209547826
 C    0.6894038741   -2.0309836137   -1.1005079678
 C    1.3686183075   -2.6432754305   -2.3501111463
 C    2.2368974269   -3.8205877729   -1.8329127698
 C    2.3193285011   -3.5702106515   -0.3480297605
 C    1.4843262722   -2.6166203214    0.0556493881
 H    0.8976704746    1.7694124077    0.2712000536
 H   -0.4658426074    1.8573978109   -0.8628295233
 H   -0.7786167132    1.5865001248    0.8824558337
 H   -0.3644640007   -2.3248680249   -1.0038014273
 H    0.6398020036   -2.9565515265   -3.1008889373
 H    1.9972398415   -1.8740620481   -2.8042817389
 H    1.7694400077   -4.7948547353   -2.0322744363
 H    3.2220855279   -3.8534996499   -2.3119238619
 H    2.9670235193   -4.1431618211    0.3068601751
 H    1.3367645948   -2.2824859429    1.0756248173