15

 O    0.0666851301   -0.0169152297    0.1432090259
 C   -0.0041821800    1.1861169003    0.0269098575
 C   -1.3353632001    1.9196116303   -0.0993055690
 C   -1.3064916308    3.0368770291   -1.1153102916
 C   -0.1829171950    3.6583171096   -1.4702228992
 C    1.1238117348    3.3101317321   -0.8538214966
 N    1.1685542032    3.3502600668    0.6189698655
 C    1.2221647172    2.0361501607   -0.0614731571
 H   -2.1058375235    1.1779378762   -0.3247783904
 H   -1.5745786619    2.3375795809    0.8901091715
 H   -2.2581960548    3.3340432346   -1.5460445571
 H   -0.1955181244    4.4587648045   -2.2033584937
 H    2.0181530113    3.6152355368   -1.3901612084
 H    2.1062220053    3.5883379979    0.9341158210
 H    2.1546879988    1.4804509299   -0.0676058583