12

 C    0.4312794438    1.3695853244    0.0926441719
 C    0.2504039710   -0.1233398435    0.0990303352
 O    0.0570407853   -0.8027382848    1.0764047929
 C    0.3250245870   -0.8116979854   -1.2834978274
 O    0.5155629098   -0.1910597794   -2.3038921482
 C    0.1501875161   -2.2528760805   -1.2693376118
 C    0.0117097406   -3.4534733460   -1.3222108344
 C   -0.1477345684   -4.8076235360   -1.3689689428
 N   -0.2832122490   -5.9604311790   -1.4102631354
 H    1.4028126968    1.6271592487   -0.3417635583
 H   -0.3234414394    1.8362083903   -0.5487116719
 H    0.3561225765    1.7514516311    1.1105609603