20

 C    0.0711191684    1.6109493257   -0.0732256197
 C    0.0361533220    0.0789489235    0.0291071725
 C    0.6049633664   -0.5398142445   -1.2543556239
 N    0.7237238965   -1.9828951258   -1.1320895050
 C    1.3020178467   -2.5570927396   -0.0225040410
 O    1.7035271056   -3.7089750236   -0.0167122600
 C    1.3438929643   -1.6866376523    1.1754064257
 C    0.7580299633   -0.4828670923    1.2459370614
 C    0.7225504158    0.2992488749    2.5286617274
 H    1.1004104431    1.9818797501   -0.1293301122
 H   -0.4520615390    1.9415629959   -0.9761664369
 H   -0.4138731642    2.0877752019    0.7817936118
 H   -1.0179677253   -0.2294127693    0.1170133896
 H   -0.0539603685   -0.3124503232   -2.0979937288
 H    1.5810916607   -0.0721244708   -1.4681596156
 H    0.8315667437   -2.5283126103   -1.9751587529
 H    1.8321017251   -2.1336140806    2.0348497617
 H    1.2038663672   -0.2518853606    3.3395442171
 H    1.2233205259    1.2688542384    2.4269908654
 H   -0.3117782577    0.5137769027    2.8276534234