18

 O   -0.1579901087    1.4612842945    0.3980956940
 C    0.0308878405    0.0903441692    0.0754451937
 C    0.9141352907   -0.6467543976    1.0967046202
 C    0.7486062560   -2.1742773134    0.9546865441
 C   -0.6832362450   -2.4799556987    1.3558883278
 O   -0.9983209191   -3.1670634481    2.2966313112
 N   -1.6373268283   -1.8249171512    0.5569742471
 C   -2.3237058992   -0.6408887001    1.0594312419
 C   -1.3474758939   -0.5402523375   -0.0704343986
 H    0.6998176740    1.8977278932    0.3630839011
 H    0.5177642102   -0.0001070906   -0.9093731708
 H    1.9602454172   -0.3525482200    0.9576865539
 H    0.6294060777   -0.3354100482    2.1087484972
 H    0.9348034331   -2.4800167857   -0.0820565613
 H    1.4246632093   -2.7263972472    1.6087316300
 H   -3.3885485465   -0.5800110388    0.8549491316
 H   -2.0222400288   -0.2703711139    2.0350669998
 H   -1.7728149292   -0.4433870457   -1.0669317926