16

 O    0.0004173988   -0.0481624101   -0.3722054246
 C    0.0273188245    1.1281927499   -0.1059076149
 C    1.3081273235    1.9207876379   -0.0603467387
 C    1.2336535183    3.3148744595   -0.7615972773
 N    0.4642525843    3.7726721625    0.4522707591
 C    1.4384643406    2.8731632450    1.1711399042
 C    2.8040903978    3.5728887831    0.9123880508
 O    3.6474883438    2.9558092193   -0.0717079769
 C    2.6538720129    3.8968274307   -0.5051586548
 H   -0.8956448591    1.6964660961    0.1219265713
 H    2.1566128520    1.2851754766   -0.2955303515
 H    0.7767153099    3.4638767728   -1.7395408624
 H    0.6117312560    4.7622162332    0.6628010726
 H    1.1928769111    2.5664217856    2.1874941548
 H    3.2971076032    4.1822505935    1.6624571918
 H    3.0148249423    4.7911312346   -1.0020668436