15

 C    0.0221821969    1.6110861481    0.0492978616
 C    0.0389241340    0.0723009483   -0.0126778199
 N    0.6390936467   -0.4474515520   -1.2351346816
 C   -0.1063575297   -0.6019331203   -2.3694256870
 N   -1.3585202927   -0.3428431079   -2.4068393347
 C    0.6519884108   -1.0945540160   -3.5087023099
 N    1.2214735625   -1.4758196388   -4.4396404905
 C    0.7423929498   -0.5014558762    1.1430777289
 N    1.3109791073   -0.9281764184    2.0533247321
 H    1.0383193540    2.0122117918    0.0161003896
 H   -0.5461917247    1.9903116060   -0.8020764706
 H   -0.4557718847    1.9470425872    0.9730327852
 H   -0.9950432341   -0.2887805633   -0.0022096849
 H    1.6395283383   -0.5463513842   -1.2862169135
 H   -1.7584458445   -0.5554768243   -3.3162331947