13

 C   -0.3430926535    1.1543017570    0.2532957936
 O    0.6329199871    0.1271269143    0.0853052178
 C    0.5864671472   -0.8670208832    0.9821292671
 N    1.4141315528   -1.8169237380    0.9054943800
 C    1.3662075708   -2.8936349471    1.8732190362
 C    0.3244255690   -2.8081930157    2.9146229214
 N   -0.5079111877   -2.6956008710    3.7088863502
 H   -0.2311123171    1.6553122753    1.2214744949
 H   -0.1671780692    1.8737203115   -0.5465657296
 H   -1.3599557560    0.7556309133    0.1640129575
 H   -0.2006265488   -0.7712996347    1.7420321621
 H    1.2350739138   -3.8436200243    1.3402200509
 H    2.3401184817   -2.9640486275    2.3735094577