22

 C   -1.8262051257    0.3425309988    1.6787623651
 C   -0.8822628003   -0.6396370787    1.0209741693
 C    0.0452000973   -0.2110398953   -0.0880639130
 C    0.6185129952   -0.6174574899    1.2514752402
 C    1.3228496691    0.3483097753    2.1850993925
 C    1.5431481368    1.7718421509    1.7034022974
 C    1.1125617983    0.1445859930    3.6729037655
 C    2.4260793812   -0.2387203161    3.0407082553
 H   -1.3884442865    1.3408258518    1.7604815705
 H   -2.7535896875    0.4358973667    1.1022983906
 H   -2.0957844560    0.0204811935    2.6905634916
 H   -1.3034089698   -1.6367491687    0.9138147993
 H    0.1967438887   -0.8662158825   -0.9394635113
 H    0.0551385544    0.8439109170   -0.3415085398
 H    1.0672500318   -1.6076333945    1.2595987452
 H    0.6032235291    2.2999521818    1.5091533826
 H    2.0887407576    2.3503666837    2.4556273463
 H    2.1293855932    1.7892681663    0.7779890812
 H    1.0858197589    1.0196419440    4.3143359374
 H    0.4470616843   -0.6539389141    3.9830086185
 H    2.6498731712   -1.2950720538    2.9316250058
 H    3.2952809288    0.3774070708    3.2468339198