12

 O   -0.0598330140   -0.0133242728   -0.0780771818
 C   -0.0555793930    1.1700585406    0.0293197495
 C   -1.1093986002    2.2684461558    0.2175357562
 N   -0.0078532210    3.2186323070    0.5157138537
 C    1.0547017647    2.2716961946    0.0609553453
 C    2.1961284860    2.0946708570    0.9336945894
 C    3.1417981532    1.9174051768    1.6536329172
 H   -1.6727115408    2.4518124429   -0.7086213119
 H   -1.8196096418    2.1216207313    1.0380068819
 H   -0.0376532760    4.0791693286   -0.0177046536
 H    1.3943826084    2.4476626211   -0.9727106263
 H    3.9745508346    1.7659885070    2.2951268804