17

 C   -0.1091900546    1.5144771063   -0.0389715451
 C    0.0301047766    0.0163188889    0.0830660774
 O    1.3235464604   -0.5731659546   -0.0954594128
 C    0.7834413596   -0.6408866533    1.2140628795
 C    1.4658003072    0.1683844318    2.2992603255
 C    0.3720393433   -2.0216939099    1.6837758189
 O    0.2838619948   -2.9961341229    0.9851935938
 C   -1.0696790781   -0.7673568000   -0.5988160233
 O   -2.1254430863   -0.2709750171   -0.9023334700
 H    0.6741223115    2.0514204181    0.4936962367
 H   -0.0649274513    1.7974359447   -1.0950197875
 H   -1.0868634484    1.8224240291    0.3389506100
 H    1.8607993662    1.1051400418    1.9095267370
 H    0.7718290629    0.3886902525    3.1168184210
 H    2.3045811776   -0.4004522741    2.7152244517
 H    0.1666928500   -2.0709368110    2.7766115033
 H   -0.8122478114   -1.8191372902   -0.8160867860