20

 C   -0.1792713895    1.4575335716    0.0193477044
 N   -0.0731496923    0.0156667558   -0.0106923230
 C    0.1465403456   -0.7464750825   -1.1288826163
 C    0.2938177955   -2.0570467288   -0.7399725658
 C    0.1630809974   -2.1032997906    0.6818419715
 C   -0.0572885413   -0.8052618523    1.0926969249
 C    0.2314174698   -3.2878179710    1.5647341301
 C   -0.3179547335   -4.6297559010    1.1229647130
 C    1.1675670378   -4.4399907273    1.2598930843
 H    0.7854837145    1.9360956195    0.2273137455
 H   -0.5441882589    1.8161305177   -0.9458905855
 H   -0.8920075889    1.7632271195    0.7901268068
 H    0.1785559593   -0.2894208524   -2.1056511308
 H    0.4586846057   -2.8930887827   -1.4031576442
 H   -0.2060653176   -0.3996956830    2.0816069442
 H    0.1044520471   -3.0574176458    2.6185667605
 H   -0.8316844164   -5.2403127391    1.8578425348
 H   -0.7366370126   -4.6871261603    0.1240134075
 H    1.7599589872   -4.3683503601    0.3540885686
 H    1.6765334310   -4.9200141471    2.0888861996