16

 C    0.1228462272    1.5991722782    0.0149144248
 C   -0.0001820484    0.0965373791    0.1025834108
 O    0.7182578573   -0.5925067516   -0.9486778321
 C    1.3955301400   -1.4558571666   -0.0295249948
 C    2.9072277779   -1.4234557568   -0.1980774717
 O    3.6234829680   -2.3222083936    0.1505610322
 C    0.7999631192   -0.6866945118    1.1981398069
 C    1.7273122655    0.0867016012    2.0063179273
 N    2.4607125312    0.7160106819    2.6408488429
 H    1.1674375008    1.9170775855    0.0596385586
 H   -0.3077278881    1.9429947954   -0.9301867566
 H   -0.4230866224    2.0756548738    0.8354121993
 H   -1.0546464030   -0.2071878086    0.1026236902
 H    1.0520618753   -2.4955531174   -0.0806134527
 H    3.2873838192   -0.4917663397   -0.6698345369
 H    0.1868271904   -1.3107763292    1.8496231117