16

 O    0.1104009636   -0.0237951137   -0.0071087839
 C   -0.0380559693    1.1624342244    0.0122816137
 C   -1.3440828508    1.9195447039    0.0252050184
 C   -1.3318529449    2.9382245327   -1.1368550075
 N   -1.0640694689    2.2748896233   -2.4100915326
 C    0.1080740472    2.1524803517   -2.8549994535
 O    1.2883842183    2.6213580968   -2.3033483589
 C    1.8340650739    1.9072701330   -1.2084948564
 O    1.0267979669    2.0473475957   -0.0595563575
 H   -2.1589245743    1.1997192140   -0.0696915469
 H   -1.4563342893    2.4603142003    0.9714175851
 H   -2.3194078166    3.4025447534   -1.2061997555
 H   -0.5907679020    3.7139835048   -0.9179994874
 H    0.2695512615    1.6801243746   -3.8248407944
 H    1.9525607620    0.8454348136   -1.4512931953
 H    2.7913621426    2.3797139613   -0.9929948576