21

 C   -0.2523755145    1.6244140902   -0.1060594422
 C    0.0812549465    0.1448628303    0.1149226702
 C    0.7599452955   -0.4883774180   -1.0980929070
 C    2.2467037680   -0.1213623223   -1.2798845891
 C    2.9765918779   -1.4146744350   -0.7809131399
 C    1.9785348561   -2.5204190366   -1.1312990387
 C    0.7711368944   -1.9807556334   -1.2385005101
 C   -0.4489339286   -1.8749227771   -2.1158797480
 O   -0.1678648157   -0.4492834991   -2.2592265116
 H    0.6511104226    2.2242721456   -0.2581627177
 H   -0.8850488254    1.7388535243   -0.9902558981
 H   -0.7849069506    2.0381439530    0.7553938322
 H    0.7377425495    0.0260078039    0.9865360482
 H   -0.8387567345   -0.4075779523    0.3394300713
 H    2.4486358540    0.0201525824   -2.3456864358
 H    2.5577112318    0.7818177544   -0.7468667944
 H    3.9349041652   -1.5665635360   -1.2881775100
 H    3.2008445047   -1.3638947902    0.2932361548
 H    2.2753614565   -3.5341183559   -1.3734024137
 H   -0.4202078710   -2.4104041104   -3.0704942926
 H   -1.4206139423   -2.0412747277   -1.6330062078