21

 C   -0.0607299276    1.4819037174    0.0532257279
 C    0.0096357752   -0.0130540133   -0.0347461817
 C   -0.0260198833   -0.7130496468   -1.1717746483
 C    0.0280947253   -2.2185115273   -1.0398224555
 C    1.2153765045   -2.6177087168   -0.1345095197
 C    0.1781777507   -2.3146311023    0.9771776734
 C    0.1233868967   -3.1789537624    2.2140156946
 C    0.1113077106   -0.7998617581    1.2625899177
 O   -0.8885198771   -2.6261411192    0.0244327416
 H    0.8235514150    1.8932223955    0.5575070712
 H   -0.1330368195    1.9405057374   -0.9367397944
 H   -0.9298209070    1.8030233880    0.6423212786
 H   -0.0912662354   -0.2430168557   -2.1480676009
 H   -0.1532477765   -2.7613692758   -1.9693449866
 H    1.4368717337   -3.6862403688   -0.1829806322
 H    2.1304647844   -2.0248787888   -0.1888343843
 H    0.9811115647   -2.9757621824    2.8644892299
 H   -0.7902722906   -2.9771085347    2.7838118696
 H    0.1322582439   -4.2377387186    1.9417758136
 H    0.9946528426   -0.4812742970    1.8345288559
 H   -0.7590259207   -0.5867897701    1.8994883196