17

 C    0.0212370817    1.4598850077   -0.0292498532
 N    0.0233729812    0.0158212478    0.0050628003
 C    0.0890750503   -0.8284179195   -1.0490833403
 N    0.2034670043   -0.3690102569   -2.3610876905
 N    0.1223894035   -2.0989731860   -0.6838400450
 C    0.0782317692   -2.0666963982    0.6831882150
 O    0.0989995687   -3.2077353307    1.4167610333
 C    0.0060726432   -0.7915801858    1.1698566248
 N   -0.0615475053   -0.2129482681    2.4491372868
 H    0.8306845300    1.8276322889   -0.6672564469
 H   -0.9301521742    1.8583029530   -0.4041251815
 H    0.1628807770    1.8147589436    0.9925629057
 H   -0.5117051952    0.3003475020   -2.6220100208
 H    0.1828994694   -1.1568454023   -2.9966653314
 H    0.1505007355   -3.9296371875    0.7793909740
 H    0.7355168320   -0.4603829725    3.0256159884
 H   -0.8995860312   -0.4804241756    2.9549282614