16

 O   -0.1995869318    1.0716916980   -1.1768277104
 C    0.0140374242    1.2620599603    0.0488201047
 O    0.9240242075    1.0066959629    0.8200447392
 C   -1.2390653528    2.0325389107    0.4896690851
 O   -2.2478914204    1.6149836685    1.0545590297
 C   -1.3320593062    3.4990120871   -0.0171520093
 C   -1.5615874705    3.7060044144   -1.5355964068
 C   -3.0504768122    3.9859478030   -1.2199807638
 N   -2.7712039745    3.8993814248    0.2721753187
 H   -3.1195707444    3.0186363872    0.7664850343
 H   -2.9349663019    4.7412833895    0.8164496764
 H   -0.5955209071    4.1326046278    0.4780765494
 H   -1.0384362904    4.5684582716   -1.9499779803
 H   -1.3373742090    2.8104682108   -2.1110224122
 H   -3.4385318089    4.9668065713   -1.4917896388
 H   -3.7583854817    3.2101050522   -1.5113119158