17

 C   -0.1346929367   -1.2782012225   -0.0318282139
 C   -0.0695341666   -0.0774867225    0.0023246771
 C    0.0408070873    1.3679694214    0.0516137664
 C   -0.2534865909    2.1002558597    1.3847246080
 C    0.7692625398    1.7439427759    2.4196504076
 C    1.1310163494    2.7562189783    1.3604635697
 C    1.4540586035    2.0254468870    0.0778811071
 C    2.7206359696    1.5753877993   -0.4924567204
 O    1.9672388183    2.6640023599   -1.0679508615
 H   -0.2044101473   -2.3373041643   -0.0634476658
 H   -0.5171298348    1.8270180773   -0.7710081994
 H   -1.2109987346    2.5386547513    1.6331914271
 H    0.5929954452    2.1554285600    3.4081194118
 H    1.2271369138    0.7583596548    2.4198123360
 H    1.4177664576    3.7755710733    1.5845198685
 H    3.6597666096    1.8596448155   -0.0203088237
 H    2.7482539771    0.6660413757   -1.0901146047