16

 C   -0.0298326564    1.4651977293    0.0550773609
 N   -0.0063086838    0.0086811845    0.0399900669
 C   -0.0369837543   -0.7096275471   -1.1361684646
 N   -0.0198025431   -1.9823511623   -1.2532732469
 C    0.0361823711   -2.7856241111   -0.0846908216
 N    0.0562068828   -4.0664437793   -0.1303939573
 C    0.0701554301   -2.0728026722    1.1845844715
 C    0.0485503451   -0.7260147217    1.2120784978
 O    0.0751383278    0.0618464787    2.3106349887
 H    0.8685175408    1.8685621532    0.5298432563
 H   -0.0729174066    1.8146966267   -0.9775726318
 H   -0.9044047756    1.8392813943    0.5938984611
 H   -0.0797823166   -0.0855307757   -2.0279059853
 H    0.0254959774   -4.3535054535   -1.1103863587
 H    0.1130115370   -2.6470762824    2.1020950290
 H    0.1133699644   -0.5036395413    3.0901110239