21

 C   -0.0824113093    1.5861599999    0.0243239786
 C    0.0314108823    0.0588057651    0.0338360589
 C    0.7571902377   -0.5282447218   -1.2173014643
 C    1.4368001268   -1.8100532124   -0.7043578104
 C    2.8774936841   -2.1865883577   -1.0665309658
 O    3.3700582340   -2.8817206166    0.0854800310
 C    2.7502898664   -2.3563815718    1.2699868434
 C    1.6138480124   -1.5195206903    0.7689279116
 C    0.8677449232   -0.4991608444    1.1782854417
 H    0.9087079243    2.0522726541   -0.0095488685
 H   -0.6473638478    1.9317233540   -0.8480340555
 H   -0.5961936557    1.9534725806    0.9191442985
 H   -0.9888610428   -0.3531379854    0.0884930862
 H    0.0799789837   -0.6951835154   -2.0595108015
 H    1.5231951440    0.1865999250   -1.5446994131
 H    0.7936911036   -2.6903044028   -0.8496748937
 H    2.9805030141   -2.8645743928   -1.9180587509
 H    3.4737822320   -1.2802759206   -1.2639538194
 H    2.4339966478   -3.2067828281    1.8881195144
 H    3.4705113456   -1.7667241195    1.8556141194
 H    0.8407275637   -0.0791946091    2.1785471595