17

 O   -0.0245396537   -0.0390820123   -0.2258860525
 C    0.0472416087    1.0942349549    0.1912381729
 C    1.2788578964    1.9070402695    0.1807641392
 C    1.7504177754    3.0465542193    1.1351712557
 C    2.3887728559    3.7029231339   -0.0665651057
 C    3.1607922242    2.6605502425    0.7453485419
 C    2.7466855616    1.3644991542    0.0059416927
 C    2.7075696228    1.6907571881   -1.5059344085
 C    1.6977706031    2.7871601961   -1.0974304609
 H   -0.8540687880    1.6129724150    0.5932433010
 H    1.3456791257    3.4571020452    2.0505721524
 H    2.7246897663    4.7237888521   -0.1887547989
 H    4.0856437067    2.8844331604    1.2590925355
 H    3.0630572702    0.3990487928    0.3956018614
 H    3.6331755687    2.0023860857   -1.9989945284
 H    2.2244850293    0.8894770925   -2.0711770777
 H    0.9639983467    3.2128865002   -1.7800552501