21

 O   -0.1053237228    1.4776649840   -0.2964626884
 C    0.0404799387    0.1136989910    0.0861750281
 C   -1.3298809953   -0.5262428951   -0.0038050630
 C   -1.9504770556   -0.9005671076   -1.3755899286
 C   -1.0307673475   -2.1645929430   -1.4647745200
 C   -1.7954902133   -3.2937949477   -2.1575419629
 C   -3.2029964714   -3.0871830249   -1.5304562126
 C   -2.9080031063   -1.8891087918   -0.6305096075
 C   -1.4984253785   -2.0674306425    0.0269143884
 H    0.7508658787    1.9063765981   -0.2084828095
 H    0.7681995066   -0.3998017527   -0.5585096271
 H    0.4098216367    0.0321548100    1.1222117534
 H   -2.0151162135    0.0169044841    0.6577083475
 H   -2.2162604767   -0.2253447675   -2.1910412797
 H    0.0251862983   -2.0488611840   -1.7091828314
 H   -1.7963667778   -3.1811711874   -3.2466319866
 H   -1.3711322050   -4.2776228026   -1.9317165547
 H   -3.9706505661   -2.8618214564   -2.2777549665
 H   -3.5457562848   -3.9574092484   -0.9612720469
 H   -3.7161582208   -1.4746120419   -0.0240919387
 H   -1.2424678736   -2.7528554938    0.8391616666