17

 N   -0.3745132583    1.4359436648   -0.0893137297
 C   -0.0733380243    0.0265980358   -0.0808743621
 C    1.0486541634   -0.4751016095   -0.9775768963
 C    2.3428508885    0.1246143113   -0.6418383533
 N    3.3494084263    0.6219550589   -0.3691743991
 C   -0.3331506484   -0.6865513357    1.2407406055
 O   -0.7450718663    0.0603558364    2.3345297421
 C   -1.3153335847   -0.8469799706    0.1008116869
 O   -2.5125051559   -0.1561563689    0.2601959674
 H    0.0339325817    1.9035177896    0.7135966661
 H   -0.0569051418    1.8925574646   -0.9357607406
 H    1.1345745893   -1.5650177135   -0.9015759916
 H    0.8262342230   -0.2575180499   -2.0308825020
 H    0.3286358461   -1.5095692539    1.4999941815
 H   -1.7017318255    0.1790578011    2.2232823736
 H   -1.4165691504   -1.7915882043   -0.4258068653
 H   -2.2864185126    0.7709385838    0.0447259868