22

 C    0.1114139301    1.5729878900    0.0709538097
 C   -0.0101976052    0.0409961202    0.0482880686
 C    0.8183848022   -0.5769858437    1.1837275424
 C   -1.4933017961   -0.4503779417    0.0788163626
 N   -2.1450131794   -0.0904688044    1.3431774734
 C   -2.2922632406    0.0413447276   -1.1669533457
 N   -3.6542658367   -0.4866948853   -1.1196775078
 C   -1.4858904242   -1.9307858001   -0.0094367545
 N   -1.5057206097   -3.0785762338   -0.1455884865
 H    1.1659240754    1.8525408331   -0.0126457715
 H   -0.4185601806    2.0573468323   -0.7533250497
 H   -0.2528096840    1.9986988535    1.0124947978
 H    0.3998252747   -0.3106258613   -0.9070390008
 H    0.4227344136   -0.2798527563    2.1585205846
 H    0.8101482144   -1.6690471187    1.1382312440
 H    1.8583220443   -0.2434160777    1.1147405871
 H   -2.0732049367    0.9155578541    1.4675102227
 H   -3.1378403285   -0.2907894132    1.2357598018
 H   -2.3543540040    1.1319820552   -1.1130749763
 H   -1.7339984992   -0.2158574460   -2.0819439170
 H   -4.2496170120    0.0038831321   -1.7770674475
 H   -3.6616068377   -1.4671471659   -1.3848752174