22

 C   -0.0771792483    1.6122693696   -0.0537426075
 C    0.0546917173    0.0858638679   -0.0143402499
 C    0.8347715201   -0.5072733629   -1.1710912591
 C    1.5823189655   -1.5428222476   -0.7922267018
 C    1.4553968103   -1.7883270550    0.6687857014
 C    1.2625378668   -3.1718563365    1.1929017062
 N    2.5109807841   -2.4427207590    1.4601793713
 C    0.7655313470   -0.5319702385    1.2395213437
 C    1.7971614928    0.3956684174    1.8932466933
 H    0.8974271771    2.1082020426   -0.0554100070
 H   -0.6082886852    1.9220146621   -0.9603943458
 H   -0.6456970497    1.9859718214    0.8041972848
 H   -0.9667068190   -0.3234966983   -0.0585135211
 H    0.7325038899   -0.1429149599   -2.1879503320
 H    2.1880466247   -2.1698633110   -1.4390756060
 H    0.6344191379   -3.3360244195    2.0652975217
 H    1.2747725263   -3.9967247843    0.4838097375
 H    3.2551563549   -2.7759489132    0.8516001668
 H    0.0226908439   -0.8097211336    1.9943122287
 H    2.5490585442    0.7273226836    1.1691200727
 H    1.3237619382    1.2831544511    2.3226970621
 H    2.3204783312   -0.1402872964    2.6879407099