21

 C    0.0108755375    1.5326321506    0.0134887700
 C    1.3017751850    0.7475114754   -0.0064481109
 C   -0.0289375041    0.0259273798    0.0143426622
 C   -0.4176641188   -0.7052096370    1.2919073529
 C   -0.1597817040   -2.2020207490    1.1247894317
 O   -0.9910303203   -2.7472291929    0.1074021800
 C   -0.8522194016   -2.1444443107   -1.1491886833
 C   -1.8686222700   -1.0997373095   -1.5315211214
 C   -0.4341151529   -0.6965400545   -1.2426364462
 H   -0.2578104207    2.0510492700    0.9286412545
 H   -0.2858053363    2.0499523973   -0.8929916680
 H    1.8781474277    0.7384072754   -0.9259611754
 H    1.9079767197    0.7342230803    0.8935933914
 H    0.1506620233   -0.3120779420    2.1421873853
 H   -1.4815724165   -0.5611123213    1.5196321593
 H    0.9033135455   -2.3795476758    0.8966667273
 H   -0.4105668031   -2.7549804829    2.0343580602
 H   -0.5018034830   -2.8397266736   -1.9092199705
 H   -2.2168513620   -1.0509932592   -2.5576059386
 H   -2.6227598336   -0.8799177288   -0.7838655093
 H    0.1550712183   -0.4342766814   -2.1170782811