19

 C   -0.3363248987    1.9043633916   -0.5749342580
 C   -0.2255510337    0.4215019887   -0.2696969856
 O    0.8273292122   -0.1192315680   -1.0570566668
 C    1.0373634096   -1.4996986509   -0.8614030587
 C   -0.0369536178   -2.3247757689   -1.5817441442
 O   -0.3255266720   -3.4552630590   -1.2899286562
 C    2.4052144650   -1.8389462632   -1.4253430256
 C    2.8250752565   -3.2196696138   -1.6790916981
 O    2.4430386556   -2.3582798526   -2.7573771292
 H    0.6040871279    2.4132718929   -0.3458869366
 H   -0.5632480544    2.0628158141   -1.6327495991
 H   -1.1324222752    2.3563417592    0.0237493764
 H   -0.0115544285    0.2550373079    0.7986881841
 H   -1.1762743873   -0.0900475313   -0.4905967825
 H    1.0149155579   -1.7575437567    0.2102032759
 H   -0.5241373625   -1.7765823438   -2.4169059476
 H    3.1565693230   -1.0800758891   -1.2090934635
 H    3.8839853646   -3.4674046876   -1.6352408633
 H    2.1348378979   -4.0341359995   -1.4700091512