17

 C   -0.3457651149    1.4909371530   -0.0597868266
 C    0.0904533205    0.0451946851    0.0943233971
 O    1.2251886425   -0.2739654238   -0.7965335791
 C    2.1393928687   -0.3283203193    0.3339952287
 C    0.9764770542   -0.3384747072    1.2609560504
 C    1.0934937617   -1.1785251932    2.2887513764
 C    2.4881764333   -1.7808148334    2.2827865090
 C    2.8898252407   -1.6136922534    0.7772545802
 O    3.5696652575   -2.3544287182    0.1314922324
 H    0.4796068154    2.1775918402    0.1475352065
 H   -0.6962711218    1.6667265059   -1.0808285788
 H   -1.1662421089    1.7143393203    0.6302284766
 H   -0.7479083092   -0.6379176243   -0.0852931579
 H    2.8362761427    0.5215405518    0.3231598696
 H    0.2968000792   -1.5436011956    2.9260338919
 H    3.2184916577   -1.2549253958    2.9124660395
 H    2.5134068506   -2.8347354123    2.5748505041