15

 C    0.4010771567    1.5422043360    0.6206139749
 O    1.7211820593    1.1103354363    0.2443212248
 C    1.2301588150   -0.1746471312   -0.1777686025
 C   -0.2451747704    0.2734063309    0.0025580467
 C   -1.1433098368   -0.5526050068    0.8454641042
 N   -0.8469273640   -0.9802113814    2.0715175852
 N   -1.9449294653   -1.6534153551    2.3799744369
 N   -2.8752993906   -1.6643212857    1.4381874225
 N   -2.3791562067   -0.9655509598    0.4510742679
 H    0.2841900681    1.6146833619    1.7089337419
 H    0.1283586167    2.4965646582    0.1572015337
 H    1.5373454487   -0.4216182420   -1.1998403286
 H    1.5362749005   -0.9785768639    0.5029739433
 H   -0.7495119820    0.4694823327   -0.9434013476
 H   -2.0679800792   -2.1246228601    3.2642137667