16

 O   -0.4838325259    0.7219223131    0.8106606679
 C    0.1030802465    1.1195512269   -0.1632549702
 C    1.3870293042    1.8786042681   -0.1128514244
 C    2.3514470024    1.7161765925   -1.2457984054
 N    1.5270941090    2.9223995824   -1.1620365402
 C    2.1928597648    4.0478961062   -0.5504480333
 O    2.6852550945    4.9369285131   -1.1816956405
 C    2.1346323966    3.9016003832    0.9731484674
 C    1.8996819988    2.4002942272    1.2310881300
 H   -0.2780623473    0.9492960038   -1.1936110542
 H    3.4091406717    1.7949826665   -1.0048464274
 H    2.1201521633    1.0602249563   -2.0810577092
 H    3.0394782002    4.3147430861    1.4213844821
 H    1.2921634272    4.5037032504    1.3327375395
 H    1.1484916969    2.2098981285    1.9986843131
 H    2.8176995471    1.8900769855    1.5346485347