20

 C   -0.2265730909    1.4823491658   -0.1253487180
 C    0.2257306298    0.0348110987    0.1128783549
 C    0.8249523129   -0.5831372840   -1.1356975245
 C    0.9841945705   -2.0516589733   -1.4013533532
 N    0.0807484102   -1.2158765242   -2.2243368783
 C   -1.3202696568   -1.6111011282   -1.8994321674
 C   -1.3044883954   -2.6896609166   -0.7976135358
 C    0.1815584393   -3.0060086117   -0.5694330396
 O    0.6215768792   -3.9037139635    0.1031337129
 H    0.6068620157    2.1019100997   -0.4730506413
 H   -1.0147517876    1.5373191655   -0.8830223807
 H   -0.6126723629    1.9279446489    0.7960773838
 H    0.9954448740    0.0181214914    0.8943859974
 H   -0.6091553595   -0.5531407955    0.5020945494
 H    1.6456878770    0.0190118813   -1.5280341208
 H    1.9013013528   -2.4283313473   -1.8436817826
 H   -1.8987269167   -0.7251145431   -1.6239385951
 H   -1.7529544782   -2.0054132077   -2.8223960993
 H   -1.7662406454   -2.3856291958    0.1470607859
 H   -1.8068684578   -3.6104394005   -1.1069737176