20

 C   -0.0571072975    1.6369306724    0.0101958865
 C    1.4442845593    1.2486064238   -0.0055113909
 C    1.1116271841    0.1716044572    1.0737134230
 C    2.0686492553   -1.0087846909    1.2370227747
 C    2.0755766562   -1.8781337421   -0.0279482759
 C    2.0458015867   -0.9953117567   -1.2832185696
 C    1.0920062920    0.1831682493   -1.0899753260
 C   -0.0324224593    0.0864025729    0.0016700315
 H   -0.4302100937    2.1148689735    0.9207204861
 H   -0.4466270777    2.1245522464   -0.8882383729
 H    2.3049222245    1.9226239875   -0.0097152513
 H    0.7999580491    0.5880242461    2.0377791903
 H    3.0760800965   -0.6246257002    1.4489219275
 H    1.7823484342   -1.6118518338    2.1063582137
 H    2.9300702805   -2.5624624285   -0.0393531760
 H    1.1742954441   -2.5035746633   -0.0231213018
 H    3.0492614633   -0.6088049844   -1.5092215340
 H    1.7437372345   -1.5890787205   -2.1536207130
 H    0.7629432714    0.6098354728   -2.0437244211
 H   -0.8958582632   -0.5825942416    0.0059255393