17

 C   -0.1694722363    1.3129901998    0.0948435910
 O    0.0685899299   -0.0875398703    0.0643524867
 C    0.6158406904   -0.5774414459   -1.1254726928
 C    1.3419772201   -1.8854278858   -0.8018499595
 O    1.7437154478   -2.4983964570   -2.0174997727
 C    0.6384049909   -2.8755212904   -2.7592891828
 O   -0.2206203470   -1.7803763895   -3.1142723720
 C   -0.4451844990   -0.7772999607   -2.2266180217
 O   -1.3907311546   -0.0540678298   -2.3687792397
 H    0.7569384672    1.8724931191   -0.1058515228
 H   -0.9335548103    1.6041303659   -0.6306349126
 H   -0.5105398232    1.5462721032    1.1058306343
 H    1.3500423314    0.1274422817   -1.5525243902
 H    2.2405327287   -1.6967257380   -0.2129129050
 H    0.6756498359   -2.5454405683   -0.2259971209
 H    0.9911061106   -3.2958227047   -3.7019226895
 H    0.0238918276   -3.6097449892   -2.2146426399