21

 C   -0.0279425219    1.5504678242   -0.0224182845
 C    0.0012365051    0.0196788801   -0.0065715530
 C    0.6134521872   -0.5116198484   -1.3116620573
 O    0.8333635482   -1.9157234957   -1.3352220474
 C    1.2315266354   -2.5249483555   -0.1401115939
 C    2.2903390613   -2.0815869788    0.8407675719
 C    2.3377809410   -0.5693919137    1.0630977774
 C    0.7752997322   -0.5471309509    1.1920995984
 C    0.7785490934   -2.0903352704    1.2053685474
 H    0.9863307318    1.9652590500   -0.0459867587
 H   -0.5632589025    1.9328569310   -0.8985072347
 H   -0.5263448559    1.9419127992    0.8702315830
 H   -1.0300582610   -0.3537085230    0.0636081226
 H   -0.0536125016   -0.3037603564   -2.1548430770
 H    1.5587601330    0.0156435748   -1.5115239222
 H    1.2354635453   -3.5989063181   -0.3014116758
 H    3.0659564928   -2.7719540707    1.1548252113
 H    2.8006343061   -0.3323140974    2.0244535340
 H    2.8124249162    0.0487780639    0.2951946141
 H    0.4337920949   -0.0933061771    2.1249302860
 H    0.2232819187   -2.7167591768    1.8940642584