21

 C   -0.2468449136    1.5409929001   -0.0219769609
 C   -0.0173201691    0.0359962285   -0.0325093322
 C    1.1371456070   -0.5612491981   -0.9317515409
 O    1.9184710978    0.2974801896   -1.7294752994
 C    1.7664747347   -1.1957480347    0.3080974083
 C    2.0465157312   -0.1519997570    1.3609851544
 C    0.6336886751   -0.6435545433    1.1864084314
 C   -0.1274954358   -1.3147818225    2.2897153266
 O   -0.8236367964   -0.3839360025    3.1121530359
 H    0.6705510636    2.1027211659    0.1806393995
 H   -0.6253977302    1.8814372090   -0.9907217622
 H   -0.9782077903    1.8079413201    0.7475040531
 H   -0.9590303533   -0.4682290455   -0.2743615538
 H    0.7414574367   -1.3139177942   -1.6178833274
 H    2.4855050892    0.8148169490   -1.1486583128
 H    2.2443135313   -2.1681317689    0.3468602564
 H    2.5692773064   -0.5286523969    2.2355133813
 H    2.3289662085    0.8656620379    1.1001174846
 H   -0.9035782918   -1.9690991165    1.8765956119
 H    0.5523633611   -1.9474294292    2.8841570833
 H   -0.1730600122    0.2433200193    3.4452237028