18

 C    0.0095376708    1.5484300304    0.0242142226
 C    0.0156528149    0.0413752183   -0.0094503332
 C    0.4330508809   -0.7994086037   -1.2653895365
 C   -0.3475252416   -1.9729022732   -0.5931961746
 C    0.4054491010   -2.1675944909    0.7311419575
 N    1.7869046005   -1.6354134231    0.7581671234
 C    0.6601218574   -0.7555607860    1.1412956106
 C   -1.2925783738   -0.8145636078   -0.1377041357
 O   -2.4646365095   -0.6089317482   -0.0842228114
 H    1.0243337398    1.9513164388   -0.0591374697
 H   -0.5887180484    1.9570168423   -0.7960791176
 H   -0.4209931373    1.9167037095    0.9617697543
 H   -0.0559628536   -0.4448225885   -2.1743474603
 H    1.4996126924   -0.9513732123   -1.4113223317
 H   -0.6989444484   -2.8413834411   -1.1443173386
 H    0.1046825052   -2.9407571068    1.4274670435
 H    2.2341189793   -1.9658967459    1.6103585188
 H    0.5608579604   -0.4064513919    2.1627031986