23

 C    0.8080987269    1.7819247441    0.3595632782
 C    0.3772976584    0.3137973242    0.2606378855
 C    0.8299361042   -0.5760971924    1.4349454305
 C    0.0258066907   -0.2699865108    2.7013068146
 O    0.6250297635   -0.9608916468    3.7895111113
 C    0.7324251207   -2.0770733778    1.1016985580
 C    1.8557730807   -2.5781664199    0.1702092816
 C    1.7239489739   -3.9909942549   -0.1647877319
 C    1.5909418548   -5.1563578559   -0.4285790193
 H    1.8985840817    1.8674104242    0.4215307288
 H    0.4806992730    2.3445066091   -0.5203584544
 H    0.3882713257    2.2798214000    1.2390797399
 H   -0.7162445996    0.2529685808    0.1692703287
 H    0.7734112791   -0.1005752139   -0.6734885698
 H    1.8791980454   -0.3431434132    1.6688634523
 H    0.0129619867    0.8133268875    2.8907667384
 H   -1.0192878551   -0.5905408757    2.5533354945
 H    0.0741833380   -0.8355297553    4.5672334185
 H    0.7732492440   -2.6489455361    2.0322125279
 H   -0.2397173735   -2.2893339372    0.6388039668
 H    1.8744535023   -1.9924962126   -0.7576723852
 H    2.8264104608   -2.4078227224    0.6544996076
 H    1.4847453879   -6.1854340051   -0.6662752525