17

 C   -0.0349520227   -1.1605739892   -0.0887337923
 C   -0.0175544665    0.0415834849   -0.0388663853
 C    0.0154563938    1.4726465278    0.0153624630
 C    0.5287572589    2.1769153998    1.2702155772
 C    1.3490022397    2.1921434728    0.0246112824
 C    2.7682501374    1.6053834816   -0.1685337605
 C    3.0961481481    2.8715215424   -0.9843815842
 O    2.1752844533    2.9312191364   -2.0775556790
 C    1.7368428456    3.4077515886   -0.7973947973
 H   -0.0563935828   -2.2208870470   -0.1349446119
 H   -0.7885043521    1.9735044831   -0.5172524787
 H    0.0186806822    3.0876103671    1.5678998467
 H    0.8552270841    1.5485901790    2.0915028868
 H    3.3273916636    1.5349270235    0.7681903606
 H    2.8375484100    0.6644288505   -0.7183713170
 H    4.0449041741    3.3814352884   -1.1003407012
 H    1.3650664232    4.4244868001   -0.7384250591