18

 N   -0.0644886431    1.1018449094   -0.5636869603
 C   -0.0315126366   -0.0391495355   -0.0287373931
 C   -1.2612872994   -0.9033791094    0.2684297658
 C   -0.6180609441   -2.2248876043    0.5172215748
 C   -0.7911907764   -3.5086077121    0.2211688256
 C    0.4887624824   -4.2914848746    0.4619554925
 C    1.5743037258   -3.1738833058    0.5190139576
 C    0.7850465979   -1.9459116160    0.9867493520
 O    1.1157216827   -0.6839657671    0.3652850071
 H    0.8785983568    1.4846220845   -0.6510723726
 H   -1.7677327357   -0.5017365666    1.1562751849
 H   -1.9708438118   -0.8728149868   -0.5589988312
 H   -1.6933934769   -3.9589387220   -0.1766222446
 H    0.4494322010   -4.8584121237    1.4022843736
 H    0.6841197317   -5.0227091731   -0.3293259213
 H    2.4226160035   -3.4239334289    1.1601496172
 H    1.9520270797   -2.9746379289   -0.4885946857
 H    0.8567083424   -1.8001605990    2.0745985476