14

 O    0.0611196097    0.1401902669    0.5109018660
 C    0.1838885539    1.2286446648    0.0383992545
 O    0.6488577453    2.2811098122    0.7386191489
 C    0.7751749918    3.5429901918    0.0658881190
 C    2.2216317556    3.9189088216   -0.1031319342
 C    2.6107800037    5.3486648119    0.0100653189
 N    3.0078228035    4.3849143255    1.0445219655
 H   -0.0722755816    1.4902400524   -1.0079583199
 H    0.2695020148    3.4971897633   -0.9080965673
 H    0.2539310882    4.2808097589    0.6856527627
 H    2.7797857034    3.2753760015   -0.7805231212
 H    3.4238019742    5.7364030801   -0.5961357775
 H    1.8303262073    6.0723186249    0.2342188165
 H    2.4139700401    4.4734774642    1.8660695280