14

 C   -0.0190006627    1.5361380210    0.0104332123
 C    0.0022499419   -0.0243592367    0.0019505305
 C    0.7165429323   -0.5084636030    1.1987382135
 C    1.3029997014   -0.8674124029    2.1823503013
 C   -1.3836102514   -0.5304937442    0.0123841365
 C   -2.5230127744   -0.9072568686    0.0212854011
 C    0.6936637395   -0.4955367367   -1.2133048928
 C    1.2612747740   -0.8437387308   -2.2117249049
 H    1.0052596971    1.9135132500    0.0020056780
 H   -0.5476303847    1.8970552979   -0.8738056535
 H   -0.5294741644    1.8876683558    0.9090053209
 H    1.8195935696   -1.2016147676    3.0481044984
 H   -3.5259269618   -1.2568279152    0.0289833360
 H    1.7612424636   -1.1683272390   -3.0907971074