19

 C   -0.0888080267    1.5764813342   -0.1181530525
 C   -0.0298479682    0.0574904834   -0.0359637561
 O   -1.3020520724   -0.5281524765   -0.1936070243
 C    1.1475659091   -0.5623433240   -0.8520506309
 N    1.9354058323   -0.6088696368    0.4032271667
 C    0.6990211563   -0.5318551448    1.2049366699
 C    0.7992639991    0.2758872206    2.5046978303
 C    1.5986895898   -0.4233098563    3.5084977422
 N    2.2342066512   -0.9995305474    4.2829886425
 H    0.9008393049    2.0171606038    0.0291467896
 H   -0.4399459635    1.8844944571   -1.1109208284
 H   -0.7776249761    1.9865936386    0.6271084355
 H   -1.7658611780   -0.0696514910   -0.9023218274
 H    0.8566758818   -1.5429767932   -1.2502620730
 H    1.5971442560    0.0411977207   -1.6481428463
 H    2.4945975094   -1.4426232671    0.5446880279
 H    0.2482745713   -1.5098805423    1.4237630622
 H    1.2592890496    1.2489377373    2.3086571384
 H   -0.2035613558    0.4500729137    2.9120840037