13

 N    0.0155505649    1.4089683740    0.1473023068
 C    0.0251241309    0.0234158921    0.0223063733
 N   -1.0133571744   -0.7795353536   -0.0019970552
 N   -0.5749003716   -2.1116522187   -0.0233172914
 C    0.7155901410   -2.0146246270   -0.0301303209
 O    1.7601973610   -2.8760816341   -0.0561368971
 C    2.8898663935   -2.0792802644   -0.0167365006
 C    2.5767581906   -0.7702282659    0.0247142192
 N    1.1794778850   -0.7247044827    0.0085572799
 H    0.4392836533    1.8826607326   -0.6445434989
 H   -0.9440413664    1.7226281335    0.2427518466
 H    3.8327786004   -2.5975729298   -0.0225770168
 H    3.2057761817    0.1006720740    0.0721974050