17

 C    0.1407490515    1.5315929163    0.2199927548
 C   -0.0083359931    0.0344883961   -0.0839077273
 C   -1.4295104894   -0.4297962340   -0.0461007237
 C   -2.4438423203   -0.7825316062    0.9715724047
 O   -3.5168676809   -0.0441806902    0.3833015286
 C   -2.7465691986   -0.0658214183   -0.8490115525
 C   -2.7488403261   -1.5602929621   -1.2602513085
 O   -2.9882888299   -2.1441764698   -2.2783863126
 C   -2.0233714101   -1.8938267749    0.0031588281
 H    1.1922309973    1.8303356604    0.1813610791
 H   -0.4080676116    2.1379267725   -0.5073433351
 H   -0.2460531206    1.7721712933    1.2147789627
 H    0.4189472850   -0.1915460828   -1.0688919099
 H    0.5690371054   -0.5544393755    0.6391647080
 H   -2.3999214380   -0.8906796384    2.0481527519
 H   -2.9420151829    0.7577488696   -1.5304120699
 H   -1.5247936175   -2.8048208559    0.3036168015