14

 C    0.3015992296    1.3956491914   -0.0560036986
 C   -0.1686476270   -0.0423277004    0.0869548664
 O    0.1363566683   -0.8335245527   -1.0430629491
 C    1.3047277276   -1.5815017193   -0.7491818523
 C    1.3877346099   -1.5703389336    0.7612439850
 N    2.1641185841   -2.2650673415    1.4687391094
 O    0.4692667552   -0.6685021247    1.2086239290
 H    1.3831439361    1.4325393458   -0.2162124289
 H   -0.1980681612    1.8604865317   -0.9100745146
 H    0.0602673752    1.9631225663    0.8469134126
 H   -1.2507966526   -0.0929174276    0.2524489139
 H    1.1985719553   -2.5953093528   -1.1419090133
 H    2.2060470470   -1.1302439333   -1.1873910665
 H    2.0365994326   -2.0619047494    2.4609073770