16

 C   -0.1486685541    1.2521493959   -0.3728748569
 C    1.2734043468    1.0074282238    0.0168785412
 N    0.2853519108   -0.0461828143    0.1330709901
 C   -0.1142393080   -0.5151490856    1.3840531112
 C   -1.4619170235   -0.8569764528    1.6127806584
 N   -1.8712675143   -1.3707636469    2.7626611889
 C   -0.9347780614   -1.5600422751    3.7030275303
 C    0.3923470862   -1.2226066028    3.4787503874
 N    0.8122491413   -0.6934727337    2.3250293176
 H   -0.7490135303    1.8735966197    0.2878930835
 H   -0.4388004623    1.2763864597   -1.4190404481
 H    2.0289777986    0.8581627651   -0.7484574404
 H    1.6319938951    1.4514285288    0.9410350838
 H   -2.2040411390   -0.7033640136    0.8332744218
 H   -1.2574823522   -1.9858087026    4.6482287719
 H    1.1452716062   -1.3739603555    4.2484631293