17

 O    0.2085786253   -0.1580944026    0.1897617104
 C    0.1065723789    1.0376059001    0.0993117670
 C    1.2627743547    2.0095659970    0.0185064082
 C    1.0620986898    3.0222421180   -1.1468973257
 C    0.9359966315    4.3627199883   -0.4648786269
 C    1.0718672349    4.2836662506    0.8573800565
 C    1.3236943843    2.8873034111    1.2939440059
 C    1.0662447308    2.3756030599    2.6513306133
 O    2.3970998280    2.6514046419    2.2129770841
 H   -0.8953166794    1.5300526624    0.0778242016
 H    2.1875972839    1.4365439706   -0.0671317030
 H    1.9004468981    2.9993152510   -1.8522150296
 H    0.1654791357    2.7872856384   -1.7365965535
 H    0.7577896158    5.2755657019   -1.0219182561
 H    1.0392686947    5.1060120890    1.5615504812
 H    0.6739855645    3.0452111976    3.4162824593
 H    0.8303213887    1.3212099749    2.7912645072