20

 C   -0.0425526946    1.4334681637    0.2138512973
 C   -0.1913343312   -0.0863791949    0.1061164308
 C   -1.6269536824   -0.5582305608   -0.2391992017
 C   -2.0747881151   -0.1369466021   -1.6465506494
 C   -1.6623742816   -2.0720879948   -0.1085117506
 O   -1.1742693788   -2.8150141682   -0.9361115860
 C   -2.3172874386   -2.6748956507    1.1249267490
 O   -2.1970664763   -4.0636953318    1.1443875579
 H    0.9777810359    1.6984860358    0.5072033540
 H   -0.2509137284    1.9343370838   -0.7359317477
 H   -0.7228624013    1.8466597129    0.9668129319
 H    0.4913804069   -0.4838844619   -0.6536500623
 H    0.1121531342   -0.5406774023    1.0579840369
 H   -2.3130888206   -0.1355330680    0.5073649726
 H   -1.4232198368   -0.5883630887   -2.3993380464
 H   -3.0986139178   -0.4662818163   -1.8490896381
 H   -2.0465008285    0.9492355921   -1.7611597788
 H   -1.8631147724   -2.2178215816    2.0203289950
 H   -3.3750399488   -2.3557615402    1.1267598517
 H   -1.7489437840   -4.2831079057    0.3107319039