17

 C   -0.4521469749    1.3093969733   -0.2176476115
 C   -0.3117227273   -0.1380813361   -0.1603036947
 C   -0.1947135591   -1.3362579860   -0.1043352932
 C   -0.0818375727   -2.7635895742   -0.0613695838
 C   -0.2538168221   -3.5186111673    1.2537271979
 C   -1.3145303018   -3.6210706369    0.2138257096
 O   -2.5355113572   -2.9955838784    0.5187657863
 C   -3.1670858098   -2.3682627884   -0.5045952621
 O   -4.2241204075   -1.8337796778   -0.3643424073
 H    0.0900776506    1.7966200808    0.6001933633
 H   -0.0612565419    1.7078866980   -1.1602427849
 H   -1.5042280969    1.6049667321   -0.1430777297
 H    0.6219365574   -3.1982916719   -0.7662022043
 H    0.3788216276   -4.3787571738    1.4380100633
 H   -0.4961570555   -2.9198095198    2.1231310363
 H   -1.4231862653   -4.5463903307   -0.3449130887
 H   -2.6027153035   -2.4219503930   -1.4523440564