13

 N   -0.1297130244   -0.9391093555   -0.9030495233
 C   -0.0682143487    0.0663194754   -0.3370268673
 C    0.0377574426    1.3689691621    0.3268373011
 C    1.4109139606    1.9634502211    0.2189854828
 C    2.1712383502    2.6773910420    1.1083563666
 N    3.3583664856    3.0662181430    0.5340078503
 C    3.3232424356    2.5898121100   -0.6883009501
 N    2.1620389395    1.9196381640   -0.9371162327
 H   -0.7258183185    2.0272851184   -0.1106319248
 H   -0.2219647563    1.2541864172    1.3838759689
 H    1.9261627766    2.9336597788    2.1284094837
 H    4.0988457842    2.6906479356   -1.4325794945
 H    1.9235960030    1.4159382479   -1.7766958007