18

 O   -0.0774760239    1.4379403040    0.4075444307
 C   -0.0226413887    0.0599222693    0.1679699743
 C   -0.7049847685   -0.8904331327    1.1147737434
 C   -1.3021007182   -0.6096040110   -0.2512808585
 C   -2.5683881615    0.1916908392   -0.3531250747
 O   -3.6647592211   -0.6557638848   -0.0185156138
 C   -4.8953877323    0.0081847261   -0.1266593358
 C   -5.9765257682   -0.9104244360    0.2448077227
 N   -6.8491998900   -1.6095169130    0.5319469448
 H    0.4872952552    1.6300610467    1.1632017125
 H    0.8908360688   -0.2774497462   -0.3209722342
 H   -0.2621034787   -1.8620764498    1.3017397330
 H   -1.2158021264   -0.4501045128    1.9646895681
 H   -1.2103828508   -1.3965725376   -0.9932643556
 H   -2.5307856472    1.0564799853    0.3233175357
 H   -2.6995446353    0.5792220485   -1.3767654773
 H   -4.9442301780    0.8901685033    0.5341687798
 H   -5.0796396052    0.3672988613   -1.1534115650