18

 O    0.4750552061    1.2989600850    1.5940739027
 C    0.2838931254    1.6296417593    0.4439749478
 N    1.2316831132    1.6633795285   -0.5353419015
 C    2.5620289449    1.1601940017   -0.3621012725
 C    3.7117412163    1.9302242772   -0.9958134681
 C    3.5469752212    1.9093042214    0.4874630457
 C    3.3038911948    3.0204552116    1.4992890705
 C    4.1917086963    2.1453211851    2.4121839078
 O    4.4479637254    1.2093102864    1.3323779440
 H   -0.7035599124    1.9640075295    0.0651310217
 H    0.9197642084    1.8642237435   -1.4741751826
 H    2.6597643847    0.0767161250   -0.3324872714
 H    4.5195340184    1.3479732591   -1.4253721375
 H    3.4756752789    2.8523518701   -1.5184789886
 H    3.7380946264    3.9853673072    1.2300097622
 H    2.2717339488    3.1424821599    1.8229776630
 H    5.1186551487    2.5992488978    2.7765167186
 H    3.6628750145    1.6633187918    3.2407810682