10

 N   -0.0498059246    1.3246889551    0.0082888271
 C    0.0883105330   -0.0184914291    0.0009154402
 O    1.1296728865   -0.6406752188   -0.0114818404
 C   -1.2839808879   -0.7305309746    0.0102462805
 O   -2.3201036254   -0.0990775082    0.0235586350
 C   -1.2327406049   -2.1707888503    0.0020758213
 C   -1.2313186992   -3.3741078024   -0.0044347809
 H    0.7662309715    1.9123210227    0.0039465739
 H   -0.9751143376    1.7222828448    0.0189567931
 H   -1.2194430014   -4.4373306892   -0.0106848498