16

 C   -0.0134579200    1.5336909078    0.1258424956
 C    0.1053364398    0.0174225107    0.0005597747
 C    0.7244433123   -0.4580371474   -1.2783619687
 N    1.1154265829    0.3738231310   -2.1823795539
 C    1.6742558494   -0.1723331126   -3.3270627657
 N    1.8609381806   -1.4082188416   -3.6195558240
 O    1.4424348940   -2.3249368193   -2.6494321955
 C    0.8709636223   -1.9173030686   -1.4665587134
 N    0.4930955475   -2.7522604229   -0.5907702577
 H    0.9664268215    2.0147190917    0.0709698013
 H   -0.6263208253    1.9517245413   -0.6767857721
 H   -0.4731251314    1.7936325675    1.0830726140
 H    0.6890502806   -0.4129977859    0.8247447738
 H   -0.8717653985   -0.4746965005    0.0920870571
 H    2.0039624113    0.5262893030   -4.0891783740
 H    0.6739195729   -3.7109143744   -0.8946806215