18

 O   -0.8477986078    0.9811389010    0.2997643303
 C    0.2589553609    0.6680329119   -0.0589110541
 C    1.4716865782    1.5748264462    0.0011239181
 C    1.5468293915    2.6172299602    1.1302075810
 C    1.5266674627    1.6791448469    2.3675575463
 C    2.8732739495    1.2244702819    1.8114613786
 C    3.1435707611    2.6477574410    1.2538837321
 C    3.7264883886    1.9569359873    0.0264700188
 N    2.7406710442    0.8348564626    0.2952536617
 H    0.4708538079   -0.3253209099   -0.5134236057
 H    1.5434820884    2.0147855348   -1.0036797600
 H    0.9390582016    3.5169164872    1.0697562879
 H    1.6866350930    2.2286868627    3.2994986495
 H    0.6989492266    0.9779023527    2.4864061621
 H    3.5979309555    0.6019720945    2.3326630410
 H    3.6029243214    3.4600080378    1.8178810161
 H    3.6546914289    2.4026488893   -0.9708873339
 H    4.7477724078    1.6048764619    0.1981184401