20

 C   -0.0504206860    1.5326902768   -0.0191195804
 C    0.0693320845    0.0310606002    0.0167881832
 C    0.9961030102   -0.7916426287   -0.9166570622
 C    0.7154893436   -1.9087597994    0.1301498809
 C   -0.7993360736   -2.0864538466   -0.0118525815
 C   -1.5011050274   -1.4369326111    1.1287957172
 C   -0.4801552628   -1.0554327529    2.1812843302
 C    0.6616755878   -0.7796362177    1.2185812607
 N   -1.2577320898   -0.6743707885   -0.1304865251
 H    0.9312465381    2.0087956084    0.0691701459
 H   -0.5106878655    1.8573808198   -0.9578550588
 H   -0.6809143687    1.8956666198    0.7998034761
 H    0.6665197817   -0.9509179765   -1.9468912029
 H    2.0303137467   -0.4372604467   -0.8959862692
 H    1.3367007063   -2.7981095049    0.2305508486
 H   -1.2488295272   -2.8275300202   -0.6632831477
 H   -2.5388351920   -1.6415923303    1.3681177182
 H   -0.7727782105   -0.1721195405    2.7598410366
 H   -0.2750595824   -1.8751103081    2.8784946491
 H    1.6198562070   -0.4429058728    1.6096854612