16

 O   -0.0516830309    1.3895395411    0.1005314918
 C    1.3914994100    1.5382280840    0.0402090996
 C    1.5602140704    0.0374312596    0.1796284901
 C    2.5345368376   -1.0645669451   -0.1899442325
 O    2.0863177239   -1.8521741348    0.9446480403
 C    1.3501645094   -0.7362303325    1.5078644057
 C   -0.1790390368   -0.8235262689    1.2784561576
 C    0.0281570149   -0.0513014274   -0.0479902947
 H    1.7097664708    1.9506110905   -0.9278337332
 H    1.7825048581    2.1713080542    0.8455143238
 H    2.3814799037   -1.5798297591   -1.1455957992
 H    3.5956687828   -0.7941377946   -0.0933626210
 H    1.7424384082   -0.4330802035    2.4834894929
 H   -0.5387587926   -1.8501631591    1.1752177221
 H   -0.7956940934   -0.2801778348    1.9985612491
 H   -0.4541655360   -0.3990690697   -0.9667101325