15

 C    0.0188837725    1.5057293530    0.0241778270
 C   -0.0174391356    0.0066298135   -0.0043335447
 C   -1.1864869344   -0.6885884231   -0.1272442177
 C   -1.1923431306   -2.1188572420   -0.1568110724
 O   -2.0934523855   -2.8993124783   -0.2627307325
 O    0.1275563579   -2.6880831385   -0.0388710425
 C    1.1993213814   -1.9008656254    0.0827726617
 N    2.3427517896   -2.6061617441    0.2166163374
 N    1.2070420061   -0.6002891345    0.1007206649
 H    0.6484629694    1.8775249863   -0.7911053096
 H   -0.9784752890    1.9396159336   -0.0656000312
 H    0.4781617789    1.8481064208    0.9575327770
 H   -2.1450350010   -0.1955945798   -0.2107294397
 H    2.3335912075   -3.5949343796    0.0373520901
 H    3.2096119829   -2.0992848618    0.1755808523