20

 C   -0.0311160719    1.4279532026    0.2142272664
 C   -0.0588730931   -0.0568587486    0.0008629875
 N   -0.0304764518   -0.5742643925   -1.1546965864
 C   -0.0087228658   -2.0263267260   -1.2822343456
 C    0.4398247179   -2.7450301105   -0.0053705026
 C   -0.2985655885   -2.1404968693    1.1797614548
 C    0.1731863268   -2.6278656049    2.5435567378
 O   -0.5365011007   -2.0138832644    3.5984935781
 O   -0.1127738424   -0.7088850792    1.2028216069
 H    0.8216348425    1.7042182346    0.8429431378
 H    0.0428312624    1.9327973206   -0.7478853061
 H   -0.9367571183    1.7557250667    0.7350053633
 H   -1.0114346976   -2.3653875333   -1.5769867704
 H    0.6527529132   -2.2813596791   -2.1175298902
 H    0.2403526230   -3.8200787146   -0.0644233410
 H    1.5193045871   -2.6153349170    0.1381150601
 H   -1.3780981951   -2.3268969925    1.0914282319
 H   -0.0018324200   -3.7057727585    2.6240373918
 H    1.2583953473   -2.4535867815    2.6266686823
 H   -0.4704109950   -1.0636274727    3.4497860636