17

 C    0.1165771432    1.3837579842    0.0486649546
 N   -0.0098557042   -0.0642175014    0.0172880917
 C   -1.1492642655   -0.6165187919    0.0280922453
 N   -1.2685713264   -2.0145277165   -0.0022102164
 C   -0.1400914638   -2.9167248437   -0.0472502025
 C   -2.5955730713   -2.3531355865    0.0174146247
 C   -3.4322336133   -1.2811024036    0.0599747130
 C   -2.6106970838   -0.0851391216    0.0710017125
 O   -2.9281511788    1.0891613579    0.1052332746
 H    0.7269126343    1.6525343535    0.9191616397
 H    0.6900533196    1.6937216598   -0.8331314686
 H   -0.8312781308    1.9222574050    0.0812489128
 H    0.5031839946   -2.7784056243    0.8272585923
 H   -0.5092817149   -3.9443636750   -0.0631803691
 H    0.4655080047   -2.7374555722   -0.9410314707
 H   -2.8609189898   -3.4031659294   -0.0017538461
 H   -4.5093416237   -1.3034982843    0.0819349921