20

 C   -0.0298716041    1.6300039116    0.0234267029
 C   -0.3547027142    0.1476434376   -0.1808700650
 C    0.6018705863   -0.5412159910   -1.1563905230
 N    2.0228977171   -0.5950402146   -0.7186589646
 C    2.1757500835   -1.9824810972   -1.2152048837
 C    0.6240458006   -2.1251142858   -1.2236112697
 N   -0.0208911171   -2.7651308638   -0.0984437794
 C    0.4535643147    0.0202126494   -2.5105536039
 N    0.3707979176    0.4648434341   -3.5758140811
 H    0.9883241584    1.7540903353    0.4059332147
 H   -0.1153268951    2.1928886864   -0.9116354850
 H   -0.7158833847    2.0775655258    0.7479941392
 H   -0.2959611040   -0.3862689307    0.7705252991
 H   -1.3787309725    0.0227028773   -0.5498747219
 H    2.6371836883    0.0978658184   -1.1325542070
 H    2.6128699764   -2.0652204576   -2.2188861098
 H    2.7199609903   -2.6436117386   -0.5317437923
 H    0.2000152568   -2.5306176406   -2.1423578123
 H   -0.0748008894   -3.7666239286   -0.2489101538
 H    0.5103136311   -2.6196976375    0.7546400567