19

 O   -0.1038802196    1.3745950008    0.0550471381
 C   -0.0288294495   -0.0130178483    0.0207166862
 C    0.2474621573   -0.8806168213    1.2953467962
 C   -0.4686777078   -1.9661690775    0.4185192112
 C   -1.3438139621   -0.8128051781   -0.1376541712
 C    0.5772932541   -2.1733120026   -0.7107076949
 C    0.8962257480   -0.6781852742   -1.0217909318
 C   -1.0438271910   -3.1769676670    1.0683649075
 O   -2.2216082422   -3.3853736014    1.2261908792
 H    0.7908846065    1.7317439696    0.0575033562
 H    1.2830370275   -1.0651257525    1.5964693801
 H   -0.3590180834   -0.5630897966    2.1452818642
 H   -2.1126940337   -0.4999339065    0.5695849369
 H   -1.7634766845   -0.9221617290   -1.1407784865
 H    1.4509527529   -2.7350986989   -0.3675180666
 H    0.1502749713   -2.6999367112   -1.5682734681
 H    0.6283453660   -0.3881024806   -2.0411652546
 H    1.9495148730   -0.4250655796   -0.8595165956
 H   -0.2816378729   -3.9082925450    1.4298949137