18

 C    0.0484207601    1.5388928628   -0.0501392799
 C   -0.0174218199    0.0419010368    0.0000989446
 C   -0.0967325958   -0.7801082479   -1.0652450457
 C   -0.0487884829   -2.2219972540   -0.6973646025
 C    1.2473212218   -2.6681738170   -0.0496140354
 C    0.0764140268   -2.2283803147    0.8105022460
 C    0.0311890190   -0.7922061814    1.2278715873
 N    0.0063708465   -0.5032173735    2.4753489206
 O   -0.0411884669    0.8803536530    2.7164841183
 H    0.9657347165    1.9138069867    0.4141015567
 H    0.0166578543    1.8861025658   -1.0871018316
 H   -0.7800795178    1.9922541158    0.5006033478
 H   -0.1389362362   -0.4389808751   -2.0942467571
 H   -0.6493209143   -2.9477335781   -1.2336315424
 H    1.4698817734   -3.7302762175   -0.0449221583
 H    2.1107895995   -2.0176543096   -0.1358973503
 H   -0.4064623051   -2.9669344970    1.4363594113
 H   -0.0625021592    0.9123426747    3.6783034608