13

 O    0.0012752765    1.3408174231   -0.3989034738
 C   -0.0178567764    0.0655782055    0.2032400533
 C   -1.3963346880   -0.5280175484    0.1866209030
 N   -1.9702215430   -1.0857609362    1.2228325773
 O   -3.2115597831   -1.4924365951    0.7396568917
 C   -3.2529840833   -1.1226882484   -0.5430812083
 C   -4.4581900900   -1.4009075217   -1.3656076356
 O   -5.4369682002   -1.9611279598   -0.9498744248
 N   -2.1701381976   -0.5265108241   -0.9508381742
 H   -0.3822259565    1.2510933559   -1.2791071259
 H    0.6709792758   -0.6350887216   -0.2949141717
 H    0.3146256800    0.1811741597    1.2370903686
 H   -4.3523749842   -1.0344949490   -2.4042295297