14

 O    0.0775383284    1.4478723931    0.0275710839
 C   -0.0065935333    0.0725476080   -0.0293442995
 C   -1.4139745661   -0.6807737578   -0.0929601671
 C   -2.4202389733    0.1165091814   -0.7616942530
 N   -3.1807077069    0.7638868255   -1.3449539039
 C   -0.7505632654   -1.7476017530   -1.0800118229
 O   -1.4525599894   -2.2954907905   -2.1329925821
 C    0.2959555656   -0.6523598495   -1.3531169258
 O    0.7929134653   -0.2673072014   -2.3719477428
 H   -0.1445910107    1.8106289093   -0.8392911467
 H    0.5609828982   -0.3423103994    0.8089395007
 H   -1.7801806239   -1.0773505476    0.8533226191
 H   -0.3468972070   -2.5636448437   -0.4732917360
 H   -1.5505444216   -1.6282508445   -2.8240578538