20

 C    0.2189846833    1.6264984730    0.0338448873
 C    0.0629054384    0.1176490070   -0.0197454443
 C    0.7959112971   -0.5872530651   -1.1895795400
 C    1.4073896441   -1.8607413925   -0.5510090137
 C    0.8201621790   -1.8190065931    0.8867627173
 O    0.6187456646   -0.4507004236    1.1656260227
 C    1.0054206890   -3.1407514141   -1.2747319002
 N    1.9977366419   -4.0654860036   -1.4222169244
 O   -0.1331489707   -3.3410406229   -1.6554859696
 H    1.2779334093    1.8991235381    0.0862021403
 H   -0.2157179771    2.0867522432   -0.8587855793
 H   -0.2863862105    2.0361661811    0.9128314999
 H   -1.0071104389   -0.1429017451   -0.0669799344
 H    0.1034720148   -0.8495758842   -1.9909592284
 H    1.5801129639    0.0545103213   -1.6007009785
 H    2.4963618856   -1.7729766999   -0.4947444616
 H   -0.1310647853   -2.3733353786    0.9066869312
 H    1.4899354321   -2.2300654455    1.6460918976
 H    2.9517657545   -3.8759082490   -1.1724456949
 H    1.7823600849   -4.9243649163   -1.9019295469