17

 C   -0.1207193286    1.5078351528   -0.0094554383
 N   -0.0039082318    0.0552280637    0.0516785023
 C    1.3154635273   -0.5139116676   -0.1774580976
 C    0.7110273471   -0.4992054646    1.1844996967
 C    1.2532914470    0.1456442223    2.4445276568
 C    0.2212222277    0.1661589582    3.4950430120
 N    0.9420894347   -1.1193986821    3.2548928928
 C    0.3262176901   -1.6870424373    2.0493610346
 O   -0.1697102388   -2.7551181269    1.8895582799
 H    0.7686848817    2.0396349788    0.3649175967
 H   -0.2860858281    1.8024190761   -1.0495662201
 H   -0.9867062354    1.8255696784    0.5785996207
 H    1.3454260067   -1.4410772967   -0.7425756107
 H    2.1513120472    0.1659161511   -0.3446836788
 H    2.2214511311    0.6175277432    2.5543861533
 H    0.4684367794    0.6033204175    4.4569451099
 H   -0.8287639773    0.2309122532    3.2204493298