21

 C    0.1171249526    1.5234879923    0.0889691434
 C    0.0537472717    0.0064390013    0.0128669802
 C    0.6724044351   -0.5626727397   -1.2715020345
 C    0.9628967137   -2.0572756132   -1.1745825682
 C    2.2216525816   -2.4935870905   -0.4510693067
 O    3.1235068440   -1.5604910353    0.0612557856
 C    0.8839000516   -2.7399656805    0.1909570777
 C    0.4710952016   -1.8909311039    1.3756967762
 O    0.7429760163   -0.5066741701    1.1626704722
 H    1.1573917500    1.8635901655    0.0702303865
 H   -0.4046767524    1.9699377957   -0.7629770593
 H   -0.3461380617    1.8841751048    1.0110170182
 H   -0.9964475923   -0.3222480730    0.0809494102
 H   -0.0060721728   -0.3663804011   -2.1074541791
 H    1.6052248033   -0.0233399791   -1.4833631689
 H    0.6673892512   -2.6497695966   -2.0345316608
 H    2.7587690896   -3.3466776639   -0.8530201093
 H    2.6160491666   -0.9206352491    0.5821791070
 H    0.5153677463   -3.7614585653    0.2254614012
 H   -0.6018590118   -2.0253256482    1.5861747036
 H    1.0286880958   -2.1675398998    2.2771613848