15

 O   -0.1668228830    1.4386824540    0.1226871656
 C   -0.0542575522    0.0318511518    0.0549653331
 C    0.8758072582   -0.5080736439    1.0368012160
 C    1.6756858390   -0.9394001317    1.8241650661
 C   -1.4158255264   -0.6813519987    0.0234017966
 C   -2.1986627690   -0.2054076443   -1.1444061345
 C   -1.1317905303   -1.2689241326   -1.3867299586
 C    0.2084136544   -0.6134440342   -1.3785678525
 O    1.1777694961   -0.6483673801   -2.0771370470
 H    0.7243011379    1.8040984711    0.0786881769
 H    2.3792131776   -1.3204852356    2.5230192087
 H   -1.8440883581   -1.2009120551    0.8688139296
 H   -3.2125882402   -0.5832694086   -1.2207184937
 H   -2.0604748911    0.8035137476   -1.5147287202
 H   -1.3777583230   -2.2363033297   -1.8045442661