19

 C   -0.1052897139    1.4645229053    0.0157184778
 C    0.0559009922   -0.0361737063    0.0123463360
 C    0.7621073438   -0.6748202710   -1.2056344827
 C    1.0129144017   -2.1350923844   -0.7214455100
 C    0.3879158235   -2.1324056094    0.7068327149
 C    0.7549493693   -0.7220775290    1.2009184331
 C   -1.1096999428   -1.9454446583    0.4876994084
 O   -2.0165641515   -2.7169041156    0.6009736432
 O   -1.2734599533   -0.6537961205    0.0652095456
 H    0.8761842540    1.9481648754    0.0300321948
 H   -0.6414442342    1.8005209078   -0.8766090191
 H   -0.6673073943    1.7907516979    0.8950758529
 H    0.1198535502   -0.6204946462   -2.0873272706
 H    1.6945589107   -0.1507271987   -1.4331328465
 H    0.5560513263   -2.8869899706   -1.3684558820
 H    2.0809435700   -2.3592090122   -0.6548757462
 H    0.6266694498   -2.9933625290    1.3266952506
 H    1.8314224952   -0.5323442618    1.2312087791
 H    0.3054421931   -0.4559192033    2.1611350809