16

 C    0.0504407186    1.5057997599    0.0310322049
 C   -0.0006169236    0.0110620462    0.0422788888
 C   -0.9399268044   -0.8141124294    0.8764262742
 C    0.5496358094   -1.0292643716    0.9943314085
 C    1.1369073775   -1.7365168618   -0.2381782898
 C    0.1652652610   -2.0728012275   -1.2974651440
 N    0.6253865346   -0.6738269261   -1.1745177523
 H    1.0525463477    1.8574809054   -0.2337864571
 H   -0.6507078160    1.9114124238   -0.7082639188
 H   -0.2155844600    1.9137414578    1.0110076289
 H   -1.3587559213   -0.2547139060    1.7081185510
 H   -1.6204021097   -1.5642929287    0.4884371848
 H    1.0921916213   -0.9012790384    1.9219700362
 H    2.1758145210   -2.0484873321   -0.2824548913
 H    0.5629720986   -2.5437170389   -2.1925477484
 H   -0.8595450646   -2.3491067125   -1.0791168857