11

 C    0.0729525429    1.3884091921    0.0644204587
 O    0.2104911438   -0.0374002825    0.0461273579
 C    0.5010280504   -0.5722428814   -1.1597534587
 C    0.6221871489   -2.0737832290   -1.0603068403
 O    0.6392215379    0.0822441797   -2.1615732482
 H    1.0002972028    1.8706257010   -0.2553206390
 H   -0.7333895655    1.7078208948   -0.6008045417
 H   -0.1575128017    1.6515405981    1.0969295399
 H   -0.3133000098   -2.5020285112   -0.6894190647
 H    0.8564658848   -2.4843027463   -2.0415735164
 H    1.4065168456   -2.3405549554   -0.3463430074