19

 O    0.0962761339    0.0218783209    0.0484142195
 C    0.0271244732    1.2164315215    0.0240901318
 C   -1.1456674872    2.2209205310    0.0754517035
 C   -0.1042849351    3.3447228872    0.2019400604
 C   -0.0929846741    4.7926922155   -0.2883520169
 C    0.8436250674    5.1535214054    0.9093682037
 C    0.5935597732    3.7492607278    1.5468077899
 C    1.7159278837    2.7021661783    1.3342850924
 C    1.0824222157    2.3367600761   -0.0455928819
 H   -1.6684160919    2.2355939881   -0.8902248514
 H   -1.8894459653    2.0895033555    0.8669284538
 H    0.2804141333    4.9779564029   -1.3001149068
 H   -1.0749139979    5.2676772863   -0.1943067237
 H    1.8865398705    5.3195382423    0.6252562864
 H    0.5165558798    6.0016767077    1.5140631627
 H    0.0661691909    3.7544772143    2.5029257843
 H    2.7260784596    3.1169096731    1.2742418352
 H    1.7299720119    1.8747227638    2.0488948129
 H    1.7191939785    2.3367170123   -0.9333451257