17

 O   -0.0954425234   -0.0124631924    0.1275986577
 C   -0.0701192085    1.1767006878    0.0646971837
 C   -1.0084794853    2.3918878386    0.0273803225
 C   -0.0085622426    3.0072453308    1.0655418340
 C    0.9410430155    2.3399900544    0.0060439344
 C    2.4543391445    2.3140244927   -0.0023973586
 C    2.9981706295    1.7311809357   -1.2245434375
 C    3.4241446574    1.2579760398   -2.2432868122
 C   -0.0331256058    2.9326995820   -1.0725892589
 H   -2.0940453301    2.4389930759    0.0407591403
 H    0.0206117951    4.0999614105    1.0652219534
 H   -0.0090921345    2.5987628490    2.0781284860
 H    2.8395023294    3.3347866656    0.1212048129
 H    2.8056776654    1.7453457157    0.8684506307
 H    3.8091333826    0.8296335020   -3.1353119039
 H   -0.0489413296    2.4522605777   -2.0516596270
 H   -0.0052661696    4.0226137643   -1.1501412474