15

 C   -0.2803445334    0.5793921355   -0.6666572156
 O    0.1263474404    0.8068142179    0.6828001472
 C    0.6613684574   -0.2287837767    1.3382787529
 C    0.9415357582   -1.5150814333    1.0538771861
 N    0.7730733632   -2.2925882724   -0.0833652724
 O    1.5182007045   -2.0896233266    2.2172762806
 C    1.5848713624   -1.1442094155    3.2045477920
 O    2.0234862077   -1.3210711864    4.3092533919
 N    1.0525036512    0.0041833106    2.6526749496
 H   -1.0466822615   -0.1992538571   -0.7177314379
 H   -0.6833054692    1.5306321590   -1.0157056542
 H    0.5695098602    0.2771498399   -1.2851576488
 H    0.1608300214   -3.0876458872    0.0760202984
 H    1.6534608058   -2.6466153720   -0.4466084681
 H    0.9675961517    0.8760234343    3.1450910285