23

 C   -0.0206159021    1.5909308949    0.0155532939
 C    1.5220263245    1.7065388747   -0.0007189740
 C    1.7892898517    1.0486243341    1.3663609544
 C    1.1066164375   -0.3201313664    1.0910254478
 C    2.2235367011   -1.2108575675    0.5024531814
 C    2.9619290503   -0.3752911771   -0.5858671682
 C    1.9591226148    0.6676837687   -1.1279983926
 C    0.6522254871   -0.1316277004   -1.3896591303
 C    0.0055349868    0.0442029443   -0.0025529137
 H   -0.4605918337    2.0356479970    0.9122370753
 H   -0.5249642681    2.0076643781   -0.8604374538
 H    1.9409378682    2.7061340995   -0.1311731120
 H    2.8437808864    0.9387032247    1.6316679638
 H    1.3101225943    1.6189553976    2.1676731487
 H    0.6586435068   -0.7738820058    1.9778270936
 H    2.9156164991   -1.5124021224    1.2959364534
 H    1.8131468215   -2.1343132239    0.0815912325
 H    3.8538520530    0.1088904743   -0.1755541457
 H    3.3063491582   -1.0192828111   -1.4020587283
 H    2.3487406014    1.1746695085   -2.0135207063
 H    0.0215297234    0.3105070909   -2.1666529841
 H    0.8515935342   -1.1655293881   -1.6824412719
 H   -0.9482295563   -0.4674762349    0.1396200160