19

 C   -0.0033711340    1.5783888552    0.0367582082
 C    0.0410604056    0.0379286559    0.0647034355
 C    0.9098028404   -0.4733392923    1.2307426231
 O   -1.2847115765   -0.5213810585    0.1173073059
 C   -2.0837062279   -0.2268004769    1.2365493042
 C   -3.4152357769   -0.9350292109    1.0349406733
 O   -4.3198255812   -0.8816123769    1.8243196637
 C    0.5972845274   -0.4525446166   -1.2035158650
 C    1.0869198420   -0.8330110864   -2.2318217126
 H    0.9970942062    1.9756683138   -0.1506056729
 H   -0.6677576950    1.9200705450   -0.7603377715
 H   -0.3522283635    1.9812611574    0.9919335896
 H    0.5624980627   -0.0731659964    2.1876122040
 H    0.8830809181   -1.5648664394    1.2679175078
 H    1.9456697562   -0.1557654145    1.0893623691
 H   -1.6498092168   -0.5819550456    2.1834684438
 H   -2.2853586018    0.8488079276    1.3530240162
 H   -3.4749226236   -1.5094974372    0.0850958390
 H    1.5096590685   -1.1756841633   -3.1440197914