18

 C    0.0842087254    1.4867118314    0.4074101241
 N   -0.2092501202    0.0701171500    0.5692080475
 C    0.6656241134   -0.6898072481    1.0302227826
 C    0.7541163754   -2.1675378059    1.3332365682
 C    2.1994061741   -1.8233639718    1.7721221625
 O    1.9726896589   -0.4214924963    1.4384846963
 C    2.5348832662   -2.0277522431    3.2248162930
 C    2.9422863197   -0.9172349780    4.0930783030
 O    1.6225432584   -1.4685020658    4.1641929817
 H    1.1103981275    1.7665615878    0.6730115928
 H   -0.1003389666    1.7727659797   -0.6337306603
 H   -0.6086860192    2.0680572722    1.0256715330
 H    0.0985959715   -2.5022346478    2.1383866587
 H    0.6550391317   -2.8242407389    0.4680731128
 H    2.9891904434   -2.2403432827    1.1383261139
 H    2.8774084227   -3.0363749550    3.4648851171
 H    3.5779503749   -1.1142568706    4.9545694553
 H    2.9984495727    0.0819937531    3.6698395476