23

 C   -0.2546799348    1.4593477526   -0.0482544093
 C    0.0147647914   -0.0423354437   -0.0840511902
 C    1.2862069305   -0.4479804554   -0.8876865243
 C    2.0595090654   -0.6081990765    0.4545159397
 C    0.6928385370   -0.6041540587    1.2010800384
 C    2.9596436644   -1.8026374112    0.6209046547
 O    2.2510753672   -2.9844477672    0.3326835277
 C    4.4157210326   -1.7029302291    0.2474639671
 C    4.0016986482   -1.8114255098    1.7089260193
 H    0.6401627948    2.0197181816    0.2481954782
 H   -0.5647500915    1.8300199508   -1.0317618760
 H   -1.0479591318    1.7027418910    0.6674922075
 H   -0.8972786367   -0.5678446648   -0.3824385949
 H    1.1701395243   -1.4099290260   -1.3910776116
 H    1.6742810743    0.2837401763   -1.6023710483
 H    2.6377017038    0.2910284488    0.6860224085
 H    0.6208524557    0.0066056085    2.1058255900
 H    0.3682054698   -1.6208650619    1.4315581432
 H    2.8417974854   -3.7360225321    0.4352359783
 H    4.8808270246   -2.5724475473   -0.2077674754
 H    4.8025729225   -0.7562273439   -0.1151124329
 H    4.1057523771   -0.9389593911    2.3455958411
 H    4.1937330657   -2.7525737709    2.2157768294