17

 O    0.0267409075    1.4002316258    0.2350643179
 C    0.1542173559   -0.0113435612    0.1122311519
 C    0.8115540227   -0.3687524101   -1.1596038070
 N    1.2894989061   -0.6290591050   -2.1788165731
 C    0.9818762497   -0.4598688977    1.3266994313
 O    2.2080650304    0.2047842103    1.3586941329
 C    0.1132369972   -0.4976664837    2.6206404436
 N   -0.1275836370   -1.9362207861    2.3514592036
 C    1.0698268013   -1.9927440659    1.4763818728
 H   -0.3771927391    1.7537900502   -0.5643349623
 H   -0.8218297973   -0.5135402994    0.1475896200
 H    2.0367301810    1.1294825757    1.1366866314
 H    0.7501662722   -0.2879110479    3.4897093126
 H   -0.7863031785    0.1241590694    2.6645607260
 H   -0.0977035848   -2.5408841263    3.1643849833
 H    0.9616238171   -2.6087646681    0.5775670185
 H    2.0073783657   -2.2536102198    1.9841408566