18

 N    0.3278089336    0.9089448503    0.1869653261
 C   -0.0233648839   -0.3527636559   -0.1282848004
 O    0.7850311085   -1.2019625159   -0.4894740700
 C   -1.5151978092   -0.6728406457   -0.0082888076
 O   -2.1774309597    0.4985654154    0.4247960083
 C   -2.0542786635   -1.3954668589   -1.2849497291
 C   -1.8766489805   -2.7689154710   -0.5627478928
 O   -0.7441831350   -3.4971566818   -0.9346752761
 C   -1.7586711659   -1.9950257636    0.7888184868
 H    1.2969958564    1.1727210868    0.1262658769
 H   -0.3730881515    1.5684282816    0.4788884220
 H   -3.1165388081    0.3080350865    0.5045412186
 H   -3.1054427467   -1.1355992236   -1.4481444746
 H   -1.4988884302   -1.2634675508   -2.2152849089
 H   -2.7272522594   -3.4501842713   -0.6384660740
 H    0.0107047907   -2.8842769164   -0.8654658057
 H   -0.9735782681   -2.3288865775    1.4696812560
 H   -2.7095673776   -1.9384857583    1.3289290145