23

 C   -0.3335709352    1.3769534767   -0.1255314304
 C   -0.1674864960   -0.0984865489    0.2476593640
 C    1.2889528597   -0.5748694827    0.1702706472
 C    1.4258809362   -2.0438890972    0.5320886157
 O    2.7715231685   -2.5953141663    0.3926572651
 C    2.6382856437   -3.2650059846    1.6518511136
 C    2.5915675485   -2.2910799555    2.7837297367
 C    3.4111013685   -1.0195378311    2.8363245598
 C    1.3312631441   -2.5647609347    1.9682467523
 H    0.0105516817    1.5677989555   -1.1480585697
 H   -1.3807504338    1.6887819924   -0.0623299205
 H    0.2472888419    2.0218604177    0.5430464532
 H   -0.5489670036   -0.2631775527    1.2638663397
 H   -0.7887214187   -0.7161190678   -0.4145301165
 H    1.6690479837   -0.4400280881   -0.8514173339
 H    1.9142551469    0.0406560603    0.8228445650
 H    0.7533795321   -2.6346020771   -0.1080589831
 H    2.9473895761   -4.3033519429    1.7015748103
 H    2.5096076543   -2.8051724485    3.7410513136
 H    3.7339586738   -0.7252858243    1.8360964009
 H    2.8542019912   -0.1898033201    3.2844713268
 H    4.3102779924   -1.1800770193    3.4410582438
 H    0.4304290741   -2.9542543109    2.4240885862