18

 C   -0.0385885397    1.4230290269   -0.1593688173
 C    0.1175423994   -0.0618873334    0.0533365521
 N    1.2138981975   -0.5596546037    0.4495244650
 N   -1.0710920834   -0.7727542066   -0.2342611501
 C   -1.2632491613   -2.1338843426   -0.1409302339
 O   -0.4104082988   -2.9353298312    0.1813497704
 N   -2.5770357951   -2.4889384179   -0.5257228478
 C   -3.6589338106   -2.4185906755    0.4687389039
 C   -3.1209055630   -3.7272962332    0.0004222137
 H    0.9042845398    1.9126487733    0.0793686107
 H   -0.3052988381    1.6456856679   -1.1993044077
 H   -0.8294366210    1.8330241845    0.4796497919
 H    1.1386740996   -1.5747347865    0.5292263767
 H   -1.8531577866   -0.2473026171   -0.5933655503
 H   -3.3945055893   -2.0999420174    1.4738941477
 H   -4.6091121098   -2.0443035614    0.0994050438
 H   -3.6855779448   -4.3205385301   -0.7118286018
 H   -2.4821377049   -4.2857198257    0.6776365131