20

 C   -0.1234555404    1.6987835162   -0.3630243528
 C   -0.0456282295    0.2046612304   -0.0756606783
 C    0.9708843056   -0.5873300489   -0.9460144081
 C    1.7535994157   -0.7632783501    0.3664089425
 O    0.7534652538   -0.0468959468    1.1198579393
 C   -1.4242203781   -0.4098735381    0.0467654151
 C   -1.6427759062   -1.6883960081    0.8109356046
 C   -2.1488814831   -0.3795635126    1.3676479552
 H    0.8779282526    2.1331109880   -0.4351693065
 H   -0.6494933095    1.8831677209   -1.3065115157
 H   -0.6659972752    2.2105661136    0.4374922281
 H    0.5750796857   -1.5081141157   -1.3767355117
 H    1.4713437810   -0.0060234338   -1.7225743659
 H    1.8707071071   -1.7947982981    0.7197103948
 H    2.7291481350   -0.2635617775    0.4110164125
 H   -2.0336118141   -0.2685926232   -0.8429773192
 H   -2.3613017797   -2.4020507686    0.4231863745
 H   -0.7859242586   -2.1274622310    1.3090293780
 H   -1.6091159293    0.0271534727    2.2153387695
 H   -3.2160937127   -0.1880376795    1.3694638840