16

 O   -0.0185766089   -0.0760137091   -0.1817011755
 C   -0.0277825171    1.1131358933    0.0212197542
 C   -1.3024452584    1.9267882667    0.1544414925
 C   -1.2919516952    2.7991119151    1.4226674323
 C    0.0164562178    3.5524119645    1.5667140328
 C    1.1538063142    3.1558618422    0.9767107727
 C    1.2667969726    1.9160761427    0.1393295590
 C    0.0031084726    4.7247332846    2.3849850410
 N   -0.0460127946    5.6690934548    3.0539656457
 H   -1.3656320661    2.5847266486   -0.7233402885
 H   -2.1592682849    1.2506309223    0.1351870578
 H   -2.1259567872    3.5067445259    1.3965779730
 H   -1.4513088483    2.1774007843    2.3131796562
 H    2.0585694871    3.7396677340    1.1183105950
 H    2.0500567402    1.2518195071    0.5228764005
 H    1.5895769162    2.1837027731   -0.8788653286