22

 C    0.0723453640    1.4788364455    0.3691958012
 C   -0.0298448677    0.0545203971   -0.1929223642
 C   -1.4194338895   -0.5623441515   -0.0897858529
 C   -2.5099010552    0.1823434281   -0.8412023634
 C   -1.5752929823   -2.0581910218    0.0137087279
 C   -0.4312279632   -3.0478329620   -0.0142850687
 C   -1.8573922160   -1.1885482651    1.2431573513
 C   -0.9626549085   -1.2201257479    2.3631441374
 N   -0.2376023106   -1.2430812989    3.2659125203
 H    1.1002535744    1.8446980439    0.2905527487
 H   -0.5686424106    2.1816965127   -0.1713111383
 H   -0.2092596949    1.5044040272    1.4262635933
 H    0.2634155575    0.0542650020   -1.2511571745
 H    0.6974380325   -0.5753922598    0.3254151021
 H   -2.2615468074    0.2508181711   -1.9066809486
 H   -3.4732388733   -0.3298196618   -0.7565863552
 H   -2.6417417974    1.2004047466   -0.4626152344
 H   -2.4855919273   -2.4426233391   -0.4407713253
 H    0.4229218702   -2.7212041903    0.5822162236
 H   -0.7570458855   -4.0124484348    0.3878459639
 H   -0.0874235463   -3.2125690499   -1.0409149291
 H   -2.8967494731   -1.0563292114    1.5264930551