20

 C   -0.0479510810    1.4954765445   -0.2151348957
 C    0.0672832548    0.0090414957    0.0457902114
 C    1.4139331787   -0.6928474904    0.0053955663
 O    2.5820835777    0.0578145420   -0.1440673718
 C    0.6893868864   -0.5533738737    1.3196919773
 C    1.2410528889    0.3719130023    2.3866826733
 C    0.0235071960   -1.8167684599    1.8672684000
 C    0.9430390611   -2.6721503579    2.6218656662
 N    1.6765657748   -3.3391914835    3.2155209056
 H    0.8824110501    2.0181729057    0.0152282279
 H   -0.2804552431    1.6807076195   -1.2697427132
 H   -0.8481268089    1.9470627270    0.3804986048
 H   -0.7639377770   -0.5718132165   -0.3492370436
 H    1.4583516381   -1.6876200012   -0.4397591151
 H    2.6605935160    0.3101606680   -1.0701583475
 H    1.8453384068    1.1669723378    1.9512790737
 H    0.4307212431    0.8254030413    2.9688826062
 H    1.8817864451   -0.1847833550    3.0782868956
 H   -0.8127718433   -1.5463581422    2.5244608625
 H   -0.4013156140   -2.4121727535    1.0516376961