18

 O    0.1382834837    0.0123406015   -0.0194758853
 C    0.0123926095    1.2211934661    0.0833997596
 N   -1.2066589683    1.8320953473    0.0562337816
 C   -1.5080655552    3.2380336527    0.3110561821
 C   -1.0338808171    4.2069556924   -0.7959474998
 C    0.2529566281    3.8035453424   -1.5431837172
 C    1.3930810028    3.2940740583   -0.6744782921
 O    1.2590609831    3.3794586606    0.7444541619
 C    1.2573265999    2.0749753697    0.1489191908
 H   -1.9710488833    1.1780343353   -0.0182087005
 H   -2.5941832907    3.3110171204    0.4129343170
 H   -1.0733067960    3.5365434942    1.2654409767
 H   -1.8211937505    4.3266970560   -1.5482821293
 H   -0.8941013574    5.1891552868   -0.3322726694
 H    0.0221887337    3.0271641001   -2.2827062721
 H    0.6025474076    4.6692610036   -2.1153645123
 H    2.3969132930    3.5225205775   -1.0330539446
 H    2.1364895369    1.4712929550    0.3593486930