22

 C   -0.0341351150    1.5716455301   -0.0160510905
 C   -0.0086041493    0.0410865017   -0.0076550472
 C    0.7231707235   -0.5276109782    1.2123729597
 C    0.7747671330   -2.0711959616    1.2496919250
 C    1.6165156728   -2.5854076977    2.4266146391
 O    1.7427800722   -3.9781283667    2.3045106399
 C    2.4204222379   -4.5711741651    3.3890677728
 C   -0.5756958018   -2.6426215350    1.3043199614
 N   -1.6535134552   -3.0570605774    1.3526069339
 H    0.9794538356    1.9879215609   -0.0254722876
 H   -0.5583853250    1.9523077519   -0.8974911379
 H   -0.5453047097    1.9637873126    0.8699457318
 H   -1.0337303707   -0.3461370401   -0.0279030813
 H    0.4768276680   -0.3248138670   -0.9218856318
 H    1.7569032265   -0.1606185310    1.2259043262
 H    0.2482372726   -0.1642262533    2.1321084104
 H    1.2466057815   -2.4381400798    0.3293711183
 H    2.6038366873   -2.0943362741    2.3987829164
 H    1.1365957845   -2.3120025462    3.3806740102
 H    3.4499114528   -4.1914131602    3.4834188296
 H    1.8972673908   -4.3926940771    4.3408759276
 H    2.4554067676   -5.6460779866    3.1998634138