11

 O   -0.0199799979   -0.0653696239    0.0039371893
 C    0.0164693082    1.1317944319    0.0089916348
 O   -1.1954296901    1.8272318824    0.0291658782
 N   -1.3026960493    3.2019985698    0.0371149558
 C   -0.2124985140    3.8847935689    0.0251275324
 C    1.1129149037    3.3030078167    0.0039325425
 C    1.2193855435    1.9554232466   -0.0038831519
 C    2.2529735910    4.1652452330   -0.0078904498
 N    3.1611600575    4.8816633555   -0.0171670257
 H   -0.3462336142    4.9608560615    0.0320428024
 H    2.1684406115    1.4351647574   -0.0195400280