17

 O    0.0515029303   -0.0093138579    0.1028358576
 C   -0.0287670262    1.1812324882    0.0990409650
 C   -1.1106220787    2.2444451298   -0.0070460375
 C   -0.7506528446    3.0153793181    1.3324550177
 C    0.8466248380    3.0674171149    1.3165820329
 C    0.9700952195    2.3945790985   -0.0340378275
 O    1.9488183228    2.2847108921   -1.0545762853
 C    0.8513952316    2.4150964486   -2.0321938018
 C   -0.1122468017    2.9909533786   -0.9444343352
 H   -2.1649535161    2.0514892670   -0.1947095767
 H   -1.1756743412    4.0215683346    1.3206122764
 H   -1.1395177606    2.4866926649    2.2049293719
 H    1.2219940067    4.0933909449    1.3263411281
 H    1.2920227892    2.5174549480    2.1492284064
 H    1.1229335899    3.1145727477   -2.8246993497
 H    0.5862639463    1.4413657323   -2.4555295958
 H   -0.2132592850    4.0762488296   -0.9799485364