19

 C    0.0611798519    1.7183883402   -0.3061265165
 O    0.6448941336    0.4798283651    0.0491831560
 C    0.9343425215   -0.3591009998   -1.0386943490
 C    1.8090871306   -1.4714787175   -0.4733372992
 C    1.2237218546   -2.5694064494    0.3003842357
 O    1.6863616257   -2.7736372321   -1.0440478993
 C   -0.3329573060   -0.9363310361   -1.7191887919
 C   -0.1758942443   -1.3971676108   -3.1512518856
 O   -1.3785705954   -0.9908640463   -1.1167320831
 H    0.7011667182    2.2768630827   -1.0071936888
 H   -0.9318528419    1.5881782093   -0.7528497217
 H   -0.0382107073    2.2958733381    0.6154361770
 H    1.5077202132    0.1908676698   -1.8067935509
 H    2.8311336332   -1.1677717759   -0.2499753563
 H    1.8199893573   -3.0537696693    1.0705369557
 H    0.1455832320   -2.6098016293    0.4326933728
 H    0.1051359367   -0.5521688879   -3.7908898439
 H    0.6261305516   -2.1386307795   -3.2114701448
 H   -1.1134601554   -1.8272487314   -3.5056532263