20

 C    0.3383457844    1.5507741818    0.2807641138
 C    1.1499873933    0.4891364835   -0.4128405547
 C   -0.2658994179    0.1903343174    0.0231430714
 C   -0.6083969207   -0.7102834539    1.1896578757
 C   -1.0256576900   -2.2029290391    0.9736613557
 C    0.4679933860   -2.5354841005    0.6950399080
 C    0.4685529374   -1.5778166048    1.9254490936
 C   -0.7140836751   -2.4230357619    2.4808327099
 H    0.6021222532    1.7934361504    1.3056965460
 H   -0.0181389502    2.3962069697   -0.2974000759
 H    1.3503866326    0.5989006575   -1.4733621189
 H    1.9615434052    0.0341592924    0.1444343178
 H   -1.0008923480    0.1639045873   -0.7787246770
 H   -1.2813002149   -0.1822248585    1.8773333102
 H   -1.8965976766   -2.5624450420    0.4217799266
 H    0.7777472666   -3.5666377867    0.8882100078
 H    0.8963915585   -2.1599589913   -0.2338734292
 H    1.3351754152   -1.2201441865    2.4852743174
 H   -1.3764018313   -1.9320852721    3.1997349247
 H   -0.4780445377   -3.4463366927    2.7848244270