19

 C   -0.4404006516    1.4472462878   -0.6811282288
 O   -0.3494750334    0.0513025213   -0.8497758473
 C    0.8133599458   -0.4955331317   -0.2673982183
 C    0.8011187718   -1.9936446886   -0.5105334991
 C    0.9166190390   -2.4576305128   -1.9669353873
 O    1.4679135532   -3.7762450870   -1.9000329727
 C    2.4244458471   -3.7919451139   -0.8616180676
 C    1.9871986195   -2.7155734570    0.1357929072
 O    2.4973669276   -2.4681511611    1.1964769338
 H   -0.4658307466    1.7278981725    0.3832762844
 H    0.4053993619    1.9711694744   -1.1536310868
 H   -1.3684281012    1.7736940208   -1.1561355082
 H    1.7179080382   -0.0445435103   -0.7123276823
 H    0.8518320713   -0.2964796486    0.8147210876
 H   -0.1122826349   -2.4163680156   -0.0702351641
 H   -0.0371917437   -2.5232343537   -2.4907053530
 H    1.5819316563   -1.7848603069   -2.5334589188
 H    2.4589397183   -4.7845372458   -0.4028150993
 H    3.4383797112   -3.5449477840   -1.2210028996