21

 C   -0.0255545602    1.5521073654    0.0392109705
 C   -0.0250938231    0.0134827813   -0.0365955482
 C   -1.4617724184   -0.5371992145    0.0405331136
 C    0.6976257712   -0.4843855209   -1.2615154293
 C    1.7985066095   -1.2451051229   -1.2658660761
 C    2.2922929597   -1.5850330597   -2.6436468509
 C    1.2771325095   -0.8835019313   -3.5601275711
 O    1.2860260916   -0.8894534845   -4.7623660381
 C    0.2454413119   -0.1702691943   -2.6712110537
 H    0.9928723492    1.9509993180    0.0091369869
 H   -0.5855921517    1.9923116923   -0.7929684156
 H   -0.4965296290    1.8902236784    0.9678767202
 H    0.5253603906   -0.3644252403    0.8348507972
 H   -2.0733122731   -0.1743175879   -0.7926866294
 H   -1.4691251370   -1.6309906872    0.0132285324
 H   -1.9463312668   -0.2162419229    0.9683011436
 H    2.2977928731   -1.5908816450   -0.3666734001
 H    3.3048849540   -1.2185677867   -2.8589135011
 H    2.3087643243   -2.6615370728   -2.8600201458
 H   -0.7614166306   -0.5383168329   -2.9064390783
 H    0.2359619351    0.9020687485   -2.9048748267