16

 C    0.2491380454    1.5172717617   -0.0823152965
 C   -0.0261223531    0.0159665578    0.1091941414
 C    0.6021599973   -0.5498492107    1.3340063366
 N    0.0485751839   -1.0738717709    2.3743501986
 C    1.1049648499   -1.4462601998    3.2060389812
 C    2.2726998184   -1.1038204138    2.6033377579
 N    3.6135842888   -1.1266077716    2.9546560026
 O    1.9785035374   -0.5279176928    1.4053532968
 H    1.3229488338    1.7115720644   -0.1534527386
 H   -0.2245787357    1.8799990924   -0.9992202388
 H   -0.1443219818    2.0958984600    0.7585639554
 H   -1.0993460309   -0.1718723290    0.1937312959
 H    0.3312546549   -0.5340715026   -0.7709902813
 H    0.9460403713   -1.9238074930    4.1588544565
 H    3.7937054490   -1.7383889470    3.7390456184
 H    4.2208659614   -1.3601281952    2.1782458440