19

 O    0.0204216262    0.0905518286   -0.5197753395
 C   -0.0330788046    1.2096328801   -0.1074270374
 C   -1.1442839828    2.1378482900    0.4082219134
 N   -0.0795190311    3.0552182433    0.8976688958
 C    1.0026682225    2.3093253230    0.1880770609
 C    2.2185113380    1.9307562239    1.0207161641
 N    3.0874960651    3.0845900039    1.2189962007
 C    2.7921920830    3.9148606857    2.3876535080
 C    3.9803424499    3.0199819206    2.3726180546
 H   -1.7718269042    2.5224693386   -0.4079480312
 H   -1.7960437136    1.7311409916    1.1891317405
 H   -0.1875781980    4.0120588182    0.5840410026
 H    1.3408098847    2.7893406738   -0.7421830978
 H    1.8769078694    1.4892381093    1.9732805828
 H    2.7817844727    1.1614180857    0.4788419714
 H    2.9105643874    4.9852337620    2.2444187200
 H    1.9492506451    3.6264976364    3.0106798957
 H    3.9411687885    2.1287345482    2.9968569566
 H    4.9767919819    3.4241623170    2.2194625988