18

 C   -0.0124945540    1.5179036501    0.0584807885
 C    1.3128030828    0.7939711566   -0.0017408616
 C    0.0203781496    0.0078042040    0.0070705900
 C    0.0847270129   -0.6541570176   -1.3645741749
 C    0.6792363770    0.3531200683   -2.4038326479
 C    1.3850264872   -0.8152961897   -3.1285759358
 C    1.5717642271   -1.1054321344   -1.6253876539
 C    1.8573645962    0.4241154496   -1.3766626329
 H   -0.2775666582    1.9643511201    1.0120180850
 H   -0.3615719761    2.0821561452   -0.7994671094
 H    1.9813486085    0.8240164486    0.8509337945
 H   -0.3052002383   -0.5668563609    0.8665320339
 H   -0.7304481265   -1.3096586871   -1.6773775521
 H    0.1633127635    1.1960851859   -2.8669593976
 H    0.7440828428   -1.5016554709   -3.6894751847
 H    2.2836082747   -0.5651829179   -3.6999775164
 H    2.0877888509   -1.9485464553   -1.1602751770
 H    2.8111278398    0.8446342653   -1.7015301378