17

 C    0.0754503842    1.5268682494   -0.2077785622
 C   -0.0859062906    0.0263006511    0.0724154911
 C    0.6965183746   -0.4192131824    1.2740720022
 C    2.0670143291   -0.9447779351    1.2266502574
 N    0.9655908678   -1.9142129877    1.5479004700
 C    0.6375372352   -1.6572255252    2.9402265265
 O    0.5781826744   -2.4258713012    3.8469501089
 C    0.2863907420   -0.1742850252    2.7315295735
 H    1.1224278153    1.7836752803   -0.3984182737
 H   -0.5095589439    1.8230681709   -1.0829588808
 H   -0.2660273564    2.1289661650    0.6409021800
 H   -1.1457680117   -0.2115979675    0.2264183099
 H    0.2409082638   -0.5569098851   -0.7956466984
 H    2.5088933574   -1.1479982164    0.2562689139
 H    2.7852174179   -0.7025740866    2.0066700800
 H    0.8471066403    0.5658942060    3.3078934192
 H   -0.7846940894   -0.0013647002    2.8693859525