18

 O    0.2568600717    1.3532860223    0.1043290753
 C    0.0326750393   -0.0306168590   -0.1213460676
 C   -1.4171228395   -0.3919490525    0.0322138837
 C   -2.0318626566   -0.8881905551    1.2769503265
 N   -1.8947788831   -1.8422638642    0.1535918515
 C   -2.9508610077   -1.5413585380   -0.8999550047
 C   -4.3091265033   -0.9610239113   -0.4831969658
 O   -3.7720349163    0.3908169934   -0.5058210949
 C   -2.5044246678   -0.0838346287   -1.0173367255
 H   -0.0784091932    1.5632965861    0.9825551003
 H    0.3694784115   -0.2190393994   -1.1468113463
 H    0.6361218424   -0.6689766760    0.5426208394
 H   -1.3647242486   -1.1420178123    2.0960595856
 H   -3.0038012767   -0.5175887858    1.5827211448
 H   -2.9104555967   -2.2788194466   -1.6988078777
 H   -5.0906531773   -1.0878951104   -1.2426691495
 H   -4.7106628855   -1.2439386144    0.4965024271
 H   -2.1850201725    0.4261610918   -1.9278055422