20

 C   -0.0123719140    1.5513003247   -0.0785387575
 C    0.0430270873    0.0396208514    0.0512418396
 O    0.6218948650   -0.4741161548   -1.1673371624
 C    1.0211432566   -1.7674129951   -1.1455403059
 N    1.1148662677   -2.5597267897   -0.1653601165
 C    0.7815708619   -2.0419580771    1.1583024271
 C    0.8144845016   -0.5047347724    1.2703380979
 C    2.2509695523    0.0202504100    1.3538268583
 O    0.0523574963   -0.0746217532    2.3986971950
 H    0.9807154307    1.9691595153   -0.2621444569
 H   -0.6568185610    1.8315183843   -0.9158791338
 H   -0.4170918203    1.9819381769    0.8395980125
 H   -0.9790903486   -0.3544409870    0.1262203334
 H    1.2925574559   -2.0886311431   -2.1497042233
 H   -0.2210237376   -2.3867423636    1.4402588508
 H    1.4777182979   -2.4872199829    1.8809249957
 H    2.8289150930   -0.2440570786    0.4641821619
 H    2.2655843348    1.1061202664    1.4714464841
 H    2.7584765813   -0.4227969646    2.2187518823
 H    0.5197417492   -0.3490781269    3.1946864776