17

 C   -0.0155162728    1.5356753220   -0.0459468703
 C    1.5171596742    1.5586497239    0.0587750389
 N    2.1611854237    0.8068260757   -1.0237589681
 C    1.5701004573    0.0584208690    0.0635574088
 C    2.3126132207   -0.9448548031    0.8762279497
 O    1.5832028601   -1.2447158774    2.0827778843
 C    0.2374460932   -1.0802224848    2.0762432023
 N   -0.5409258312   -0.5813118484    1.2087780909
 C    0.0414374151   -0.0332039170   -0.0012629384
 H   -0.5224112659    1.9271007813    0.8377763016
 H   -0.4416585380    1.9951068974   -0.9435644889
 H    2.1249502294    2.2790654262    0.5942538911
 H    1.6025424955    0.7737547187   -1.8758833065
 H    2.4363862694   -1.8826399520    0.3181715710
 H    3.3004776166   -0.5921960483    1.1820229826
 H   -0.1661971837   -1.4638101301    3.0118826186
 H   -0.3820535936   -0.5498004231   -0.8712373476