21

 O   -0.0078742746    1.4436837467   -0.2532888899
 C    0.0216949662    0.0380154666   -0.0544096644
 C   -1.4042686316   -0.4846159374   -0.1929221999
 C   -1.4806004507   -1.9981517675   -0.0539900638
 C   -1.4455459116   -2.7311227493    1.3334043255
 C   -2.9073194753   -2.2608881628    1.5841319007
 C   -2.8389480704   -2.7346298110    0.0958713339
 O   -3.8227302213   -2.6813160781   -0.8736815216
 C   -2.0352832463   -3.9729834478    0.6063808650
 H    0.8890310366    1.7787508409   -0.1652366037
 H    0.6729538327   -0.4552999648   -0.7949436054
 H    0.4168858008   -0.2144570999    0.9432437128
 H   -2.0308471777    0.0348417857    0.5376222040
 H   -1.7808916334   -0.1980719769   -1.1822318319
 H   -0.8267873407   -2.4707373001   -0.7981273954
 H   -0.6327538256   -2.7345146799    2.0559237606
 H   -3.4984622998   -2.8826842031    2.2631810902
 H   -3.0783766528   -1.2013527517    1.7743938053
 H   -4.5875329898   -3.1782041389   -0.5638628115
 H   -1.3906331841   -4.4727511102   -0.1214542563
 H   -2.5770022408   -4.6880082404    1.2322100158