19

 C   -0.1058983997    1.5992463990   -0.0860853789
 C    0.0401118578    0.0722700931   -0.0213383389
 C    0.9035094558   -0.4741410314   -1.2008773236
 N    1.7158210065   -1.5433454052   -0.5974437281
 C    1.7204242723   -1.3542796824    0.7645047715
 C    0.7856598266   -0.4808821615    1.1928516407
 C    0.5277648292   -0.2765857232    2.6235218139
 N   -0.6206633640    0.4321405787    2.9399648175
 O    1.2785328610   -0.6762712268    3.5022334645
 H    0.8766683656    2.0791095904   -0.0312996699
 H   -0.5834423669    1.9039687836   -1.0241040197
 H   -0.7058708916    1.9885208783    0.7399833951
 H   -0.9655604299   -0.3736762593   -0.0808449653
 H    0.3015203545   -0.8577724023   -2.0291662155
 H    1.5459346457    0.3281790099   -1.5921001087
 H    2.5790353868   -1.8005433449   -1.0523799744
 H    2.3884085172   -1.9254692370    1.3956475398
 H   -1.3897972222    0.4382499312    2.2890995908
 H   -0.8736059549    0.3927280898    3.9160751092