17

 O   -0.0420069942    1.4120580615   -0.0005521806
 C    0.0082058253    0.0235229685   -0.0742587616
 C    0.8936294232   -0.6485035245   -1.0733551919
 C    0.2978928802   -1.7160972615   -1.6054897884
 C   -1.1008214039   -1.9200302612   -1.0593658387
 C   -1.2582763801   -0.7872200001   -0.0495740986
 C   -0.3478558373   -0.7846493511    1.1858989891
 C    0.3683804330   -1.9439403045    1.6189570853
 C    0.9570449630   -2.9253904389    1.9918798747
 H    0.7340393957    1.7171289874    0.4822374648
 H    1.8969461529   -0.2987953864   -1.2867430802
 H    0.7510242971   -2.4026124440   -2.3113067765
 H   -1.8602760330   -1.8652580226   -1.8493156296
 H   -1.2050917956   -2.9049718970   -0.5868823799
 H   -2.2157740371   -0.2956079578    0.0697314993
 H   -0.7322244099   -0.1538284365    1.9837536215
 H    1.4850244008   -3.7846585313    2.3233031214