19

 C   -0.0113870391    1.3141874577    0.3084423922
 O   -0.0514529635   -0.0076051330   -0.2116320190
 C   -1.3131178942   -0.5830553564   -0.1582551764
 C   -1.7913007731   -1.1619925546    1.1560543953
 C   -1.4434439226   -2.0727843925   -0.0196015686
 C   -2.6087104120   -2.4504978421   -0.8772979554
 C   -3.1391529185   -1.3845261750   -1.4805754452
 C   -2.3731257669   -0.1114925795   -1.1655454066
 O   -3.1848881540    0.9759339425   -0.7342776608
 H    1.0159389723    1.6665639138    0.1927676825
 H   -0.6916161727    1.9847133535   -0.2300451974
 H   -0.2806607189    1.3314044463    1.3743672958
 H   -1.0708268980   -1.1197563431    1.9661565560
 H   -2.8319536435   -1.0895588016    1.4587819333
 H   -0.5697691496   -2.7083633864    0.0609518769
 H   -2.9778087096   -3.4676833831   -0.9494362253
 H   -4.0169397272   -1.3747427591   -2.1160310904
 H   -1.8585046448    0.2727481826   -2.0555780339
 H   -3.6347623640    0.6958939499    0.0709513370