19

 C   -0.1530568747    1.3469467170   -0.0632845693
 O   -0.0864766271   -0.0626210593   -0.1087472639
 C    0.7745116040   -0.5581435082   -1.1071857686
 C    0.6845922598   -2.0923055563   -1.0360177297
 O   -0.6740864653   -2.4873530339   -1.0919838376
 C    1.3857280984   -2.7497707608   -2.2336234473
 N    1.2842679664   -4.1974704778   -2.1295660692
 C    1.2990309686   -2.5478487848    0.2391203365
 N    1.7759109781   -2.8585062084    1.2441595918
 H    0.8298356974    1.7871094746    0.1578977775
 H   -0.5186717420    1.7647871675   -1.0132865045
 H   -0.8488658230    1.6114747369    0.7353598630
 H    0.4449034038   -0.2295397290   -2.1053452283
 H    1.8094074805   -0.2202248847   -0.9481582349
 H   -1.1492739131   -1.9061038861   -0.4828406764
 H    0.9260428397   -2.3161335925   -3.1376272200
 H    2.4435233236   -2.4652716744   -2.2251101578
 H    0.3080826285   -4.4705402121   -2.1730731661
 H    1.7618007566   -4.6419514281   -2.9052760252