16

 C   -0.0148316899   -1.0472994324   -0.4219621582
 C   -0.0223900639    0.1032283593   -0.0751128556
 C   -0.0016024205    1.4983429776    0.3526803536
 C    1.3675041203    2.1353077227    0.1716855205
 C    1.8657380826    2.6982621576   -1.1272277283
 O    0.8847796819    3.0550408280   -2.0939451310
 C    0.1556729245    4.0458438852   -1.5174136675
 N    0.4776993885    4.4520430247   -0.3556987603
 C    1.5984753074    3.6342095833    0.0503919947
 H   -0.0213687711   -2.0627126066   -0.7320361191
 H   -0.7629830517    2.0625489705   -0.1948192286
 H   -0.2856289827    1.5638308063    1.4106389032
 H    2.1557725950    1.6355011381    0.7280507771
 H    2.8131852523    2.4277250477   -1.5744130045
 H   -0.6634082325    4.4170195241   -2.1212254197
 H    2.3517123500    4.1173119138    0.6608170738