21

 C   -0.2589483722    1.4272377763    0.0250136627
 C    0.0064194792   -0.0693885302   -0.0574713044
 C    0.8797522161   -0.4976504123   -1.2328521236
 C    2.1092453416   -0.3760346530   -0.3003328506
 C    2.5964875436   -1.6961732555   -0.8753023223
 N    1.1826620367   -2.0055356204   -1.2928858541
 C    0.5566221668   -2.6985283888   -0.1507392082
 C    0.8833753194   -1.9328588057    1.1705124716
 N    1.1203534600   -0.5090950712    0.8694103455
 H    0.6484065824    2.0086807511   -0.1649648107
 H   -1.0148092827    1.7260930345   -0.7093217354
 H   -0.6213913213    1.6889857592    1.0234011184
 H   -0.9307406960   -0.6147757145    0.1014355579
 H    0.7739256516   -0.0623819880   -2.2302362635
 H    2.7677014669    0.4880608495   -0.1901116319
 H    3.2286359757   -1.5400883160   -1.7565798986
 H    3.0707357450   -2.4413970301   -0.2287543904
 H   -0.5210554939   -2.7640400714   -0.3257281437
 H    0.9357769210   -3.7259482991   -0.1224913649
 H    0.0603836965   -2.0045469922    1.8901524942
 H    1.7715630136   -2.3399321523    1.6630843320