19

 O   -0.2856394283    0.0981422416   -0.1844920611
 C   -0.1347223964    1.2567957747    0.1302031355
 C    1.1727638721    1.9471839464    0.0709856403
 C    1.3092613681    3.4251005456   -0.3110530934
 C    0.1037538103    4.2981340623   -0.6275174337
 C   -0.7879726009    4.5885237966    0.5484218998
 C   -0.5342744541    4.2149395250    1.8008691728
 C    0.6832513058    3.4448412383    2.2332151196
 C    1.5944018154    3.0053165019    1.0964771496
 H   -0.9919745900    1.8654446867    0.4844503556
 H    1.9621751868    1.2923237270   -0.2841737539
 H    2.1696371275    3.6189703040   -0.9440326732
 H    0.4701575253    5.2543040257   -1.0273461437
 H   -0.4866062019    3.8594463439   -1.4439415767
 H   -1.6886635151    5.1576070526    0.3314222038
 H   -1.2309015258    4.4835168161    2.5912889108
 H    1.2686211624    4.0785508255    2.9144869372
 H    0.3815830130    2.5810723001    2.8418339131
 H    2.6399606858    2.9264596961    1.3776806876