22

 C   -0.1380742564    1.6255458210    0.0168012593
 C   -0.0361573779    0.1056231889   -0.1034605884
 O    0.9791428595   -0.4146138156    0.7557383897
 C   -1.3830589309   -0.5939340736    0.1384524852
 C   -1.3094509869   -2.0834954957   -0.0496907230
 C   -1.5188881032   -2.7435037637   -1.3559192503
 N   -2.5407950606   -2.9455008359   -0.3076450430
 C   -1.9489886460   -3.9836208408    0.6118165857
 C   -0.7364775444   -3.0824132786    0.9566607050
 H    0.8434435044    2.0832000737   -0.1335711641
 H   -0.8323252706    2.0377634655   -0.7224914203
 H   -0.5022764898    1.9142795787    1.0111273605
 H    0.3119523668   -0.1512992143   -1.1115434010
 H    0.7536863632   -0.1617751558    1.6581471058
 H   -1.7276538402   -0.3614195128    1.1575114730
 H   -2.1366098432   -0.1845120609   -0.5449379199
 H   -1.8751585535   -2.1314848538   -2.1796644480
 H   -0.8977033444   -3.5860947470   -1.6560832545
 H   -2.6223103473   -4.1665643524    1.4516028090
 H   -1.7396430127   -4.9358498769    0.1123326114
 H    0.2710268796   -3.4543164670    0.7554332708
 H   -0.7695043855   -2.7128034927    1.9839843170