17

 C   -0.0407875320    1.4415081531    0.0614315317
 N    0.0082325451   -0.0059871113    0.0386639312
 C    0.0523075815   -0.8115338527   -1.0514232027
 N    0.0903821129   -2.0899652863   -0.7375670932
 C    0.0705628378   -2.1353315443    0.6310610265
 C    0.1019595299   -3.4207967316    1.3874300807
 C    0.0192582648   -0.8482479334    1.1469157649
 C   -0.0174586318   -0.3685837940    2.4675455497
 C   -0.0490706101    0.0466506315    3.5997594555
 H    0.8253878164    1.8503441507    0.5892855668
 H   -0.0370762374    1.8087883902   -0.9663034080
 H   -0.9485099233    1.7907098020    0.5615679164
 H    0.0543250705   -0.4067375866   -2.0534830469
 H    1.0063256312   -3.9912422361    1.1500494887
 H    0.0789368614   -3.2387327853    2.4644503211
 H   -0.7541353275   -4.0504878603    1.1224266084
 H   -0.0766116594    0.4021317845    4.5997245092