14

 C   -0.0224689527   -1.2168503795   -0.0182607094
 C    0.0077291302   -0.0153274969    0.0389134533
 C    0.0289890715    1.4184109957    0.0890380233
 C    0.5166644816    2.1933569378    1.2618988835
 C    1.6360839924    1.4698385801    2.0032974362
 C    2.3752071168    1.4392721897    0.6397827252
 N    1.2800202683    2.2244964739   -0.0426901557
 H   -0.0549657279   -2.2770448581   -0.0706503304
 H   -0.7747008255    1.8947855817   -0.4672867312
 H   -0.0368496162    3.0550195354    1.6235272933
 H    2.1333730674    2.1000270683    2.7421899626
 H    1.3720846782    0.5140404412    2.4626032895
 H    3.2944983959    2.0266118193    0.6225487825
 H    2.5580179800    0.4601377615    0.1909654773