18

 O    0.3226845143    0.0981653856    0.4696443003
 C    0.1206879143    1.2617409937    0.2515748777
 C   -1.1244615808    2.1491577770   -0.0108615816
 C   -0.1245616655    3.3423831371   -0.0297475460
 C   -0.2412711624    4.3670442860    1.0989180242
 C    0.9245185174    5.3293486763    1.1015902216
 C    1.6360697722    5.7128938285    2.3264468492
 O    2.2071740404    4.7680603269    1.4182183369
 N    0.9490922067    2.3548171332    0.1501664915
 H   -1.6445897361    1.9458525789   -0.9482549527
 H   -1.8410951573    2.1571772165    0.8133253133
 H   -0.0647854231    3.8536547806   -0.9986958252
 H   -1.1725925798    4.9355766340    0.9811335015
 H   -0.2903977784    3.8402494559    2.0588278818
 H    0.9556715790    6.0256117732    0.2612695759
 H    2.1477309698    6.6723750356    2.3810069890
 H    1.3118476150    5.3038578315    3.2823355994
 H    1.9090587342    2.4965816995    0.4304767032