15

 O    0.0052862044   -0.0182486531    0.0118175898
 C    0.0175344803    1.1914633534   -0.0121157767
 C    1.2614718780    1.9809925249    0.0194310189
 C    1.2485209345    3.3221061012   -0.0142132195
 C    2.5271662202    4.0997094766    0.0361300038
 N    3.6699493880    3.2109727823   -0.1382657480
 C    3.6918306936    1.8403804659   -0.0274320656
 O    4.7150146031    1.1875692735   -0.0509943263
 N    2.4377867267    1.2581413384    0.0901985616
 H   -0.9121013915    1.7935045383   -0.0586021320
 H    0.3083316954    3.8574178679   -0.0580006506
 H    2.5346516995    4.8650722519   -0.7536246509
 H    2.5907694020    4.6512221900    0.9910079871
 H    4.5918009729    3.6156962936   -0.1679201938
 H    2.3842297628    0.2507818649    0.0758888522