23

 C   -0.1266567789    1.2038541396   -0.3126980053
 C    0.0686895637   -0.2284812899    0.1314391176
 C    1.4271899758   -0.9061181031    0.0776704456
 C    0.7611340596   -0.6231087242    1.4059942387
 C    1.3327073085    0.3958718858    2.3663749965
 O    0.1465843297   -1.7231323105    2.0366995996
 C    1.0262006272   -2.6246246995    2.6986870764
 C    0.2390081016   -3.9083089404    2.9167129326
 O   -0.2057247375   -4.4527819326    1.6902372703
 H    0.7486522713    1.8242324416   -0.0991211898
 H   -0.2988678647    1.2487532314   -1.3935464102
 H   -0.9899646883    1.6633056483    0.1812324522
 H   -0.7636472718   -0.8852447373   -0.1077839485
 H    1.4690121411   -1.9373870990   -0.2551622967
 H    2.2855895736   -0.3032172793   -0.2030781562
 H    1.7313378830    1.2639802098    1.8368949211
 H    0.5601786634    0.7415730099    3.0614569634
 H    2.1520871540   -0.0306783628    2.9546725503
 H    1.9056526126   -2.8256188596    2.0707475315
 H    1.3691897034   -2.2158039351    3.6607699053
 H    0.8790824640   -4.6579008373    3.3936113678
 H   -0.6041546958   -3.7028661057    3.5956184492
 H   -0.6377174255   -3.7228462302    1.2308772587