21

 C    0.1292095642    1.5052753281    0.1473574358
 C   -0.0226788086   -0.0005352954   -0.1109286223
 C   -1.4468296263   -0.4687870772   -0.0421225176
 C   -2.2105448924   -0.8130395727    1.2267060920
 C   -3.6163537486   -0.2441286782    1.1956332038
 C   -3.8649457479   -0.3345799275   -0.2985951589
 C   -3.1414375925   -1.5309130152   -0.8907790679
 C   -2.5720793749   -0.1384128169   -1.0669479520
 C   -2.0297116310   -1.8576346919    0.1351181106
 H    1.1762356304    1.8159582167    0.0753886159
 H   -0.4430254195    2.0902703780   -0.5805817447
 H   -0.2360529335    1.7706874592    1.1447900039
 H    0.3986984552   -0.2463139312   -1.0952403221
 H    0.5720023990   -0.5619540932    0.6210143683
 H   -1.6591524819   -0.9240401996    2.1537984438
 H   -4.3261386476   -0.8468327551    1.7742332886
 H   -3.6576549004    0.7878971215    1.5631317327
 H   -4.7982259270   -0.0108077541   -0.7446400455
 H   -3.5647832881   -2.2014718411   -1.6257006054
 H   -2.4709111451    0.4595757380   -1.9629915072
 H   -1.5253997237   -2.8050570222    0.2715384682