16

 C   -0.0841580580    1.4680111990   -0.1361798832
 N    0.0064583288    0.0243561747   -0.0143565057
 C    0.5800975008   -0.5702955058    0.9688462478
 C    0.6214417345   -2.0229467789    1.0047367035
 C    1.2139095022   -2.6898572539    2.0198569513
 N    1.7944797943   -2.0138947912    3.0473794626
 N    1.8171639166   -0.6622685103    3.1196433697
 C    1.2577269650    0.0055852570    2.1620243946
 O    1.2996600001    1.3512716177    2.2673500459
 H    0.8975961741    1.9554282728   -0.1854450811
 H   -0.6202021219    1.6976707863   -1.0621784580
 H   -0.6302850573    1.9337735279    0.6936716535
 H    0.1582881855   -2.5554868665    0.1851970631
 H    1.2655557611   -3.7702072141    2.0831647730
 H    2.2427704353   -2.4783210015    3.8166622702
 H    1.7698240687    1.5483449268    3.0903275529