22

 C    0.9783697409    1.3953720993    0.1790021323
 O    1.0196594062   -0.0100302952    0.1278648643
 C    0.7764893094   -0.5191160948   -1.1694731793
 C    0.7213332679   -2.0294289183   -1.0901741899
 C   -0.4923533900   -2.5452228218   -0.3394181534
 C    1.2505146647   -2.9042566596   -2.1639550204
 C    2.4954295422   -2.3566832115   -2.8605192168
 C    3.1122099032   -2.2200238908   -1.4451262409
 N    1.9148707102   -2.8574637201   -0.7901389346
 H    1.7329471926    1.8526710399   -0.4812610162
 H   -0.0097345542    1.7870393134   -0.1115941737
 H    1.1866384460    1.6918859956    1.2098095214
 H   -0.1927012917   -0.1518345870   -1.5495050664
 H    1.5447150481   -0.1566461128   -1.8665001515
 H   -1.4175671948   -2.2818448972   -0.8644460385
 H   -0.4443617563   -3.6314785534   -0.2353473679
 H   -0.5247530200   -2.1038491478    0.6601134239
 H    0.6934933032   -3.7772262726   -2.4941990522
 H    3.0003750630   -3.1165804461   -3.4599313067
 H    2.3763308609   -1.4585570046   -3.4742463165
 H    3.9874474226   -2.8531794902   -1.2882082243
 H    3.3357973460   -1.2156724742   -1.0754891628