18

 O   -0.0614247307    1.2474561636   -0.4468947647
 C   -0.0919158598   -0.1071393976   -0.1490047115
 C   -0.3693140907   -0.5281532021    1.2653744210
 O   -0.8460582226    0.5488731469    2.0513843978
 C   -2.2667969368    0.6388868063    1.8918708503
 C   -2.5922024459    0.0154878427    0.5304672236
 C   -3.9888763121   -0.3174361735    0.1630221120
 N   -3.2682519161    0.7564939631   -0.5413337015
 C   -1.3921705466   -0.8322869411    0.1953894015
 H   -0.1258062464    1.7054458762    0.4031566756
 H    0.6295097169   -0.6816847502   -0.7239993348
 H    0.2096569747   -1.2644740463    1.8133620659
 H   -2.7598645923    0.0871363243    2.7053070219
 H   -2.5518100676    1.6942384678    1.9639158435
 H   -4.2045035088   -1.1977290443   -0.4373007904
 H   -4.7744500935   -0.0535352105    0.8688944360
 H   -3.5743091100    1.6686922554   -0.2111564728
 H   -1.5410509515   -1.8364945507   -0.1836549334