17

 O    0.0692212673   -0.0661760506    0.0757144488
 C   -0.0014100624    1.1390545300    0.1480011907
 C   -1.2911480343    1.9632337948    0.1426956253
 C   -1.1471553625    3.3908930124    0.7198522148
 N    0.0389129160    4.1368938948    0.2585994906
 C    1.0207306238    3.3754733935    0.0528207263
 C    2.4859554614    3.4655706229   -0.3516507240
 C    2.5043299459    1.8996676565   -0.2388994004
 N    1.0899056996    1.9785194574    0.1644350584
 H   -1.5999403999    2.0170777502   -0.9102174090
 H   -2.0666945689    1.4019955891    0.6690920432
 H   -2.0402404321    3.9715430785    0.4736765891
 H   -1.1017225899    3.3417306177    1.8173180713
 H    2.6575766212    3.8579454129   -1.3553397597
 H    3.1255060641    3.9943588159    0.3570318015
 H    2.6546999522    1.3603154162   -1.1769582118
 H    3.1566185387    1.4861563677    0.5329933248