12

 O    0.2861731260    1.3052496863   -0.1652655172
 C    0.1255905630   -0.0110190158   -0.0884087383
 N   -0.1632109982   -0.7326448094   -1.1423398059
 O   -0.2327063394   -2.0316752935   -0.5978746140
 C    0.0193719668   -1.9186412603    0.7028580873
 C    0.0281913608   -3.1614398381    1.5406718256
 C   -1.2951077897   -3.7780764254    1.6570231623
 N   -2.3343374669   -4.2700421929    1.7582746671
 N    0.2520921245   -0.7037883237    1.0942005337
 H    0.4786798672    1.6279854912    0.7238472755
 H    0.7213515289   -3.8913060756    1.1073418786
 H    0.3957419069   -2.8947167128    2.5345589854