17

 C   -0.2803364630   -1.0435440598    0.5746240208
 C   -0.2162423378    0.1392585392    0.3694538313
 C   -0.0748541604    1.5689074644    0.1239305426
 C    1.2903745029    1.9146630875   -0.5043430765
 C    1.6702999171    3.4150642334   -0.3961762178
 C    2.5924280846    2.9847487928    0.7854394481
 N    2.4723067536    1.5871653001    0.3236244094
 C    3.9559058546    3.5176979268    0.8139136006
 N    5.0241159731    3.9579031719    0.8397335084
 H   -0.3589307932   -2.0880505414    0.7501658978
 H   -0.8723539073    1.9192897173   -0.5442354385
 H   -0.1994002675    2.1169274098    1.0678336494
 H    1.3417703967    1.4747828787   -1.5052039562
 H    2.2343078130    3.7812275959   -1.2533966339
 H    0.8720077795    4.1164162755   -0.1515049896
 H    2.1303895085    3.1929471926    1.7602125471
 H    2.3394342955    0.8797510053    1.0390802570