13

 O   -0.0158303173    0.0565096796   -0.0372822309
 C    0.0490125023    1.2469880077   -0.0055492556
 O   -1.0438141301    2.0863578550    0.0076783599
 C   -0.4096016636    3.4016376722    0.0472901012
 C    0.6996449988    3.2647203035   -1.0194070542
 C    1.2220829447    2.2195170617    0.0294195088
 C    0.6823875638    3.2085122181    1.1230579394
 H   -1.1763862602    4.1719023841    0.0613224617
 H    0.4044517225    2.9057124336   -2.0072378434
 H    1.3445899787    4.1419501578   -1.0931098497
 H    2.2188806217    1.7886703145    0.0261457825
 H    1.3256892677    4.0804012881    1.2530236770
 H    0.3714847710    2.7983317341    2.0858285733