16

 C    0.1011655806    1.5611277363   -0.1025359741
 C   -0.0564101652    0.0592387221    0.1019360539
 O    0.5141037555   -0.6522554712   -1.0373879924
 C    1.4907865051   -1.6437273502   -0.6717931548
 C    1.5570217911   -1.4589653688    0.8003507732
 C    0.7052083343   -0.5266891435    1.2471155253
 N    0.8103027275   -0.4163276312    2.6243939022
 C    1.7218002315   -1.2916236443    2.9159999209
 O    2.2382823280   -1.9831689757    1.8489587459
 H    1.1591524534    1.8318134019   -0.1583728564
 H   -0.3902893408    1.8692241502   -1.0292535858
 H   -0.3556849252    2.1018275096    0.7324309642
 H   -1.1261703257   -0.1918612039    0.1504949593
 H    1.1451202849   -2.6425140097   -0.9766574257
 H    2.4354119185   -1.4404071972   -1.1949106466
 H    2.1255407269   -1.5441904445    3.8836131108