25

 C   -0.0122352722    1.5593774969    0.0741483326
 C    0.0062090479    0.0300382487    0.0154529227
 C    0.6969897219   -0.5105653657   -1.2408861971
 C    0.7526080300   -2.0339734645   -1.3047745360
 C    1.3462172637   -2.5623038004   -2.6172216129
 C    1.4792930315   -4.0913108587   -2.5806805782
 C    2.2286463888   -4.5277407082   -1.3141005952
 C    1.5846338831   -3.8892264869   -0.0820757006
 O    1.5263580607   -2.4779242049   -0.1917728451
 H    1.0046683185    1.9678301454    0.0721694522
 H   -0.5389220803    1.9859873299   -0.7874472485
 H   -0.5119510873    1.9184749780    0.9794210517
 H    0.5149372167   -0.3741251290    0.8965193135
 H   -1.0233432233   -0.3511338545    0.0525312286
 H    0.1786803657   -0.1465631462   -2.1378514099
 H    1.7242530007   -0.1262884961   -1.2934873751
 H   -0.2737245987   -2.4361639505   -1.2004811081
 H    0.7172881216   -2.2475118994   -3.4580581835
 H    2.3340879095   -2.1053216610   -2.7606783828
 H    0.4771247855   -4.5421984445   -2.5810743751
 H    1.9868955601   -4.4570341757   -3.4796411872
 H    2.2277185160   -5.6189955103   -1.2100806070
 H    3.2758166731   -4.2056120093   -1.3712378808
 H    0.5685788930   -4.2984351313    0.0614556308
 H    2.1598966137   -4.1008507118    0.8245621808