20

 C    0.0479871826    1.5918956020   -0.1126389608
 C    0.0803406478    0.0796825339    0.0351795942
 N    0.7288663780   -0.6917429025   -1.0579510490
 C   -0.1390514522   -1.3414159680   -2.0206083200
 C    0.6330513881   -1.9723376739   -3.1699704752
 O    1.3696942724   -3.0756513981   -2.6600828743
 C    1.5042191160   -1.5365575352   -0.1147571421
 C    1.1017072448   -0.5589680441    0.9931901021
 O    1.4518756414   -0.3405158857    2.1144026877
 H    1.0442757040    1.9751174558   -0.3484771798
 H   -0.6351023950    1.8947888254   -0.9129238980
 H   -0.2941818439    2.0525273456    0.8192847452
 H   -0.9270102319   -0.3055334456    0.2802526873
 H   -0.7730829917   -2.1207019083   -1.5533428188
 H   -0.8104886909   -0.5827653084   -2.4399261779
 H   -0.0793759624   -2.2964268093   -3.9451995804
 H    1.2981144323   -1.2147029848   -3.6087961412
 H    1.9607051524   -3.3913279282   -3.3492624552
 H    1.0811931405   -2.5398569288    0.0480882424
 H    2.5686308479   -1.6430336818   -0.3407005363