16

 C    0.0396444547    1.5301405142   -0.0998752717
 C   -0.0243282321    0.0160612752    0.1133736240
 N   -1.3746213484   -0.5160422337    0.0321729647
 C   -2.1403353725   -0.9427872494    1.0653125147
 N   -3.3416912645   -1.3288084157    0.6738119314
 C   -3.3456308675   -1.1365878481   -0.6760537266
 O   -4.4292272941   -1.4328823697   -1.4276989187
 C   -2.1476387243   -0.6326304248   -1.1161629265
 H    1.0744776701    1.8771516513   -0.0221463816
 H   -0.3390414989    1.8047869206   -1.0881712195
 H   -0.5593898556    2.0528688966    0.6511300813
 H    0.5993534667   -0.4998806222   -0.6251589236
 H    0.3657013885   -0.2464259654    1.1012403728
 H   -1.7737667390   -0.9564460967    2.0810650624
 H   -5.0932222792   -1.7700121402   -0.8141027977
 H   -1.7818525940   -0.3666639120   -2.0919450354