18

 O   -0.7092722204    0.9859564054   -0.5909587097
 C    0.1336603242    1.1123780058    0.2623369002
 C    1.3826435157    1.9135898729    0.0881689552
 C    2.8483173972    1.4261431715    0.1888374184
 C    2.8783420920    2.9564444947    0.0411354897
 C    1.7618112307    2.9067539797   -1.0498413520
 C    0.8961276941    4.1474479693   -0.8802885144
 C    0.9187899954    4.2086276954    0.6732947579
 N    1.7480333855    3.0410180662    1.0716862040
 H    0.0326451712    0.6295264315    1.2603149211
 H    3.1544417482    1.0324894969    1.1586232883
 H    3.2200356909    0.8354819608   -0.6493588990
 H    3.7351034164    3.6310724787    0.0951424799
 H    1.9779663275    2.5362536372   -2.0531473213
 H    1.3370707380    5.0313632504   -1.3507648981
 H   -0.1079310767    4.0086552543   -1.2893233900
 H    1.3841710207    5.1186864411    1.0624060517
 H   -0.0738805505    4.1193966380    1.1234630481