16

 O    0.1351449868    1.3680857613   -0.1041404719
 C   -0.0209844112   -0.0151785506   -0.0197507184
 C   -0.4593099958   -0.7392773800    1.2398794701
 C   -1.1651796538    0.1061587161    2.2787805144
 O   -2.0929117363    0.9190113505    1.5397588641
 C   -2.5418803962    0.1594887615    0.4157404151
 C   -1.3575666976   -0.7097684890    0.0132178904
 O   -1.6138391456   -1.8708506699   -0.7120966953
 H   -0.5655241103    1.7659393983    0.4320042610
 H    0.7478794337   -0.5203133569   -0.5964313227
 H    0.0474462341   -1.6494540016    1.5382044484
 H   -1.6935643402   -0.5279033784    3.0057659671
 H   -0.5117149815    0.7934602330    2.8249795417
 H   -3.3922948596   -0.4899848549    0.6717402772
 H   -2.8612723340    0.8769444365   -0.3477961655
 H   -1.6168530928   -1.6454083159   -1.6488523957