13

 N    0.1874670343    1.4683812972    0.0055266983
 C    0.0538263235    0.2013354793    0.0016493667
 N   -1.1956598923   -0.4321637280    0.0099770174
 C   -2.4631778793    0.1457295080    0.0264180073
 O   -2.7017584970    1.3267019654    0.0363767359
 C   -3.5072852580   -0.8745079772    0.0301718267
 C   -4.3934066347   -1.6872182482    0.0337784663
 C    1.1426487905   -0.7440807797   -0.0127095490
 C    2.0671443059   -1.5135889217   -0.0248665125
 H    1.1783484886    1.7060727816   -0.0025375156
 H   -1.1739416704   -1.4403466966    0.0039422999
 H   -5.1880881221   -2.3933695710    0.0374499465
 H    2.8923122911   -2.1835327691   -0.0356467479