19

 C   -0.0843056204    1.5494424758    0.0247330243
 C   -0.0139194387    0.0441689007    0.0228569653
 C    0.9224277712   -0.8172408413   -0.8905482881
 N    0.7074303307   -1.9398275723    0.1062750702
 C    0.6448580249   -0.8327463098    1.1409426444
 C   -0.7524767081   -2.1896213423   -0.0950966522
 C   -1.2783176298   -0.7577121307   -0.1560305563
 N   -2.4390055394   -0.2748172532   -0.3109386849
 O   -3.3947630408   -1.3074786535   -0.4494013793
 H    0.9070906039    1.9919734492    0.1634957193
 H   -0.4989175571    1.9187009442   -0.9184571396
 H   -0.7373624441    1.9053742659    0.8276606524
 H    0.6114578092   -1.0364938951   -1.9158933193
 H    1.9642359561   -0.4878698861   -0.8690888781
 H    1.6535657267   -0.5052297502    1.4046684945
 H    0.0706889851   -1.0667007621    2.0418877346
 H   -0.9309443390   -2.7476310916   -1.0183376566
 H   -1.1709144270   -2.7610146911    0.7379819745
 H   -4.2133431634   -0.8118287567   -0.5574655650