16

 C   -0.0338149294    1.5657472294   -0.0446149792
 C    0.0262435419    0.0432861861    0.0203703194
 O    0.7654437765   -0.4732479680   -1.1086111369
 C    1.8216013261   -1.2328051489   -0.6829890274
 N    2.6632366090   -1.8214730704   -1.4250439709
 C    1.8030643722   -1.2485774896    0.7843985299
 C    0.7638752071   -0.5187269735    1.2133328089
 C    0.3625419250   -0.3019455957    2.6073276327
 O   -0.6025286575    0.3520169736    2.9360153190
 H    0.9721507347    1.9923682228    0.0028325414
 H   -0.5041982740    1.8800961174   -0.9795303892
 H   -0.6210505821    1.9405878767    0.7966306597
 H   -0.9903000582   -0.3674106191   -0.0330464941
 H    2.4526461401   -1.6557524749   -2.4106261186
 H    2.5341896190   -1.7851527890    1.3726970106
 H    1.0131260395   -0.7937243668    3.3609049446