18

 C   -0.4634911358    1.3871973948   -0.0354871998
 N   -0.0996254790   -0.0217276086    0.0472454112
 C    1.2629197929   -0.3687760165   -0.3201063989
 C    0.8391397496   -0.4404301172    1.1107032983
 C    1.3583996016    0.4911777202    2.1356549444
 C    0.8904553485    0.7745194529    3.4078211313
 C    1.7883997969    1.7292056108    3.9247801709
 N    2.7518524652    2.0260295614    3.0559351767
 N    2.4660117181    1.2680465956    1.9814854111
 H    0.3604212380    2.0815254900    0.1897455026
 H   -0.8202338477    1.5919718216   -1.0494746617
 H   -1.2800558988    1.5903524253    0.6634980891
 H    1.3949565972   -1.2812273319   -0.8956140336
 H    1.9267841983    0.4440879114   -0.6161789016
 H    0.5845896892   -1.4191831993    1.5106439898
 H    0.0201998655    0.3496058643    3.8816538038
 H    1.7742938639    2.2116455921    4.8911624759
 H    3.0939661866    1.2797281631    1.1958356006