16

 O   -0.2739461697    1.4456235572    0.0127010815
 C   -0.0221279450    0.0510182829    0.0033385383
 C   -1.3812912650   -0.6366236932    0.0110898138
 C   -1.2628834997   -2.1386382909    0.0018688745
 O   -0.2410480322   -2.7761142822   -0.0111230388
 O   -2.4907295344   -2.7204700031    0.0106631201
 C   -2.4597741009   -4.1510550582    0.0027561336
 C   -3.8390800792   -4.6335333197    0.0141067172
 N   -4.9150283114   -5.0513540790    0.0229309486
 H    0.5714160723    1.9035877953    0.0083233487
 H    0.5431770388   -0.2584910799   -0.8873351657
 H    0.5579485434   -0.2676757599    0.8811930814
 H   -1.9581774955   -0.3318090968    0.8912394596
 H   -1.9727557417   -0.3223777030   -0.8559897879
 H   -1.9380909020   -4.5186071739   -0.8867742829
 H   -1.9202612279   -4.5279960955    0.8776061478