20

 C    0.6632790215    0.4995244914   -0.7697554502
 C   -0.5808947039    0.7216423083    0.0595594685
 O   -0.8324514074    1.7759034978    0.6057866196
 C   -1.5498007477   -0.4361528293    0.2170978741
 N   -1.0899555850   -1.8025013198   -0.1107061478
 C   -1.8272642040   -2.3532063633    1.0561690184
 C   -1.8833902593   -0.9355973281    1.6738428401
 C   -0.8050517993   -0.6558901322    2.7114165385
 O   -3.1663676535   -0.6162836354    2.1501015721
 H    1.2933722535    1.3892873105   -0.7454422009
 H    1.2040860628   -0.3780569449   -0.4040342353
 H    0.3835966470    0.2738430902   -1.8063553160
 H   -2.4983914223   -0.1455744547   -0.2579508790
 H   -1.3947086029   -2.1572895935   -1.0104245041
 H   -2.8414245154   -2.7045735995    0.8306251514
 H   -1.2856282168   -3.1256005497    1.6117465894
 H    0.1757849062   -0.9845574888    2.3540902353
 H   -0.7427339162    0.4151509573    2.9290645527
 H   -1.0378488606   -1.1930969959    3.6357110182
 H   -3.1381026267    0.2868316996    2.4867248849