14

 C   -0.0203031557   -1.1506552711   -0.0038062832
 C    0.0130869407    0.0488862512    0.0025944391
 C    0.0088991202    1.5004691589    0.0108634435
 O    1.3772684578    1.9632714457   -0.0026378289
 C    1.5606996102    3.2786481208    0.0026774187
 C    2.7183931824    4.0020339735   -0.0068438333
 C    2.2418630105    5.3346944152    0.0063415978
 N    0.9333312847    5.4253228165    0.0222568098
 O    0.4903105627    4.0805117733    0.0198347478
 H   -0.0462622214   -2.2126628838   -0.0095167958
 H   -0.5173554835    1.8969467660   -0.8649997620
 H   -0.4965224279    1.8869330428    0.9033147075
 H    3.7282096107    3.6333066060   -0.0208286338
 H    2.8180552385    6.2500269250    0.0047594329