17

 C   -0.2363311072    1.5777614779   -0.0447181823
 C    0.0169414240    0.0696808541    0.0239429849
 C    0.9324701593   -0.4592235480   -1.1451044819
 N    1.7070317474   -1.6118913292   -0.6045290390
 C    1.7440927187   -1.3687198113    0.7755245726
 C    0.8192307762   -0.4468811748    1.1795381457
 N    0.9348149221   -0.4601823730    2.5258768590
 N    1.9102446248   -1.3179619729    2.9154763806
 N    2.4012206677   -1.8882020948    1.8327836467
 H    0.7028138548    2.1361454916    0.0196344964
 H   -0.7296101270    1.8448856590   -0.9849604219
 H   -0.8855752226    1.9081053204    0.7724606241
 H   -0.9514142127   -0.4502625736   -0.0173880960
 H    0.3459783066   -0.7633552120   -2.0157265381
 H    1.6036730511    0.3572803984   -1.4510130479
 H    2.6104300441   -1.7356729297   -1.0443365773
 H    0.4557556327    0.0719621280    3.2336113043