23

 C   -1.6790355005   -0.5182376418    2.2673964127
 C   -0.7561393995   -0.7598754926    1.0984601447
 N   -0.4119630269    0.3975106553    0.2575676121
 C    0.6637177448   -0.3131331527    0.9757350751
 C    1.4868853598    0.4820263379    1.9581392484
 C    2.1542805615    1.6875321720    1.3225993114
 N    0.9909142247    0.6127188345    3.3416116534
 C    2.1922017815   -0.2023326536    3.0815471151
 C    2.0941313738   -1.6808898923    3.3725915380
 H   -1.4482732453    0.4226330273    2.7633800207
 H   -2.7168243036   -0.4964675991    1.9150788550
 H   -1.5896838891   -1.3199097837    3.0078096078
 H   -0.9658779211   -1.6892074940    0.5657484256
 H   -0.4108095624    0.1486517025   -0.7275557972
 H    1.2910652734   -0.9645116702    0.3637901180
 H    1.3956543298    2.3810811558    0.9473499181
 H    2.7918380583    2.2128197918    2.0416385454
 H    2.7811589013    1.3907474365    0.4735835222
 H    1.2494905200    1.5233588154    3.7136836863
 H    3.1479527449    0.2426653400    3.3596053335
 H    1.1225455750   -2.0768153882    3.0701171465
 H    2.8759848204   -2.2363172075    2.8423903867
 H    2.2169640592   -1.8703013532    4.4444769605