15

 O    0.1569763192    1.3913918297   -0.1395063773
 C    0.1238373607   -0.0063312434    0.0032552325
 C   -1.3361725272   -0.4935923991    0.0766274701
 O   -2.0531041645   -0.0093774019   -1.0565137392
 C   -1.4305807509   -1.9802016832    0.2008941079
 C   -1.7481439719   -2.8300506405    1.2146666357
 N   -1.6283871490   -4.1071289659    0.7182965282
 N   -1.2783474088   -4.0976260478   -0.4824728614
 O   -1.1262770918   -2.7062201010   -0.8746447930
 H   -0.4866998945    1.6026782827   -0.8283592936
 H    0.6270242526   -0.5242413427   -0.8309431018
 H    0.6563237770   -0.2607979371    0.9253681790
 H   -1.8130704212   -0.0329630737    0.9467346428
 H   -1.8146815337   -0.5577272916   -1.8144486564
 H   -2.0489028960   -2.6335226444    2.2290357167