17

 O   -0.8394163510    1.1533520302   -0.1501086266
 C    0.2750218225    0.8702165714    0.2200042256
 C    1.4151971381    1.8187443637    0.1343794906
 N    2.6138886898    1.4663062226    0.4398598057
 C    3.4630555929    2.6341049260    0.1552247748
 C    4.2471858544    2.5286678052   -1.1810103395
 C    3.2054563219    3.4721478018   -1.8644833817
 C    2.5167020425    3.7119070111   -0.4867211123
 N    1.2037834993    3.1191794091   -0.2660722851
 H    0.5457482410   -0.1193988805    0.6336521991
 H    4.0464438888    2.8979310757    1.0412465395
 H    5.2529379084    2.9526888128   -1.1267746370
 H    4.3139183929    1.5153492172   -1.5817929093
 H    3.6217141622    4.3661030820   -2.3348703430
 H    2.5557087734    2.9734461335   -2.5883124738
 H    2.5644022098    4.7370776481   -0.1138718162
 H    0.3937201833    3.3384146303   -0.8257365608