20

 C   -0.0345502586    1.4598052209   -0.0193310704
 C   -0.0216568252   -0.0668904785   -0.0442525532
 C   -1.4219392108   -0.6123232505    0.2162300553
 C    0.8124751651   -0.6442393138   -1.1816691462
 C    2.0382815183   -0.5528234282   -0.3142633458
 N    1.1001034201   -0.5316518526    0.9141049492
 C    1.0448986194   -2.0455035015    0.8214750595
 C    1.4777436267   -1.9154815133   -0.6283475647
 O    1.9142117353   -2.8756332115   -1.5152598251
 H    0.9724499469    1.8668421706   -0.1416466752
 H   -0.6654004742    1.8570048968   -0.8218655068
 H   -0.4303326658    1.8156110748    0.9372410772
 H   -2.1460844044   -0.0923598091   -0.4196644287
 H   -1.5111301994   -1.6793235156    0.0045007985
 H   -1.7098562725   -0.4372919537    1.2592225142
 H    0.7396875902   -0.4986152611   -2.2535917439
 H    3.0026245613   -0.0723519239   -0.3929930449
 H    1.8403909947   -2.4582191599    1.4512976200
 H    0.0929538025   -2.5088815284    1.0944448378
 H    2.7046157206   -3.2892792914   -1.1503246069