18

 C   -0.0187057153    1.5778157894    0.0000243788
 C    0.0125364647    0.0479514867   -0.0122739705
 C    0.7366072369   -0.4845653365   -1.2509914549
 N    0.8260710826   -1.9382971688   -1.2301890600
 C    0.8795916572   -2.7537712277   -0.1336626239
 O    1.0373128940   -3.9530971958   -0.2068472284
 C    0.6998141614   -2.0453562592    1.2378864317
 O    0.5886645725   -2.7104573168    2.2333442902
 C    0.6903408470   -0.5267874691    1.2402010250
 H    0.9949050994    1.9935647844    0.0307279747
 H   -0.5176685280    1.9722557340   -0.8911202284
 H   -0.5572931991    1.9485160630    0.8770289914
 H   -1.0200653675   -0.3253659202   -0.0456933546
 H    0.2014982804   -0.1865997059   -2.1589121045
 H    1.7396189128   -0.0315220498   -1.3070189080
 H    0.9915941437   -2.4201452306   -2.1032555582
 H    1.7392776532   -0.1917534613    1.2673254794
 H    0.2212170141   -0.1856596059    2.1672325102