18

 C    0.0591104742    1.3907668041   -0.4214180337
 C    0.0487416632    0.0560879842    0.3212227824
 O    0.4869918668    0.1659348508    1.6637447446
 C   -1.3379811032   -0.5955916521    0.2800210629
 O   -1.7978339414   -1.0874748261   -0.9798790164
 C   -1.5790615271   -2.0426788126    0.0675666242
 C   -0.4994791468   -3.0738913009   -0.1183695339
 C   -2.3283803360    0.1436335831    1.0548295304
 N   -3.0643770901    0.7638125079    1.6957052671
 H    1.0614027132    1.8247040720   -0.3861490431
 H   -0.2318033750    1.2515656179   -1.4664895169
 H   -0.6427281462    2.0978452474    0.0355064461
 H    0.7503718654   -0.6291457025   -0.1596852712
 H   -0.0178699967    0.8685345222    2.0909240722
 H   -2.5081604291   -2.4283585788    0.4897654835
 H    0.3951376333   -2.6585187647   -0.5842886335
 H   -0.2260721240   -3.5083384341    0.8482306698
 H   -0.8714730705   -3.8799459978   -0.7586487644