16

 N   -1.7994748938    1.6541938157    0.0513127006
 C   -1.0271510048    2.5032147406   -0.0829922410
 C   -0.0206650585    3.5564078811   -0.2328572216
 C    1.3975670421    2.9956186925   -0.1853038640
 C    2.5091393466    3.7888279835    0.4166727449
 N    2.0514706020    2.5535111738    1.0420818170
 C    1.3851202393    2.5484387189    2.3416115024
 C    0.8375808296    3.8333055460    2.8140068634
 N    0.4465364802    4.8699690758    3.1452641336
 H   -0.1720376334    4.0493262972   -1.2001405728
 H   -0.1863733018    4.3137111672    0.5379443559
 H    1.6214768072    2.3449259016   -1.0282827862
 H    3.5078379876    3.7587047816   -0.0094297863
 H    2.2383285503    4.7329714593    0.8867204557
 H    0.5809199464    1.8055144158    2.3231885066
 H    2.1146848411    2.2121472395    3.0869119917