22

 C   -0.0699893785    1.5601553358    0.0429257086
 C   -0.0248991657    0.0479238363    0.0405734100
 C    1.2765195635   -0.6832832616   -0.2151045981
 C    0.6553342664   -0.7047820478    1.1502789012
 C    1.2921250919   -0.2050920919    2.4518019114
 N    0.8712853840   -1.4536396213    3.1853153107
 C   -0.6037751422   -1.4871330997    3.0877273090
 C    0.1786453049   -1.9274781786    1.9114774287
 C    0.2441339385   -3.3444775038    1.4251651085
 H    0.8419794254    1.9821122158    0.4784797598
 H   -0.1630353065    1.9556345025   -0.9745702943
 H   -0.9188118678    1.9362475272    0.6252458849
 H   -0.9133155389   -0.4293719414   -0.3685834323
 H    1.2504275998   -1.5908303361   -0.8103471308
 H    2.1764078752   -0.0895209858   -0.3522332340
 H    2.3827696734   -0.1411124365    2.4197023707
 H    0.8909120034    0.7151610515    2.8926336147
 H   -1.0491257469   -2.2533700928    3.7160116328
 H   -1.1522706585   -0.5470868427    3.0604483597
 H   -0.5429079225   -3.5450775592    0.6881218810
 H    1.2100681580   -3.5572208267    0.9554489738
 H    0.1100049335   -4.0409664132    2.2576991541