15

 O    0.6713086830    1.0529109869   -0.5464316654
 C    0.1961091439   -0.0986231953    0.1046562744
 C    0.7887079065   -0.2366492950    1.4790741781
 C    0.1202220911   -0.8117490180    2.4718918005
 C   -1.2907679169   -1.3037371497    2.3202308845
 N   -1.9396142413   -0.7588661555    1.1347364935
 C   -1.3357008940   -0.0601727279    0.1439710248
 O   -1.9467723873    0.5657506277   -0.7092239416
 H   -0.0822356898    1.3584895868   -1.0771341132
 H    0.4621532589   -1.0010975344   -0.4811377157
 H    1.8053596276    0.1228364227    1.6021972281
 H    0.5740276366   -0.9637573103    3.4461068838
 H   -1.3053825754   -2.4053146012    2.2972073229
 H   -1.8779288791   -1.0127983795    3.2012975698
 H   -2.9487535436   -0.7254576272    1.1188893555