16

 N    0.0226721064    1.2281723712   -0.1395910300
 C    0.0322776167   -0.0129805966    0.0249148870
 O    1.0433760018   -0.8792640701    0.3718193323
 C    0.1223667294   -2.0157346210    0.4019261484
 C   -1.0477561699   -1.0890477564   -0.0206464284
 C   -2.2696841945   -0.8919901238    0.9146798904
 N   -3.3567271245   -1.4327408728    0.0889672186
 C   -2.8530289949   -1.5304342664   -1.1917374928
 N   -1.5918159890   -1.3868150786   -1.3500401325
 H    0.9498469380    1.6353994038   -0.0067567704
 H    0.3959204184   -2.7672654476   -0.3400154280
 H    0.0664160456   -2.4453814524    1.4060057145
 H   -2.1771483349   -1.4309627200    1.8618961695
 H   -2.4122395002    0.1742384031    1.1264540715
 H   -4.2931451410   -1.0801946265    0.2207156451
 H   -3.5275359474   -1.7716460061   -2.0083675653