13

 C   -0.3869651021    1.3944857115   -0.1529744749
 N    0.0001269213   -0.0211627607   -0.0701085404
 C    0.0205494833   -0.6218720719    1.2025092684
 O   -0.2615754157   -0.0355964937    2.2156340475
 C    0.3474526836   -0.8080153140   -1.1577686057
 O    0.6664110933   -1.9779029467   -1.0777851087
 C    0.3435127210   -0.2069072639   -2.5744724753
 O    0.0644386821    0.9168666076   -2.8893000593
 H    0.4194044309    1.9949765241   -0.5740158413
 H   -1.2753235660    1.5199681597   -0.7719419280
 H   -0.5948399920    1.7109150480    0.8682228937
 H    0.3216690230   -1.6749505463    1.1514785265
 H    0.6477008773   -0.9901985236   -3.2973105525