23

 C   -0.0414426726    1.4319040001   -0.4506695123
 C   -0.0779342425   -0.0431492880   -0.0311331022
 C   -1.4899789824   -0.5938470006    0.1602421355
 C   -2.2648702306    0.1244789329    1.2623229413
 O   -2.2555762528   -0.5315087305   -1.0907728446
 C   -2.5788547157   -1.9311951347   -1.0247304741
 C   -1.6270463289   -2.8184877120   -1.8633938986
 C   -0.7426657996   -3.0430679461   -0.5960298816
 C   -1.6909163851   -2.1361808832    0.2334275526
 H    0.9808108654    1.7378749345   -0.6925231583
 H   -0.6624710819    1.5880295950   -1.3374718368
 H   -0.4049066404    2.0953839233    0.3395411548
 H    0.4274874679   -0.6342378741   -0.8008557272
 H    0.4860437887   -0.1896386516    0.8995741478
 H   -2.4187783517    1.1765355196    1.0083380975
 H   -3.2486998147   -0.3341405793    1.3983478023
 H   -1.7259246159    0.0709966420    2.2150987435
 H   -3.6554817806   -2.1143970791   -1.0847849362
 H   -2.0862569046   -3.7327233413   -2.2491371560
 H   -1.1608205180   -2.2792090538   -2.6908511270
 H   -0.7623539762   -4.0783631231   -0.2472734917
 H    0.3029008071   -2.7344857577   -0.6613229356
 H   -2.0468235052   -2.5220553521    1.1887932170