23

 C   -0.1351593783    1.6265019163    0.0469598997
 C   -0.1778751158    0.0971111064   -0.0283351571
 C    0.6750905075   -0.4868652039   -1.1825653904
 C    0.7860648110   -2.0343790954   -1.2086411805
 C    0.9611478129   -2.7416288522    0.1340644749
 C   -0.4612690951   -2.4877997259   -2.0031065145
 C   -0.6007286401   -1.4387096843   -3.1132366163
 C    0.0130645357   -0.1584332395   -2.5310742375
 O   -0.0284589625    0.9283215533   -3.0522301282
 H    0.8858514085    1.9773685457    0.2337856415
 H   -0.4734548408    2.0841031198   -0.8852915672
 H   -0.7677788318    1.9898484411    0.8629555364
 H    0.1878855314   -0.3201384110    0.9158712063
 H   -1.2184301827   -0.2396327714   -0.1254953958
 H    1.6606225023   -0.0097579814   -1.1445922566
 H    1.6638602813   -2.2714541542   -1.8269858754
 H    0.0869757640   -2.6118557313    0.7795514488
 H    1.0988780182   -3.8174860459   -0.0180444499
 H    1.8374069707   -2.3698119807    0.6759878474
 H   -0.3602099403   -3.5084426503   -2.3824393178
 H   -1.3425735267   -2.4740931980   -1.3502864484
 H   -0.0088685646   -1.7083636774   -3.9976623543
 H   -1.6200888549   -1.2555588800   -3.4623328749