16

 C    0.0697891013    1.5658552948    0.0819733268
 C    0.0586343617    0.0708094055    0.0547108914
 C    0.0040487269   -0.7567226390   -1.0212254239
 O   -0.0538948420   -0.4606450720   -2.3336047217
 O    0.0107874188   -2.0555991369   -0.6853014464
 C    0.0749954312   -2.1126414764    0.7303625030
 N    0.0960885728   -3.3398109152    1.3688015435
 C    0.1040615738   -0.8315093234    1.1825610744
 O    0.1661640280   -0.4695208251    2.4907107384
 H    0.9784439417    1.9665295220    0.5509997391
 H    0.0280472472    1.9655639034   -0.9341571550
 H   -0.7889517184    1.9784421586    0.6283367144
 H   -0.0812714715   -1.2913645661   -2.8224228610
 H    0.9092222156   -3.9061689928    1.1519814862
 H   -0.7406768436   -3.8954240944    1.2271206960
 H    0.1744642266    0.4912293569    2.5387908849