16

 C   -0.0154836812    1.5345744545    0.0453686936
 C    0.0208990321   -0.0140067496   -0.0020272071
 C    0.7205471153   -0.4926623950   -1.2364892549
 C    1.9437342395   -1.0213000436   -1.2015096865
 C    2.6889643276   -1.1643061004    0.0578775818
 O    3.8340138370   -1.5060002665    0.1460252044
 O    2.0016578986   -0.8718820351    1.2245938234
 C    0.6524229519   -0.5664999181    1.2559866323
 N   -0.0077845169   -0.6882820458    2.3222209046
 H    0.9964963248    1.9455382057    0.1019417694
 H   -0.4964232308    1.9319997076   -0.8532783169
 H   -0.5793972687    1.8598447774    0.9221477574
 H   -1.0150747847   -0.3673992446   -0.0047510471
 H    0.2055128789   -0.3529828562   -2.1833162875
 H    2.4808490501   -1.3381349577   -2.0868037655
 H    0.5851865767   -1.0411907825    3.0758203388