17

 O   -0.8859575374    1.6489146959    0.4136460338
 C    0.1228971679    1.0083179765    0.2763414610
 C    1.5031567156    1.6336896268    0.0129923943
 O    2.4371691468    0.8776203137   -0.1290796378
 C    1.5714930203    3.1406044580   -0.0231110063
 C    1.4427308240    3.7435054881    1.4233587081
 C    2.4666049258    4.8512656591    1.4177346774
 C    3.2358796054    4.8346710167    0.3324106927
 C    2.8881810748    3.7078035078   -0.6076353268
 H    0.1561755591   -0.1010478734    0.3184795141
 H    0.7074894332    3.4902565275   -0.5955319147
 H    0.4230004051    4.0863227204    1.6212260572
 H    1.6758043016    3.0038166663    2.2028077250
 H    2.5609797886    5.5451985725    2.2456414808
 H    4.0533780633    5.5192158740    0.1355774648
 H    3.6699933883    2.9381535649   -0.6184402010
 H    2.7619593476    4.0407077351   -1.6439100126