23

 C    0.0425683836    1.5529594431    0.1734469124
 C   -0.0079585785    0.0233425548    0.2161541570
 C   -1.4037184025   -0.5419334100   -0.0682254158
 C   -1.4583646081   -2.0714888481   -0.0261214331
 C   -2.8689760698   -2.6238791597   -0.3141873782
 C   -2.9422679367   -4.0796838490   -0.2743674814
 C   -2.9762162191   -5.2822794237   -0.2280684047
 C   -3.0234336555   -6.7378886448   -0.1996190303
 O   -3.3314983394   -7.1848255563    1.1169856288
 H    1.0506046758    1.9258033805    0.3801785279
 H   -0.2572639715    1.9319257722   -0.8100439444
 H   -0.6334608351    1.9923787245    0.9154692893
 H    0.7034120059   -0.3880382845   -0.5121292148
 H    0.3300218717   -0.3279310792    1.1999760436
 H   -2.1168022037   -0.1309198010    0.6604610953
 H   -1.7434282773   -0.1908900226   -1.0530915207
 H   -0.7562950832   -2.4911882885   -0.7566688818
 H   -1.1309318411   -2.4312839385    0.9565300870
 H   -3.5787641927   -2.2061692057    0.4126429179
 H   -3.2056966788   -2.2683357637   -1.2976036848
 H   -3.7775175786   -7.0891467776   -0.9233305684
 H   -2.0524496934   -7.1377316341   -0.5359374352
 H   -3.3543931421   -8.1469512981    1.0931902245