19

 C    0.1244621855    1.3575583961   -0.2058304081
 O   -0.1769775186   -0.0105261629    0.0563702475
 C    0.4915736218   -0.5142001447    1.1393903045
 C    1.9431052101   -0.9883735042    1.0501595239
 C    0.8869120744   -1.9748398546    1.4375854299
 C    0.5244824863   -1.8099997522    2.9287220785
 C    1.5472679719   -2.0895054883    4.0221894199
 C    0.1134613333   -0.3455980201    2.5871176975
 O   -0.4575595937    0.5103084251    3.2036729381
 H    1.1920198534    1.4927658402   -0.4279053475
 H   -0.4649436114    1.6457547086   -1.0782848810
 H   -0.1488007608    1.9910660887    0.6455351708
 H    2.2824215026   -1.0522298973    0.0207859820
 H    2.7012243610   -0.6598720322    1.7544413214
 H    0.6462613581   -2.8373672247    0.8302703438
 H   -0.4116458584   -2.3395602264    3.1483867772
 H    2.5113116879   -1.6168252673    3.8123339989
 H    1.1873198159   -1.7018043100    4.9801845203
 H    1.7197474205   -3.1645364940    4.1363141425