19

 C   -0.0593762878    1.3789691381    0.0166043559
 O    0.1041764431   -0.0277149978    0.0231663270
 C    0.6704135965   -0.5571234515   -1.1192129684
 C    0.0068704315   -0.5296732978   -2.5407082378
 C    0.9944588705   -1.6918957210   -2.7552175082
 O    2.3021225699   -1.0774358783   -2.6384677631
 C    2.1264250485   -0.2070406296   -1.4930635535
 C    0.7234022352   -2.1167136405   -1.2941423327
 O    1.6825984660   -2.8802097573   -0.6330014321
 H    0.9035124710    1.9081312113   -0.0010163608
 H   -0.6589403753    1.7129702046   -0.8418052896
 H   -0.5843719680    1.6400509204    0.9377873904
 H   -1.0367875991   -0.8479864424   -2.5233397918
 H    0.1453927113    0.3531509840   -3.1665435982
 H    0.9817827015   -2.3666216245   -3.6077649023
 H    2.2781191046    0.8356138333   -1.7899560362
 H    2.8347047427   -0.4673960872   -0.6989849954
 H   -0.2598954254   -2.5620345824   -1.1329230250
 H    2.5205478032   -2.7142696612   -1.0845557981