14

 O    0.1197157699    1.4368926392    0.1971391662
 C    0.0281447386    0.0911580723    0.0022782602
 C   -1.1467950833   -0.8881224977   -0.1053681829
 N   -0.4350421233   -1.6187591692   -1.1546516051
 C    0.6771630354   -0.7177489409   -1.0856897460
 N    1.7355152661   -0.5313171706   -1.7378878138
 C   -0.3314230119   -0.8110328028    1.1807481220
 C    0.4832108988   -1.9116578868    1.6223639541
 N    1.1221376535   -2.8238871412    1.9351570013
 H    0.3986431427    1.8364141975   -0.6360598004
 H   -2.2158642170   -0.7285537977   -0.1427211946
 H   -0.2597501934   -2.6117142490   -1.0244551350
 H    1.8774013167   -1.2451105264   -2.4545059556
 H   -0.8110842029   -0.2446856767    1.9751856597