23

 C    0.2273246895    1.4455670608   -0.2610448463
 C    0.0928773861   -0.0192004505    0.0687447964
 O    1.2978106001   -0.7687667130    0.2655599969
 C    0.3976753712   -0.6285886689    1.3750612892
 C    0.9011487276    0.1082418510    2.5941753810
 C    1.8722828089   -0.7332213859    3.4178625447
 C    3.2845272014   -1.0466306451    2.8440453147
 C    3.8628956108   -0.8594819936    4.2721604350
 C    2.5674131310   -0.0920718018    4.6522511719
 H    0.9613034570    1.9429538207    0.3754982017
 H    0.5454333756    1.5680095979   -1.3018118509
 H   -0.7373024567    1.9520258626   -0.1455483737
 H   -0.6427867988   -0.5443616326   -0.5456726464
 H   -0.1349474858   -1.5542089159    1.6118612899
 H    1.3931121203    1.0401213775    2.2966816210
 H    0.0369482660    0.3849668345    3.2149828041
 H    1.3822835226   -1.6681387585    3.7181906834
 H    3.4317715490   -2.0080106192    2.3474797374
 H    3.6154470001   -0.2567223245    2.1632662794
 H    3.9405790012   -1.8104318057    4.8074515493
 H    4.8132563874   -0.3297497970    4.3718348134
 H    2.6879486003    0.9887451066    4.5198677961
 H    2.1293718250   -0.2721581296    5.6375735221