18

 C   -0.9764090749   -0.1196768813    1.2089275656
 C   -0.2953501626    0.2337020921    0.2842535823
 C    0.5517330550    0.6815701489   -0.8164134610
 C    1.6600764547    1.5728752800   -0.3429897628
 C    2.6816655680    1.5297615746    0.7531127406
 C    3.7695212815    1.6636736956   -0.2961036374
 N    2.7353223117    2.2180482551   -1.2602444253
 C    2.3890862836    3.5388680895   -0.5953805740
 C    1.7703904483    2.7676269671    0.5555393710
 H   -1.5876659617   -0.4411108844    2.0154060423
 H    0.9765544369   -0.1873915732   -1.3371419836
 H   -0.0553016314    1.2146071365   -1.5608038531
 H    2.6512013144    0.9560009489    1.6706943956
 H    4.6240700629    2.3266231432   -0.1187336568
 H    4.1263033653    0.6980079387   -0.6640109009
 H    3.2488514508    4.1947368826   -0.4168995820
 H    1.6472098064    4.0655845162   -1.2014722761
 H    1.0844435908    3.0842252099    1.3309928757